#------------------------------------------------------------------------------
#$Date: 2020-12-31 01:59:24 +0200 (Thu, 31 Dec 2020) $
#$Revision: 260258 $
#$URL: file:///home/coder/svn-repositories/cod/cif/4/13/54/4135441.cif $
#------------------------------------------------------------------------------
#
# This file is available in the Crystallography Open Database (COD),
# http://www.crystallography.net/
#
# All data on this site have been placed in the public domain by the
# contributors.
#
data_4135441
loop_
_publ_author_name
'Crawley, Matthew R.'
'Zhang, Daoyang'
'Oldacre, Amanda N.'
'Beavers, Christine M.'
'Friedman, Alan E.'
'Cook, Timothy R.'
_publ_section_title
;
 Tuning the Reactivity of Cofacial Porphyrin Prisms for Oxygen Reduction
 Using Modular Building Blocks
;
_journal_name_full               'Journal of the American Chemical Society'
_journal_paper_doi               10.1021/jacs.0c11895
_journal_year                    2020
_chemical_formula_moiety         'C36 H36 Cl2 F6 N2 O2 Ru2, 4(C H Cl3)'
_chemical_formula_sum            'C40 H40 Cl14 F6 N2 O2 Ru2'
_chemical_formula_weight         1393.18
_space_group_crystal_system      triclinic
_space_group_IT_number           2
_space_group_name_Hall           '-P 1'
_space_group_name_H-M_alt        'P -1'
_atom_sites_solution_hydrogens   difmap
_atom_sites_solution_primary     heavy
_audit_creation_date             2020-04-28
_audit_creation_method
;
Olex2 1.3
(compiled 2020.02.04 svn.rd84adfe8 for OlexSys, GUI svn.r6032)
;
_cell_angle_alpha                67.1523(14)
_cell_angle_beta                 70.2511(15)
_cell_angle_gamma                78.9093(15)
_cell_formula_units_Z            1
_cell_length_a                   9.1940(4)
_cell_length_b                   12.4090(5)
_cell_length_c                   13.3632(6)
_cell_measurement_reflns_used    9846
_cell_measurement_temperature    120
_cell_measurement_theta_max      28.32
_cell_measurement_theta_min      2.89
_cell_volume                     1319.04(10)
_computing_cell_refinement       'SAINT v8.37A (Bruker, 2015)'
_computing_data_reduction        'SAINT v8.37A (Bruker, 2015)'
_computing_molecular_graphics    'Olex2 1.3 (Dolomanov et al., 2009)'
_computing_publication_material  'Olex2 1.3 (Dolomanov et al., 2009)'
_computing_structure_refinement  'XL  (Sheldrick, 2008)'
_computing_structure_solution    'ShelXS (Sheldrick, 2008)'
_diffrn_ambient_temperature      120
_diffrn_detector                 'Bruker AXS CMOS-type PHOTON 100 detector'
_diffrn_detector_area_resol_mean 10.42
_diffrn_detector_type            'CMOS area detector'
_diffrn_measured_fraction_theta_full 0.997
_diffrn_measured_fraction_theta_max 0.995
_diffrn_measurement_device       'three-circle diffractometer'
_diffrn_measurement_device_type  'Bruker D8 Venture PHOTON 100'
_diffrn_measurement_method       '\w and \f scans'
_diffrn_radiation_monochromator  'Bruker AXS TRIUMPH monochromator'
_diffrn_radiation_probe          x-ray
_diffrn_radiation_type           MoK\a
_diffrn_radiation_wavelength     0.71073
_diffrn_reflns_av_R_equivalents  0.0344
_diffrn_reflns_av_unetI/netI     0.0338
_diffrn_reflns_Laue_measured_fraction_full 0.997
_diffrn_reflns_Laue_measured_fraction_max 0.995
_diffrn_reflns_limit_h_max       11
_diffrn_reflns_limit_h_min       -12
_diffrn_reflns_limit_k_max       16
_diffrn_reflns_limit_k_min       -16
_diffrn_reflns_limit_l_max       17
_diffrn_reflns_limit_l_min       -17
_diffrn_reflns_number            26329
_diffrn_reflns_point_group_measured_fraction_full 0.997
_diffrn_reflns_point_group_measured_fraction_max 0.995
_diffrn_reflns_theta_full        25.242
_diffrn_reflns_theta_max         28.353
_diffrn_reflns_theta_min         2.857
_diffrn_source                   'Mo sealed tube'
_diffrn_source_current           30.0
_diffrn_source_power             1.35
_diffrn_source_type              'sealed tube'
_diffrn_source_voltage           45.0
_diffrn_standards_number         0
_exptl_absorpt_coefficient_mu    1.340
_exptl_absorpt_correction_T_max  0.7457
_exptl_absorpt_correction_T_min  0.6633
_exptl_absorpt_correction_type   multi-scan
_exptl_absorpt_process_details
'SADABS-2014/5 (Bruker,2014/5) was used for absorption correction. wR2(int) was 0.0660 before and 0.0492 after correction. The Ratio of minimum to maximum transmission is 0.8895. The \l/2 correction factor is Not present.'
_exptl_crystal_colour            'clear orange'
_exptl_crystal_colour_lustre     clear
_exptl_crystal_colour_primary    orange
_exptl_crystal_density_diffrn    1.754
_exptl_crystal_description       prism
_exptl_crystal_F_000             690
_exptl_crystal_recrystallization_method 'Slow evaporation of Chloroform.'
_exptl_crystal_size_max          0.23
_exptl_crystal_size_mid          0.21
_exptl_crystal_size_min          0.13
_refine_diff_density_max         1.358
_refine_diff_density_min         -1.545
_refine_diff_density_rms         0.113
_refine_ls_extinction_method     none
_refine_ls_goodness_of_fit_ref   1.070
_refine_ls_hydrogen_treatment    refall
_refine_ls_matrix_type           full
_refine_ls_number_parameters     406
_refine_ls_number_reflns         6559
_refine_ls_number_restraints     36
_refine_ls_restrained_S_all      1.069
_refine_ls_R_factor_all          0.0484
_refine_ls_R_factor_gt           0.0369
_refine_ls_shift/su_max          0.000
_refine_ls_shift/su_mean         0.000
_refine_ls_structure_factor_coef Fsqd
_refine_ls_weighting_details
'w=1/[\s^2^(Fo^2^)+(0.0282P)^2^+3.0234P] where P=(Fo^2^+2Fc^2^)/3'
_refine_ls_weighting_scheme      calc
_refine_ls_wR_factor_gt          0.0777
_refine_ls_wR_factor_ref         0.0829
_reflns_Friedel_coverage         0.000
_reflns_number_gt                5625
_reflns_number_total             6559
_reflns_threshold_expression     'I > 2\s(I)'
_cod_data_source_file            ja0c11895_si_002.cif
_cod_data_source_block           mrc_dz_s4_8_0m
_cod_database_code               4135441
_shelx_shelxl_version_number     2018/3
_shelx_space_group_comment
;
The symmetry employed for this shelxl refinement is uniquely defined
by the following loop, which should always be used as a source of
symmetry information in preference to the above space-group names.
They are only intended as comments.
;
_shelx_estimated_absorpt_t_max   0.845
_shelx_estimated_absorpt_t_min   0.748
_olex2_refinement_description
;
1. Rigid body (RIGU) restrains
 F1A, F1B, F3A, F3B, F2A, F2B, C18
 with sigma for 1-2 distances of 0.004 and sigma for 1-3 distances of 0.004
2. Others
 Sof(F1B)=Sof(F2B)=Sof(F3B)=1-FVAR(1)
 Sof(F1A)=Sof(F2A)=Sof(F3A)=FVAR(1)
;
_shelx_res_file
;
TITL MRC_DZ_S4_8_0m in P-1 #2
    mrc_dz_s4_8_0m.res
    created by SHELXL-2018/3 at 12:25:37 on 28-Apr-2020
REM reset to P-1 #2
CELL 0.71073 9.194 12.409 13.3632 67.1523 70.2511 78.9093
ZERR 1 0.0004 0.0005 0.0006 0.0014 0.0015 0.0015
LATT 1
SFAC C H Cl F N O Ru
UNIT 40 40 14 6 2 2 2
RIGU F1A F1B F3A F3B F2A F2B C18

L.S. 12
PLAN  7
SIZE 0.23 0.21 0.13
TEMP -153.15
CONF
BOND
MORE -1
BOND $H
fmap 2 53
acta
REM <olex2.extras>
REM <anharmonics
REM  <Ru1 Cijk="7.2283e-008 -3.6399e-008 -1.1448e-008 -4.7145e-008 9.5262e-009
REM  5.9032e-008 9.9972e-009 1.8246e-008 2.8995e-008 -6.2223e-008"
REM  Dijkl="7.3925e-008 -2.7776e-008 -2.7373e-008 1.6585e-008 1.4295e-008
REM  1.7314e-009 -9.2993e-009 4.2670e-010 -1.5136e-008 1.9100e-008
REM  -6.6689e-009 4.7149e-008 -1.9393e-008 3.6073e-008 -5.6051e-008">
REM  <Cl1S Cijk="-1.0016e-005 4.1852e-006 5.8577e-006 -2.2658e-006
REM  -1.4039e-006 -6.0390e-006 2.3263e-006 -4.1231e-007 2.5071e-006
REM  6.6280e-006" Dijkl="3.3648e-007 -9.5599e-009 -1.0328e-007 2.9223e-008
REM  1.8154e-010 6.0436e-008 -4.1811e-008 1.7922e-008 -4.3038e-008
REM  -8.2481e-009 3.6422e-008 1.3006e-008 1.8252e-008 8.9889e-009 1.1022e-008">
REM  <Cl2S Cijk="-4.2446e-006 -7.7920e-007 1.4773e-007 -1.5555e-007
REM  -1.3733e-007 9.8668e-007 5.5860e-008 2.0105e-007 -2.8027e-007
REM  6.5371e-007" Dijkl="3.8620e-007 -7.4216e-010 -6.4761e-008 3.1862e-008
REM  2.2906e-008 3.5040e-008 4.0737e-009 -1.0336e-008 -1.8359e-008 1.0296e-008
REM  -1.4968e-009 4.2633e-008 -1.6262e-008 2.4565e-008 -5.0018e-008">
REM  <Cl3S Cijk="-1.2195e-005 -1.3592e-006 2.9261e-006 -2.5007e-007
REM  4.4891e-007 -6.5909e-007 -2.0862e-006 4.6288e-007 2.6869e-007
REM  -3.1476e-007" Dijkl="4.8590e-007 -8.9004e-009 -7.0997e-008 -3.8488e-009
REM  2.8476e-008 -1.2426e-008 -5.3017e-008 3.2233e-008 -3.1785e-008
REM  2.1573e-008 -5.5214e-008 5.9404e-008 -2.0142e-008 3.9025e-008
REM  -5.6765e-008">
REM  <Cl4S Cijk="-3.0872e-006 2.5030e-007 3.9453e-007 -2.0977e-007 4.5087e-007
REM  -5.4312e-007 -2.5973e-007 2.4591e-008 7.2937e-009 2.0185e-007"
REM  Dijkl="1.7768e-007 -2.8233e-008 -7.4939e-008 1.3713e-008 1.8490e-008
REM  3.2220e-008 -1.5696e-008 -1.0610e-008 -1.4962e-008 -7.7188e-009
REM  1.6318e-008 4.2225e-008 -9.4257e-009 3.5034e-008 -4.0172e-008">
REM  <Cl5S Cijk="-2.5157e-006 9.3187e-008 -6.7826e-007 -3.9316e-007
REM  1.1792e-007 4.6352e-008 -2.4231e-007 1.0740e-007 1.0326e-008
REM  -5.0457e-007" Dijkl="2.8204e-007 -2.7615e-009 -5.0132e-008 5.8228e-008
REM  4.2171e-009 1.2465e-008 -1.0152e-008 -2.6423e-009 -2.3720e-008
REM  1.1331e-008 3.6585e-008 2.6958e-008 -8.9243e-009 2.7729e-008
REM  -2.7341e-008">
REM  <Cl6S Cijk="-1.7253e-006 6.2111e-007 -2.0238e-007 -4.9990e-008
REM  -1.6810e-007 1.2383e-007 2.4516e-007 3.7370e-008 5.6268e-008
REM  -2.2043e-007" Dijkl="2.1393e-007 -2.4675e-008 -1.0753e-008 2.7844e-008
REM  4.5121e-009 4.8783e-009 -6.2846e-009 -6.9763e-009 -1.1023e-008
REM  1.2026e-008 -2.2179e-008 4.3024e-008 -1.5903e-008 3.3015e-008
REM  -3.5038e-008">
REM >
REM <HklSrc "%.\\MRC_DZ_S4_8_0m.hkl">
REM </olex2.extras>

WGHT    0.028200    3.023400
FVAR       0.15950   0.38037
RU1   7    0.254282    0.135001    0.389652    11.00000    0.01049    0.01100 =
         0.00879   -0.00066   -0.00254   -0.00072
CL1   3    0.134405    0.182075    0.560678    11.00000    0.01874    0.02449 =
         0.01422   -0.00925   -0.00165   -0.00259
O1    6    0.194010   -0.034129    0.501839    11.00000    0.01154    0.01260 =
         0.01334    0.00059   -0.00409   -0.00045
N1    5    0.026796    0.134936    0.387860    11.00000    0.01243    0.01059 =
         0.01190   -0.00070   -0.00564   -0.00030
C1    1    0.472485    0.209709    0.361264    11.00000    0.01002    0.02079 =
         0.01471   -0.00341    0.00101   -0.00536
C2    1    0.507567    0.098134    0.352127    11.00000    0.01064    0.01955 =
         0.01451   -0.00309   -0.00318    0.00134
H2    2    0.565864    0.042695    0.395556    11.00000    0.01605
C3    1    0.450153    0.067852    0.280816    11.00000    0.01490    0.01724 =
         0.01513   -0.00462   -0.00084    0.00022
H3    2    0.464747   -0.007021    0.281775    11.00000    0.01543
C4    1    0.362138    0.150571    0.211979    11.00000    0.01349    0.02179 =
         0.00818   -0.00216    0.00077   -0.00226
C5    1    0.328596    0.264231    0.220956    11.00000    0.01434    0.01722 =
         0.00888    0.00418   -0.00066   -0.00231
H5    2    0.264892    0.317455    0.181302    11.00000    0.02002
C6    1    0.379210    0.293000    0.295004    11.00000    0.01458    0.01594 =
         0.01822   -0.00244   -0.00011   -0.00409
H6    2    0.344785    0.358937    0.308225    11.00000    0.01876
C7    1    0.521533    0.240428    0.442261    11.00000    0.01533    0.02627 =
         0.02360   -0.00873   -0.00600   -0.00213
H7A   2    0.436862    0.262035    0.493386    11.00000    0.02886
H7B   2    0.580555    0.178407    0.481408    11.00000    0.04342
H7C   2    0.584424    0.306745    0.398666    11.00000    0.05868
C8    1    0.304332    0.123448    0.131912    11.00000    0.01962    0.02967 =
         0.01597   -0.00965   -0.00561    0.00221
H8    2    0.217922    0.178803    0.121933    11.00000    0.02889
C9    1    0.255442   -0.000914    0.175857    11.00000    0.03533    0.03510 =
         0.02200   -0.01230   -0.00656   -0.00846
H9A   2    0.182366   -0.018616    0.246442    11.00000    0.02965
H9B   2    0.342593   -0.062738    0.185702    11.00000    0.02805
H9C   2    0.208944   -0.016703    0.127065    11.00000    0.04748
C10   1    0.431396    0.150487    0.017536    11.00000    0.03258    0.03634 =
         0.01447   -0.00899   -0.00519    0.00264
H10A  2    0.457308    0.230864   -0.006297    11.00000    0.03061
H10B  2    0.524943    0.096829    0.025904    11.00000    0.03778
H10C  2    0.396800    0.134672   -0.038189    11.00000    0.04437
C11   1    0.049605   -0.046592    0.531683    11.00000    0.01267    0.01176 =
         0.00989   -0.00326   -0.00408    0.00033
C12   1   -0.051508    0.222836    0.313079    11.00000    0.01134    0.01282 =
         0.01094   -0.00075   -0.00291    0.00018
C13   1   -0.118991    0.190631    0.251048    11.00000    0.01452    0.01329 =
         0.01315   -0.00201   -0.00315   -0.00040
H13   2   -0.111504    0.114899    0.257705    11.00000    0.01604
C14   1   -0.189010    0.276388    0.173954    11.00000    0.01547    0.02402 =
         0.01048   -0.00153   -0.00409   -0.00189
H14   2   -0.236106    0.251575    0.132124    11.00000    0.02389
C15   1   -0.191105    0.393548    0.160392    11.00000    0.02009    0.01673 =
         0.01525    0.00450   -0.00791   -0.00016
C16   1   -0.123567    0.425666    0.221846    11.00000    0.02144    0.01267 =
         0.02660   -0.00070   -0.01023    0.00056
H16   2   -0.125767    0.505446    0.213020    11.00000    0.01953
C17   1   -0.053166    0.339979    0.298514    11.00000    0.01680    0.01694 =
         0.01688   -0.00354   -0.00709   -0.00220
H17   2   -0.006697    0.359920    0.338147    11.00000    0.01086
C18   1   -0.268464    0.485561    0.078564    11.00000    0.02960    0.02779 =
         0.02984    0.00605   -0.01807   -0.00167
PART 2
F1B   4   -0.195711    0.585147    0.024199   -21.00000    0.05338    0.02341 =
         0.05207    0.01583   -0.03294   -0.00784
F2B   4   -0.267076    0.449188   -0.006789   -21.00000    0.15197    0.04871 =
         0.06642   -0.01853   -0.09159    0.03535
F3B   4   -0.410251    0.511210    0.128145   -21.00000    0.02109    0.05183 =
         0.07492    0.03584   -0.01421    0.00862

PART 0
CL1S  3   -0.313656    0.291202    0.604972    11.00000    0.06373    0.05536 =
         0.07503   -0.00464   -0.03359   -0.03142
CL2S  3   -0.205203    0.521900    0.508078    11.00000    0.04299    0.02563 =
         0.05565   -0.00216   -0.00420    0.00425
CL3S  3   -0.192317    0.374110    0.732739    11.00000    0.07502    0.08092 =
         0.04953   -0.03917   -0.03689    0.02749
C1S   1   -0.180150    0.377293    0.598346    11.00000    0.02536    0.02538 =
         0.03287   -0.01027   -0.01029    0.00068
H1S   2   -0.080029    0.342476    0.567096    11.00000    0.01893

CL4S  3    0.309332    0.253321   -0.255958    11.00000    0.04585    0.04746 =
         0.02193   -0.00596   -0.00512   -0.02077
CL5S  3    0.028004    0.229320   -0.070487    11.00000    0.04520    0.03845 =
         0.02643   -0.01687   -0.00645    0.00353
CL6S  3    0.181558    0.027118   -0.129659    11.00000    0.03880    0.02976 =
         0.03136   -0.01179   -0.00729   -0.00114
C2S   1    0.138136    0.179782   -0.182863    11.00000    0.03088    0.03022 =
         0.01842   -0.00919   -0.00862   -0.00032
H2S   2    0.078481    0.193024   -0.233440    11.00000    0.03383
PART 1
F1A   4   -0.183744    0.570836    0.011138    21.00000    0.04100    0.05713 =
         0.02959    0.03658   -0.01752   -0.01406
F2A   4   -0.325567    0.451809    0.024741    21.00000    0.09516    0.04006 =
         0.08581   -0.00476   -0.08287    0.00937
F3A   4   -0.397629    0.543160    0.132451    21.00000    0.05591    0.03994 =
         0.05369    0.00966   -0.00850    0.02510
HKLF 4




REM  MRC_DZ_S4_8_0m in P-1 #2
REM wR2 = 0.082859, GooF = S = 1.06971, Restrained GooF = 1.06905 for all data
REM R1 = 0.036881 for 5625 Fo > 4sig(Fo) and 0.048363 for all 6559 data
REM 406 parameters refined using 36 restraints

END

WGHT      0.0282      3.0234

REM Highest difference peak  1.358,  deepest hole -1.545,  1-sigma level  0.113
Q1    1   0.2497  0.1886  0.4212  11.00000  0.05    1.36
Q2    1   0.2684  0.0797  0.3623  11.00000  0.05    1.35
Q3    1  -0.3714  0.3203  0.6629  11.00000  0.05    0.95
Q4    1  -0.2943  0.3598  0.7604  11.00000  0.05    0.67
Q5    1  -0.3002  0.2731  0.5959  11.00000  0.05    0.66
Q6    1   0.5202  0.1576  0.3434  11.00000  0.05    0.49
Q7    1   0.2507  0.0195  0.3387  11.00000  0.05    0.49
;
_shelx_res_checksum              97119
_shelx_hkl_file
;
  -2   0   0  573.98   10.44
  -2   0   0  575.24   10.57
   2   0   0  570.41   10.43
  -3   0   0   45.20    1.18
  -3   0   0   44.38    1.18
  -3   0   0   46.35    1.23
   3   0   0   45.76    1.21
   3   0   0   47.61    1.22
  -4   0   0  114.24    2.56
  -4   0   0  114.83    2.53
  -4   0   0  116.90    2.62
   4   0   0  117.76    2.59
   4   0   0  114.98    2.59
  -5   0   0   12.21    0.80
  -5   0   0   12.56    0.83
  -5   0   0   10.98    0.76
   5   0   0   11.85    0.81
   5   0   0   10.68    0.87
  -6   0   0    2.30    0.47
  -6   0   0    1.53    0.46
  -6   0   0    1.39    0.48
   6   0   0    1.79    0.51
   6   0   0    1.35    0.48
  -7   0   0    2.96    0.63
  -7   0   0    2.24    0.59
  -7   0   0    2.74    0.63
  -7   0   0    1.36    0.56
   7   0   0    2.13    0.61
   7   0   0    0.99    0.57
  -8   0   0    1.63    0.70
  -8   0   0    3.79    0.77
  -8   0   0    1.28    0.64
  -8   0   0    1.85    0.73
   8   0   0    1.60    0.65
   8   0   0    2.23    0.70
  -9   0   0    3.76    0.93
  -9   0   0    5.87    1.00
  -9   0   0    3.24    0.89
  -9   0   0    3.79    0.87
   9   0   0    3.02    0.94
   9   0   0    3.87    0.84
 -10   0   0   10.44    1.45
 -10   0   0    8.20    1.25
 -10   0   0   12.78    1.74
 -10   0   0    8.41    1.22
  10   0   0   11.90    1.64
 -11   0   0    2.52    1.21
 -11   0   0    0.51    1.18
  11   0   0    1.99    1.16
  11  -1   0    6.03    1.27
 -11   1   0    3.10    1.25
 -11   1   0    3.94    1.68
 -11   1   0    4.72    1.24
  10  -1   0    9.25    1.50
 -10   1   0   12.85    1.80
 -10   1   0    7.82    1.24
 -10   1   0   10.49    1.31
 -10   1   0   11.42    1.59
   9  -1   0   28.68    2.11
   9  -1   0   29.83    1.75
  -9   1   0   30.57    1.94
  -9   1   0   29.32    1.84
  -9   1   0   25.92    2.11
  -9   1   0   32.38    2.03
   8  -1   0   59.45    2.25
   8  -1   0   57.72    2.08
  -8   1   0   55.58    2.29
  -8   1   0   60.82    2.20
  -8   1   0   62.04    2.20
   7  -1   0    5.46    0.75
   7  -1   0    4.36    0.70
  -7   1   0    4.46    0.71
  -7   1   0    4.91    0.76
  -7   1   0    4.58    0.71
   6  -1   0   35.65    1.41
   6  -1   0   33.53    1.36
  -6   1   0   38.15    1.43
  -6   1   0   36.38    1.43
  -6   1   0   34.84    1.41
   5  -1   0    0.03    0.37
   5  -1   0    0.66    0.35
  -5   1   0    0.90    0.36
  -5   1   0    1.23    0.43
  -5   1   0    0.78    0.37
   4  -1   0  100.79    2.30
   4  -1   0   96.56    2.29
  -4   1   0   98.02    2.32
  -4   1   0  101.68    2.32
  -4   1   0   96.11    2.29
   3  -1   0    9.92    0.56
   3  -1   0    8.60    0.61
  -3   1   0   11.08    0.67
  -3   1   0    8.99    0.58
  -3   1   0    9.50    0.57
   2  -1   0    9.91    0.44
   2  -1   0   11.16    0.49
   2  -1   0   10.06    0.47
  -2   1   0   10.57    0.48
  -2   1   0    9.56    0.44
  -2   1   0   10.27    0.49
   1   1   0  189.75    3.55
  -2  -1   0   82.85    1.73
  -2  -1   0   83.55    1.71
  -2  -1   0   89.83    1.79
   2   1   0   82.79    1.74
   2   1   0   82.72    1.76
  -3  -1   0    6.67    0.45
  -3  -1   0    6.82    0.46
  -3  -1   0    7.33    0.53
   3   1   0    6.59    0.50
   3   1   0    7.43    0.53
  -4  -1   0   12.19    0.67
  -4  -1   0   12.29    0.76
  -4  -1   0   12.20    0.66
  -4  -1   0   12.24    0.66
   4   1   0   14.31    0.81
   4   1   0   11.92    0.71
  -5  -1   0   73.85    1.99
  -5  -1   0   72.66    1.84
  -5  -1   0   74.14    1.87
  -5  -1   0   75.67    1.91
   5   1   0   72.80    1.96
   5   1   0   71.59    1.91
  -6  -1   0    0.25    0.41
  -6  -1   0   -0.42    0.34
  -6  -1   0    0.38    0.36
  -6  -1   0    0.14    0.33
   6   1   0    0.83    0.50
   6   1   0    0.47    0.43
  -7  -1   0   53.94    1.78
  -7  -1   0   53.24    1.73
  -7  -1   0   50.26    1.91
   7   1   0   50.54    1.82
   7   1   0   53.12    1.88
  -8  -1   0    4.27    0.74
  -8  -1   0    4.54    0.81
  -8  -1   0    4.46    0.83
  -8  -1   0    4.54    0.76
   8   1   0    5.22    0.91
   8   1   0    4.01    0.76
  -9  -1   0   63.77    2.55
  -9  -1   0   65.91    2.50
  -9  -1   0   62.07    2.35
  -9  -1   0   66.97    2.29
   9   1   0   66.18    2.34
   9   1   0   58.98    2.63
 -10  -1   0   38.28    2.17
 -10  -1   0   40.09    2.33
 -10  -1   0   42.38    2.58
 -10  -1   0   40.41    2.14
  10   1   0   41.44    2.14
 -11  -1   0    7.31    1.28
 -11  -1   0    7.13    1.35
  11  -2   0    1.53    1.23
 -11   2   0    1.56    1.26
 -11   2   0    0.29    1.22
  10  -2   0    2.36    1.02
 -10   2   0    1.06    1.13
 -10   2   0    2.24    1.10
 -10   2   0    2.79    1.05
   9  -2   0   25.44    2.16
   9  -2   0   25.31    1.81
  -9   2   0   27.36    1.89
  -9   2   0   24.03    1.94
  -9   2   0   27.19    1.86
   8  -2   0   -0.13    0.62
   8  -2   0   -1.05    0.67
  -8   2   0   -1.09    0.64
  -8   2   0   -0.15    0.65
  -8   2   0   -0.85    0.68
   7  -2   0   38.11    1.65
   7  -2   0   37.08    1.61
  -7   2   0   39.98    1.73
  -7   2   0   38.75    1.66
  -7   2   0   39.53    1.71
   6  -2   0   22.60    1.20
   6  -2   0   26.83    1.23
  -6   2   0   25.97    1.30
  -6   2   0   23.53    1.19
  -6   2   0   24.69    1.27
   5  -2   0  219.80    4.69
   5  -2   0  225.79    4.67
  -5   2   0  223.16    4.77
  -5   2   0  232.17    4.74
  -5   2   0  221.31    4.68
   4  -2   0    1.25    0.36
   4  -2   0    0.53    0.34
   4  -2   0    0.89    0.31
  -4   2   0    0.81    0.32
  -4   2   0    0.94    0.43
  -4   2   0    0.76    0.32
   3  -2   0  448.64    8.21
   3  -2   0  431.60    8.32
   3  -2   0  439.89    8.28
  -3   2   0  415.70    8.30
  -3   2   0  449.81    8.30
  -3   2   0  444.60    8.21
   2  -2   0   22.75    0.76
   2  -2   0   20.73    0.75
   2  -2   0   23.18    0.67
  -2   2   0   21.83    0.75
  -2   2   0   21.85    0.66
   1  -2   0  687.75   13.02
   1  -2   0  716.72   12.75
  -1   2   0  675.79   12.77
  -1   2   0  726.50   12.75
  -1   2   0  708.19   12.96
   0  -2   0   55.05    1.22
   0  -2   0   56.22    1.16
   0   2   0   54.15    1.19
   0   2   0   49.74    1.17
  -1  -2   0  753.07   12.97
  -1  -2   0  703.27   12.97
  -1  -2   0  699.63   13.20
   1   2   0  703.62   13.01
   1   2   0  706.77   13.00
  -2  -2   0  175.53    3.29
  -2  -2   0  181.91    3.38
  -2  -2   0  173.96    3.37
   2   2   0  161.68    3.31
   2   2   0  172.97    3.37
   2   2   0  176.67    3.36
  -3  -2   0   30.74    0.92
  -3  -2   0   29.94    0.86
  -3  -2   0   33.98    1.01
   3   2   0   32.10    0.96
   3   2   0   30.38    0.96
  -4  -2   0    1.11    0.29
  -4  -2   0    0.93    0.35
  -4  -2   0    0.97    0.29
   4   2   0    0.94    0.33
   4   2   0    1.28    0.35
  -5  -2   0   12.24    0.76
  -5  -2   0   12.98    0.97
  -5  -2   0   12.01    0.73
  -5  -2   0   11.59    0.69
   5   2   0   12.87    0.86
   5   2   0   12.44    0.83
  -6  -2   0   -0.03    0.37
  -6  -2   0   -0.08    0.34
  -6  -2   0    0.26    0.34
  -6  -2   0   -0.01    0.40
   6   2   0    0.13    0.45
   6   2   0   -0.39    0.41
  -7  -2   0    0.55    0.43
  -7  -2   0   -0.52    0.43
  -7  -2   0    0.34    0.54
  -7  -2   0   -0.01    0.44
   7   2   0    0.00    0.48
   7   2   0   -0.24    0.55
  -8  -2   0   28.14    1.42
  -8  -2   0   27.58    1.51
  -8  -2   0   26.86    1.47
  -8  -2   0   28.83    1.66
   8   2   0   26.01    1.58
   8   2   0   26.34    1.60
  -9  -2   0   52.58    2.02
  -9  -2   0   51.02    2.16
  -9  -2   0   48.52    2.32
  -9  -2   0   51.32    2.05
   9   2   0   47.37    2.45
   9   2   0   47.39    2.10
 -10  -2   0    2.97    0.99
 -10  -2   0    3.70    1.04
 -10  -2   0    2.08    0.99
 -10  -2   0    6.33    1.22
  10   2   0    4.13    1.55
 -11  -2   0   38.05    2.47
 -11  -2   0   40.00    2.64
 -11  -2   0   41.38    3.01
  11   2   0   48.56    2.52
  11  -3   0    3.47    1.32
 -11   3   0    1.30    1.22
 -11   3   0    3.71    1.24
  10  -3   0    7.48    1.24
 -10   3   0    7.07    1.41
 -10   3   0    8.92    1.34
 -10   3   0    8.09    1.37
   9  -3   0    0.80    1.68
   9  -3   0    0.74    1.06
  -9   3   0   -0.66    0.95
  -9   3   0    1.46    0.87
  -9   3   0    0.70    0.88
   8  -3   0   88.66    2.81
   8  -3   0   89.94    2.76
  -8   3   0   92.76    2.91
  -8   3   0   81.17    3.83
  -8   3   0   92.70    2.86
   7  -3   0   75.21    2.33
   7  -3   0   74.01    2.39
  -7   3   0   74.76    2.35
  -7   3   0   76.63    2.48
  -7   3   0   75.82    2.47
   6  -3   0   55.35    1.79
   6  -3   0   55.34    1.86
  -6   3   0   52.65    1.98
  -6   3   0   53.52    1.78
  -6   3   0   53.63    1.91
   5  -3   0   73.64    2.10
   5  -3   0   73.53    1.97
  -5   3   0   73.06    2.15
  -5   3   0   76.81    2.15
  -5   3   0   73.27    1.99
   4  -3   0   68.32    1.72
   4  -3   0   66.49    1.89
   4  -3   0   64.19    1.82
  -4   3   0   65.73    1.87
  -4   3   0   67.61    1.87
  -4   3   0   65.72    1.71
   3  -3   0   49.72    1.25
   3  -3   0   45.59    1.39
  -3   3   0   45.08    1.41
  -3   3   0   47.50    1.25
  -3   3   0   45.90    1.42
   2  -3   0    0.21    0.22
   2  -3   0    0.17    0.17
   2  -3   0    0.15    0.22
  -2   3   0    0.31    0.18
  -2   3   0   -0.21    0.25
  -2   3   0    0.66    0.28
   1  -3   0    4.22    0.23
   1  -3   0    4.20    0.43
   1  -3   0    4.44    0.41
  -1   3   0    4.55    0.42
  -1   3   0    4.71    0.24
  -1   3   0    4.25    0.40
   0  -3   0  230.62    4.18
   0  -3   0  222.34    4.28
   0  -3   0  211.11    4.21
   0   3   0  220.73    4.19
   0   3   0  222.37    4.27
   0   3   0  204.60    4.21
  -1  -3   0    4.51    0.29
  -1  -3   0    4.92    0.35
  -1  -3   0    4.48    0.38
   1   3   0    4.57    0.38
   1   3   0    4.35    0.40
   1   3   0    4.31    0.41
   1   3   0    4.67    0.26
  -2  -3   0   10.67    0.48
  -2  -3   0   12.66    0.52
   2   3   0   11.98    0.57
   2   3   0   10.75    0.50
   2   3   0   11.86    0.50
  -3  -3   0   37.25    1.09
  -3  -3   0   33.87    0.95
   3   3   0   34.91    1.04
   3   3   0   35.76    1.08
   3   3   0   35.35    0.94
  -4  -3   0    3.66    0.59
  -4  -3   0    2.65    0.43
  -4  -3   0    3.10    0.49
   4   3   0    3.55    0.55
   4   3   0    3.93    0.56
  -5  -3   0    3.97    0.56
  -5  -3   0    3.52    0.56
  -5  -3   0    4.22    0.56
   5   3   0    5.35    0.75
   5   3   0    3.75    0.52
  -6  -3   0   61.74    1.76
  -6  -3   0   62.19    1.73
  -6  -3   0   60.07    1.94
  -6  -3   0   61.33    1.70
   6   3   0   62.26    1.92
   6   3   0   61.50    1.85
  -7  -3   0    0.23    0.41
  -7  -3   0    0.75    0.57
  -7  -3   0   -0.09    0.45
  -7  -3   0   -0.07    0.43
   7   3   0   -0.11    0.54
   7   3   0    1.26    0.53
  -8  -3   0   90.69    2.61
  -8  -3   0   90.26    2.55
  -8  -3   0   93.45    2.86
  -8  -3   0   87.46    2.51
   8   3   0   90.55    2.81
   8   3   0   90.97    2.70
  -9  -3   0    6.39    1.00
  -9  -3   0    5.37    0.98
  -9  -3   0    5.89    0.90
  -9  -3   0    5.95    0.89
   9   3   0    6.03    1.03
   9   3   0    5.32    1.64
 -10  -3   0   39.27    2.18
 -10  -3   0   40.77    2.33
 -10  -3   0   41.79    2.15
 -10  -3   0   41.76    2.31
  10   3   0   38.71    2.35
 -11  -3   0   12.74    1.55
 -11  -3   0   13.85    2.10
  11   3   0   17.55    2.13
  10  -4   0   18.46    2.10
 -10   4   0   12.12    2.05
 -10   4   0   13.56    2.06
 -10   4   0   19.12    2.05
   9  -4   0    1.82    0.87
  -9   4   0    1.88    0.99
  -9   4   0    0.12    1.13
  -9   4   0    1.05    0.90
   8  -4   0   61.73    2.44
   8  -4   0   64.18    2.48
  -8   4   0   63.65    2.50
  -8   4   0   64.65    2.55
  -8   4   0   65.93    2.42
   7  -4   0    2.84    0.76
   7  -4   0    2.22    0.66
  -7   4   0    3.46    0.75
  -7   4   0    2.47    0.66
  -7   4   0    3.31    0.88
   6  -4   0   34.25    1.42
   6  -4   0   33.25    1.53
  -6   4   0   33.76    1.69
  -6   4   0   34.49    1.61
  -6   4   0   35.79    1.47
   5  -4   0   -0.49    0.36
   5  -4   0   -0.07    0.43
   5  -4   0    0.08    0.38
  -5   4   0   -0.30    0.83
  -5   4   0   -0.07    0.44
  -5   4   0   -0.53    0.33
   4  -4   0   17.07    1.02
   4  -4   0   16.59    0.96
   4  -4   0   17.48    0.83
  -4   4   0   17.56    1.03
  -4   4   0   17.77    1.01
  -4   4   0   17.35    0.84
   3  -4   0    8.54    0.53
   3  -4   0    8.20    0.70
   3  -4   0    7.65    0.70
  -3   4   0    7.49    0.71
  -3   4   0    8.79    0.76
  -3   4   0    8.95    0.56
   2  -4   0    4.74    0.38
   2  -4   0    4.95    0.59
   2  -4   0    5.52    0.59
  -2   4   0    5.55    0.63
  -2   4   0    3.43    0.56
  -2   4   0    4.41    0.41
   1  -4   0  103.01    2.27
   1  -4   0  100.52    2.34
  -1   4   0  103.18    2.34
  -1   4   0  103.69    2.30
  -1   4   0   96.83    2.26
   0  -4   0    5.64    0.52
   0  -4   0    5.43    0.49
   0  -4   0    5.67    0.47
   0   4   0    5.70    0.50
   0   4   0    5.47    0.50
   0   4   0    5.87    0.50
  -1  -4   0   71.68    1.74
  -1  -4   0   77.12    1.63
  -1  -4   0   72.68    1.47
   1   4   0   70.03    1.75
   1   4   0   72.89    1.65
   1   4   0   69.76    1.44
   1   4   0   73.53    1.78
  -2  -4   0   79.97    1.70
  -2  -4   0   77.78    1.91
  -2  -4   0   79.85    1.71
   2   4   0   74.81    1.69
   2   4   0   79.39    1.91
   2   4   0   75.09    1.67
  -3  -4   0    9.23    0.61
  -3  -4   0    8.03    0.56
   3   4   0    8.68    0.49
   3   4   0    9.15    0.63
   3   4   0    9.00    0.57
  -4  -4   0   26.00    0.87
  -4  -4   0   26.76    1.05
   4   4   0   27.14    1.04
   4   4   0   27.80    1.02
   4   4   0   27.63    0.87
  -5  -4   0    3.76    0.56
  -5  -4   0    3.80    0.49
  -5  -4   0    3.65    0.44
   5   4   0    4.25    0.70
   5   4   0    4.32    0.56
  -6  -4   0   78.18    2.13
  -6  -4   0   78.70    2.30
  -6  -4   0   77.15    1.98
   6   4   0   79.85    2.21
   6   4   0   78.46    2.23
  -7  -4   0    0.02    0.88
  -7  -4   0    0.73    0.47
  -7  -4   0   -0.85    0.54
  -7  -4   0    0.11    0.45
   7   4   0    1.03    0.57
   7   4   0    0.09    0.57
  -8  -4   0   50.26    2.14
  -8  -4   0   52.73    1.94
  -8  -4   0   52.91    1.87
  -8  -4   0   53.03    1.79
   8   4   0   48.65    2.11
   8   4   0   54.09    2.08
  -9  -4   0    9.47    1.29
  -9  -4   0   12.83    1.48
  -9  -4   0   12.86    1.63
  -9  -4   0   13.12    1.46
   9   4   0   10.96    1.64
 -10  -4   0   42.27    2.26
 -10  -4   0   43.27    2.36
 -10  -4   0   44.20    2.42
 -10  -4   0   47.66    2.27
  10   4   0   44.60    2.72
 -11  -4   0    3.40    2.06
 -11  -4   0    2.10    1.31
  11   4   0    4.78    1.25
  10  -5   0    0.68    1.16
 -10   5   0    2.34    1.09
 -10   5   0   -0.76    1.15
   9  -5   0   36.44    2.32
  -9   5   0   40.73    2.36
  -9   5   0   37.82    2.23
  -9   5   0   34.38    2.57
   8  -5   0    7.39    1.26
   8  -5   0    8.54    1.13
  -8   5   0   11.21    1.47
  -8   5   0    8.64    1.22
  -8   5   0    9.62    1.28
   7  -5   0   81.65    2.49
   7  -5   0   80.37    2.67
  -7   5   0   78.58    2.50
  -7   5   0   82.78    2.78
  -7   5   0   79.58    2.74
   6  -5   0   84.80    2.62
   6  -5   0   87.23    2.41
  -6   5   0   86.78    2.40
  -6   5   0   86.97    2.65
  -6   5   0   85.07    2.71
   5  -5   0   14.40    0.92
   5  -5   0   14.49    1.20
   5  -5   0   14.26    1.12
  -5   5   0   15.65    0.95
  -5   5   0   14.60    1.18
  -5   5   0   15.19    1.22
   4  -5   0   86.78    2.42
   4  -5   0   90.18    2.11
   4  -5   0   88.98    2.44
  -4   5   0   87.27    2.43
  -4   5   0   85.66    2.10
  -4   5   0   86.55    3.08
   3  -5   0   13.75    0.64
   3  -5   0   13.86    0.91
   3  -5   0   14.18    0.92
  -3   5   0   14.09    0.93
  -3   5   0   12.60    0.86
  -3   5   0   14.28    0.66
   2  -5   0   31.87    0.83
   2  -5   0   30.60    1.19
   2  -5   0   30.93    1.17
  -2   5   0   32.19    1.20
  -2   5   0   31.24    1.19
  -2   5   0   31.76    0.84
   1  -5   0   30.02    1.06
   1  -5   0   29.51    1.13
  -1   5   0   28.11    1.05
  -1   5   0   32.57    1.15
  -1   5   0   29.09    1.12
   0  -5   0    0.30    0.31
   0  -5   0    0.54    0.28
   0  -5   0    0.65    0.30
   0   5   0    1.26    0.35
   0   5   0    0.66    0.29
   0   5   0    0.25    0.30
  -1  -5   0  278.58    5.65
  -1  -5   0  298.16    5.50
   1   5   0  294.63    5.73
   1   5   0  273.11    5.66
   1   5   0  284.25    5.52
  -2  -5   0   16.54    0.83
  -2  -5   0   16.78    0.63
  -2  -5   0   17.67    0.72
   2   5   0   17.34    0.61
   2   5   0   16.92    0.86
   2   5   0   14.18    0.71
  -3  -5   0  256.11    5.18
  -3  -5   0  256.00    4.92
  -3  -5   0  252.25    4.83
   3   5   0  246.88    4.88
   3   5   0  252.03    5.08
   3   5   0  243.54    4.80
  -4  -5   0   10.04    0.76
   4   5   0    9.81    0.77
   4   5   0   10.14    0.71
   4   5   0    9.93    0.58
  -5  -5   0   87.76    2.04
  -5  -5   0   87.77    2.31
   5   5   0   87.66    2.29
   5   5   0   86.73    2.25
  -6  -5   0    1.71    0.45
  -6  -5   0    2.67    0.65
   6   5   0    1.72    0.54
   6   5   0    1.81    0.57
  -7  -5   0   61.07    2.20
  -7  -5   0   62.61    1.83
  -7  -5   0   60.14    1.78
   7   5   0   64.37    2.15
   7   5   0   64.41    2.12
  -8  -5   0    0.96    0.51
  -8  -5   0    0.40    0.59
  -8  -5   0    0.28    0.75
   8   5   0   -0.69    0.71
  -9  -5   0   57.96    2.14
  -9  -5   0   52.90    1.99
  -9  -5   0   56.39    2.49
   9   5   0   56.85    2.42
 -10  -5   0    1.68    1.02
 -10  -5   0    0.02    0.88
  10   5   0   -0.73    1.29
 -11  -5   0   15.55    2.37
 -11  -5   0   16.85    2.39
  11   5   0   13.95    2.44
  10  -6   0    1.25    1.27
 -10   6   0   -1.18    1.32
 -10   6   0    2.96    1.15
   9  -6   0    6.36    1.22
  -9   6   0    4.84    1.24
  -9   6   0    5.90    1.17
   8  -6   0    7.65    1.26
  -8   6   0    7.73    1.25
  -8   6   0    7.04    1.11
  -8   6   0    7.28    1.06
   7  -6   0   39.76    2.42
   7  -6   0   35.30    1.73
  -7   6   0   37.19    1.75
  -7   6   0   34.33    2.11
  -7   6   0   35.47    1.98
   6  -6   0   75.83    2.64
   6  -6   0   75.61    2.22
   6  -6   0   74.43    2.55
  -6   6   0   75.38    2.70
  -6   6   0   75.25    2.58
  -6   6   0   72.28    2.21
   5  -6   0   24.27    1.52
   5  -6   0   22.28    1.11
   5  -6   0   22.32    1.38
  -5   6   0   24.75    1.49
  -5   6   0   23.22    1.13
  -5   6   0   23.28    1.44
   4  -6   0    1.11    0.52
   4  -6   0    1.14    0.47
   4  -6   0    0.75    0.37
  -4   6   0    1.09    0.37
  -4   6   0    1.08    0.57
  -4   6   0    0.87    0.54
   3  -6   0    9.65    0.92
   3  -6   0    7.79    0.88
   3  -6   0   10.58    0.59
  -3   6   0   10.45    0.60
  -3   6   0   10.18    1.11
  -3   6   0   10.35    0.92
   2  -6   0   36.20    1.39
   2  -6   0   35.51    1.35
  -2   6   0   37.67    1.34
  -2   6   0   37.72    1.39
  -2   6   0   36.49    1.37
   1  -6   0   58.35    1.78
   1  -6   0   60.03    1.68
  -1   6   0   58.44    1.76
  -1   6   0   56.96    1.69
  -1   6   0   58.25    1.72
   0  -6   0   18.86    0.87
   0  -6   0   19.52    0.99
   0  -6   0   19.02    0.94
   0   6   0   18.89    0.96
   0   6   0   19.15    0.94
   0   6   0   19.39    0.95
  -1  -6   0  185.85    3.72
  -1  -6   0  180.72    3.90
   1   6   0  177.97    3.78
   1   6   0  174.51    3.90
   1   6   0  185.38    3.97
  -2  -6   0   30.46    1.20
  -2  -6   0   31.44    1.02
  -2  -6   0   29.83    0.89
   2   6   0   31.27    1.23
   2   6   0   31.04    0.84
   2   6   0   30.13    1.04
  -3  -6   0  135.59    3.28
  -3  -6   0  137.04    2.85
  -3  -6   0  135.68    2.88
   3   6   0  132.86    2.84
   3   6   0  135.31    2.84
   3   6   0  139.66    3.21
   3   6   0  135.12    3.11
  -4  -6   0    6.87    0.76
  -4  -6   0    8.23    0.90
   4   6   0   10.12    0.84
   4   6   0   10.53    0.72
   4   6   0    8.98    0.59
  -5  -6   0  118.69    2.91
  -5  -6   0  120.46    3.12
   5   6   0  121.43    2.87
   5   6   0  119.19    2.96
  -6  -6   0    0.93    0.55
   6   6   0    0.79    0.52
   6   6   0    0.48    0.53
  -7  -6   0   20.77    1.51
  -7  -6   0   22.89    1.17
   7   6   0   22.81    1.47
   7   6   0   23.99    1.44
  -8  -6   0   28.88    1.36
  -8  -6   0   22.78    1.72
   8   6   0   24.88    1.69
   8   6   0   24.29    1.78
  -9  -6   0    3.49    1.02
   9   6   0    5.76    1.10
 -10  -6   0   18.33    2.05
 -10  -6   0   20.45    1.68
  10   6   0   18.47    2.30
   9  -7   0    1.75    1.12
  -9   7   0    0.66    1.08
   8  -7   0   15.67    1.84
   8  -7   0   13.34    1.88
  -8   7   0   12.33    1.84
  -8   7   0   15.91    1.68
  -8   7   0   14.10    1.92
   7  -7   0    9.17    1.57
   7  -7   0   10.87    1.43
  -7   7   0   10.04    1.28
  -7   7   0   10.31    1.35
  -7   7   0    9.05    1.57
   6  -7   0   11.61    1.45
   6  -7   0   13.30    1.22
   6  -7   0   14.45    1.67
  -6   7   0   16.64    1.64
  -6   7   0   13.45    1.45
  -6   7   0   14.11    1.19
   5  -7   0   50.26    2.16
   5  -7   0   54.65    1.67
   5  -7   0   52.13    2.15
  -5   7   0   51.57    1.65
  -5   7   0   54.27    2.14
  -5   7   0   53.38    2.13
   4  -7   0   36.56    1.68
   4  -7   0   37.29    1.70
   4  -7   0   37.67    1.24
  -4   7   0   35.83    1.23
  -4   7   0   38.24    1.74
  -4   7   0   37.47    1.67
   3  -7   0   41.72    1.69
   3  -7   0   42.43    1.67
   3  -7   0   42.25    1.14
  -3   7   0   41.67    1.65
  -3   7   0   42.62    1.16
  -3   7   0   41.24    1.61
  -3   7   0   42.73    1.69
   2  -7   0   34.62    1.47
   2  -7   0   33.07    1.47
  -2   7   0   34.52    1.38
  -2   7   0   35.46    1.46
  -2   7   0   33.90    1.43
   1  -7   0    9.21    0.84
   1  -7   0    9.86    0.88
  -1   7   0    9.86    0.89
  -1   7   0    7.69    1.04
  -1   7   0    9.35    0.84
   0  -7   0   62.08    2.14
   0  -7   0   64.11    1.98
   0  -7   0   66.37    1.80
   0   7   0   64.28    1.99
   0   7   0   62.04    1.83
   0   7   0   62.65    1.88
  -1  -7   0    8.56    0.71
   1   7   0    8.08    0.81
   1   7   0    9.03    0.81
   1   7   0    8.08    0.83
  -2  -7   0  428.94    8.42
  -2  -7   0  429.37    8.07
  -2  -7   0  410.82    7.84
   2   7   0  421.05    7.80
   2   7   0  410.67    8.08
   2   7   0  445.12    8.49
  -3  -7   0    0.22    0.33
  -3  -7   0   -0.37    0.38
  -3  -7   0   -0.42    0.27
   3   7   0    0.29    0.27
   3   7   0    0.06    0.42
   3   7   0    0.14    0.38
   3   7   0   -0.07    0.28
  -4  -7   0  203.63    4.52
  -4  -7   0  199.09    4.16
   4   7   0  180.55    4.99
   4   7   0  202.43    4.11
   4   7   0  205.41    4.42
  -5  -7   0   12.97    1.05
  -5  -7   0   11.73    1.18
   5   7   0   14.38    1.13
   5   7   0   13.08    0.97
   5   7   0   11.65    1.21
  -6  -7   0   25.05    1.57
  -6  -7   0   23.38    1.41
   6   7   0   23.82    1.31
   6   7   0   24.22    1.45
  -7  -7   0    0.67    0.75
   7   7   0    1.13    0.70
   7   7   0    1.27    0.70
  -8  -7   0   25.78    1.82
   8   7   0   25.07    1.88
   8   7   0   24.98    1.85
  -9  -7   0    0.03    0.87
   9   7   0   -1.74    0.92
 -10  -7   0    3.01    1.14
  10   7   0    1.61    1.26
   9  -8   0    0.48    1.26
  -9   8   0    1.43    1.10
  -9   8   0   -0.94    1.29
   8  -8   0    3.99    1.17
   8  -8   0    3.61    1.27
  -8   8   0    3.21    1.07
  -8   8   0    5.89    1.05
   7  -8   0   19.20    1.95
   7  -8   0   18.41    1.70
  -7   8   0   18.39    1.55
  -7   8   0   16.92    1.87
  -7   8   0   19.47    2.22
   6  -8   0   25.05    1.48
   6  -8   0   23.55    1.82
   6  -8   0   23.68    2.04
  -6   8   0   22.27    1.93
  -6   8   0   23.11    1.36
  -6   8   0   21.47    1.80
   5  -8   0   14.30    1.03
   5  -8   0   12.77    1.60
  -5   8   0   12.89    1.46
  -5   8   0   15.24    1.49
  -5   8   0   14.35    1.01
   4  -8   0  136.56    3.63
   4  -8   0  135.53    3.70
   4  -8   0  133.69    2.93
  -4   8   0  135.27    2.96
  -4   8   0  135.20    3.68
  -4   8   0  135.70    3.55
  -4   8   0  134.25    3.61
   3  -8   0    0.15    0.50
   3  -8   0   -0.12    0.55
  -3   8   0    1.12    0.50
  -3   8   0    0.05    0.57
  -3   8   0   -0.10    0.28
  -3   8   0    0.46    0.53
   2  -8   0   79.16    2.33
   2  -8   0   78.46    2.48
  -2   8   0   78.91    2.42
  -2   8   0   78.95    2.33
  -2   8   0   79.58    2.38
   1  -8   0    6.36    0.99
   1  -8   0    7.16    0.96
  -1   8   0    6.73    0.94
  -1   8   0    6.88    0.94
  -1   8   0    6.28    0.88
   0  -8   0   90.15    2.61
   0  -8   0   91.46    2.35
   0   8   0   88.83    2.41
   0   8   0   87.69    2.54
   0   8   0   88.16    2.48
  -1  -8   0   20.72    1.02
  -1  -8   0   22.14    1.22
   1   8   0   20.56    1.18
   1   8   0   21.08    1.25
   1   8   0   20.68    1.14
  -2  -8   0   72.01    2.19
  -2  -8   0   71.84    1.89
   2   8   0   68.58    1.93
   2   8   0   71.03    2.20
   2   8   0   73.55    2.25
  -3  -8   0   27.08    1.12
  -3  -8   0   26.01    0.96
  -3  -8   0   28.79    1.43
   3   8   0   28.47    1.45
   3   8   0   25.96    1.07
   3   8   0   27.62    0.92
  -4  -8   0  103.71    2.50
  -4  -8   0  105.61    2.93
   4   8   0  105.96    2.46
   4   8   0  105.22    2.85
   4   8   0  105.14    2.41
   4   8   0  106.89    2.95
  -5  -8   0    0.97    0.60
  -5  -8   0    0.04    0.48
   5   8   0   -0.05    0.63
   5   8   0   -0.15    0.51
   5   8   0    0.28    0.57
  -6  -8   0    7.35    1.00
  -6  -8   0    8.51    1.14
   6   8   0    6.92    1.14
   6   8   0    6.75    0.99
   6   8   0    7.34    0.95
  -7  -8   0   11.04    1.72
  -7  -8   0   11.73    1.43
   7   8   0   10.71    1.43
   7   8   0   13.25    1.73
   7   8   0   13.91    1.39
  -8  -8   0    0.49    0.78
   8   8   0   -0.06    0.93
   8   8   0   -0.07    0.82
   8   8   0   -2.25    1.10
  -9  -8   0   32.37    2.26
   9   8   0   25.21    2.24
 -10  -8   0   -0.45    1.20
  10   8   0   -1.86    1.31
   8  -9   0    9.75    1.45
   8  -9   0    5.97    1.44
  -8   9   0    7.83    1.46
  -8   9   0    8.70    1.19
   7  -9   0   12.59    1.98
   7  -9   0   10.95    1.41
  -7   9   0   14.60    2.05
  -7   9   0   10.10    1.47
   6  -9   0    1.36    0.98
   6  -9   0    1.66    0.79
  -6   9   0    1.99    0.95
  -6   9   0    0.37    0.63
  -6   9   0    3.44    1.17
   5  -9   0   10.30    1.07
   5  -9   0    9.47    1.25
   5  -9   0   12.46    1.54
  -5   9   0   12.02    1.51
  -5   9   0   12.00    1.69
  -5   9   0   10.68    1.63
  -5   9   0   10.00    0.95
   4  -9   0   43.73    2.14
   4  -9   0   43.13    1.36
   4  -9   0   43.69    2.12
  -4   9   0   45.01    2.00
  -4   9   0   44.70    1.48
  -4   9   0   46.51    2.09
  -4   9   0   47.28    2.19
   3  -9   0   11.61    1.37
   3  -9   0   11.50    1.34
  -3   9   0   11.74    1.44
  -3   9   0   11.45    1.38
  -3   9   0   12.51    1.34
   2  -9   0    1.22    0.67
   2  -9   0   -0.21    0.58
  -2   9   0    0.66    0.57
  -2   9   0    0.83    0.60
  -2   9   0    1.17    0.54
   1  -9   0   99.56    2.73
   1  -9   0   98.83    2.97
  -1   9   0   95.40    2.79
  -1   9   0   99.21    2.90
  -1   9   0  100.96    2.81
   0  -9   0    2.08    0.68
   0  -9   0    2.35    0.61
   0   9   0    3.35    0.73
   0   9   0    1.38    0.50
   0   9   0    2.48    0.64
  -1  -9   0   81.15    2.22
  -1  -9   0   79.07    2.44
   1   9   0   80.89    2.54
   1   9   0   80.46    2.47
   1   9   0   76.40    2.30
  -2  -9   0   41.30    1.74
  -2  -9   0   39.33    1.45
   2   9   0   39.39    1.52
   2   9   0   39.74    1.77
  -3  -9   0  100.65    2.86
  -3  -9   0  101.97    2.45
  -3  -9   0   97.51    2.34
   3   9   0   95.37    2.42
   3   9   0  101.77    2.94
   3   9   0   97.57    2.15
  -4  -9   0    2.74    0.50
  -4  -9   0    3.27    0.56
  -4  -9   0    2.43    0.62
   4   9   0    3.36    0.49
   4   9   0    2.68    0.66
   4   9   0    3.02    0.78
  -5  -9   0   31.00    1.78
  -5  -9   0   26.52    1.77
   5   9   0   31.72    1.67
   5   9   0   29.86    1.82
   5   9   0   32.20    1.56
  -6  -9   0    5.40    0.83
  -6  -9   0    3.49    0.92
   6   9   0    5.23    0.79
   6   9   0    4.40    0.90
   6   9   0    5.13    1.07
  -7  -9   0    2.68    0.86
   7   9   0    2.48    0.85
   7   9   0    3.33    1.12
   7   9   0    2.77    0.97
  -8  -9   0    1.91    1.01
   8   9   0    3.42    1.11
   8   9   0    1.94    1.28
   8   9   0    2.31    1.05
  -9  -9   0   13.23    2.11
   9   9   0    8.02    1.85
   9   9   0    7.44    1.44
   8 -10   0    0.59    1.25
  -8  10   0    2.10    1.06
  -8  10   0    1.48    1.51
   7 -10   0    1.53    1.15
   7 -10   0    0.46    1.09
  -7  10   0    1.99    0.92
  -7  10   0    3.55    1.25
   6 -10   0   13.30    1.96
   6 -10   0   11.82    1.53
  -6  10   0   16.57    2.06
  -6  10   0   16.84    1.33
  -6  10   0   12.33    1.76
   5 -10   0   21.24    1.90
  -5  10   0   20.74    2.02
  -5  10   0   19.96    1.69
  -5  10   0   19.87    1.16
   4 -10   0   10.26    1.74
   4 -10   0   12.35    1.58
  -4  10   0   12.29    1.58
  -4  10   0   15.54    1.69
  -4  10   0   12.90    1.58
   3 -10   0  100.16    3.16
   3 -10   0   98.99    3.25
  -3  10   0   93.32    3.70
  -3  10   0  102.11    3.20
  -3  10   0  100.86    3.04
   2 -10   0    4.01    0.88
   2 -10   0    2.56    0.74
  -2  10   0    4.17    0.83
  -2  10   0    3.78    0.88
   1 -10   0   21.76    1.62
   1 -10   0   22.93    1.50
  -1  10   0   23.20    1.50
  -1  10   0   22.78    1.56
  -1  10   0   24.73    1.62
   0 -10   0   17.22    1.59
   0 -10   0   15.15    1.28
   0  10   0   15.81    1.32
   0  10   0   14.05    1.34
   0  10   0   17.50    1.41
  -1 -10   0   25.75    1.60
  -1 -10   0   25.55    1.40
   1  10   0   25.46    1.53
   1  10   0   26.00    1.60
   1  10   0   25.38    1.52
  -2 -10   0    7.72    1.04
  -2 -10   0    9.94    1.30
   2  10   0    8.92    1.31
   2  10   0    8.27    1.19
   2  10   0    8.81    1.09
  -3 -10   0   10.55    1.07
  -3 -10   0   11.57    1.39
   3  10   0   10.96    0.99
   3  10   0   12.23    1.44
  -4 -10   0   25.45    1.76
  -4 -10   0   25.67    1.15
   4  10   0   25.82    1.20
   4  10   0   24.96    1.07
   4  10   0   28.40    1.69
   4  10   0   25.15    1.78
  -5 -10   0   24.52    1.90
  -5 -10   0   25.52    1.35
   5  10   0   25.04    1.94
   5  10   0   25.90    1.31
   5  10   0   26.10    1.69
  -6 -10   0    4.12    0.80
   6  10   0    4.93    1.07
   6  10   0    3.41    0.78
   6  10   0    5.45    1.25
  -7 -10   0    0.45    0.87
   7  10   0    2.16    1.32
   7  10   0    1.23    0.97
   7  10   0    2.07    0.93
  -8 -10   0    5.07    1.18
   8  10   0    3.84    1.19
   8  10   0    6.43    1.29
   8  10   0    7.51    1.74
  -9 -10   0    2.53    1.29
   9  10   0    2.09    1.37
   7 -11   0    4.48    1.49
  -7  11   0   -1.18    1.02
  -7  11   0   -2.01    1.21
   6 -11   0   32.99    2.53
  -6  11   0   29.92    2.22
  -6  11   0   29.94    2.51
  -6  11   0   34.40    1.57
   5 -11   0    0.73    0.95
  -5  11   0   -1.29    0.87
  -5  11   0    0.92    0.92
   4 -11   0   77.35    3.11
  -4  11   0   83.84    3.13
  -4  11   0   76.69    2.90
   3 -11   0   12.01    1.73
   3 -11   0    7.75    1.17
  -3  11   0    7.11    1.12
  -3  11   0    7.82    1.06
  -3  11   0   11.93    1.77
   2 -11   0   17.51    1.74
   2 -11   0   17.69    1.75
  -2  11   0   18.92    1.77
  -2  11   0   18.24    1.58
  -2  11   0   18.05    1.87
   1 -11   0    0.45    0.78
   1 -11   0    1.15    0.80
  -1  11   0    1.34    1.14
  -1  11   0    1.55    0.84
  -1  11   0    1.48    0.65
   0 -11   0   36.30    1.82
   0  11   0   35.33    2.02
   0  11   0   35.61    1.84
   0  11   0   33.25    1.83
  -1 -11   0    0.93    0.67
  -1 -11   0    0.38    0.77
   1  11   0    2.24    0.73
   1  11   0    1.09    0.70
   1  11   0    0.85    0.81
  -2 -11   0    0.25    0.79
  -2 -11   0   -0.12    0.67
   2  11   0   -0.13    0.77
   2  11   0   -0.09    0.66
   2  11   0    0.86    0.63
  -3 -11   0    5.89    1.39
  -3 -11   0    7.01    1.07
   3  11   0    8.25    1.06
   3  11   0    8.40    1.15
  -4 -11   0   27.13    2.08
  -4 -11   0   26.87    1.43
   4  11   0   30.00    1.86
   4  11   0   28.68    2.16
   4  11   0   27.51    1.08
   4  11   0   29.39    1.38
  -5 -11   0   12.47    1.18
   5  11   0   11.29    2.02
   5  11   0    9.81    1.53
   5  11   0   11.84    1.11
  -6 -11   0   10.19    1.46
   6  11   0    9.55    1.40
   6  11   0    8.07    1.42
   6  11   0   11.77    1.71
  -7 -11   0    6.34    1.13
   7  11   0    6.26    2.02
   7  11   0    5.91    1.21
   7  11   0    6.09    1.09
  -8 -11   0    5.95    1.28
   8  11   0    3.18    1.30
   6 -12   0    2.12    1.40
  -6  12   0    1.25    1.11
  -6  12   0    1.42    1.32
   5 -12   0   45.50    2.78
  -5  12   0   41.45    2.50
  -5  12   0   46.85    2.74
   4 -12   0   16.31    2.15
  -4  12   0   15.25    1.85
  -4  12   0   15.10    2.17
   3 -12   0    6.89    1.27
  -3  12   0    6.18    0.99
  -3  12   0    5.88    1.20
   2 -12   0   28.56    2.20
   2 -12   0   30.75    2.23
  -2  12   0   28.29    2.10
  -2  12   0   26.57    1.89
   1 -12   0   13.99    1.82
   1 -12   0   16.60    1.86
  -1  12   0   14.62    1.75
  -1  12   0   15.52    1.69
   0 -12   0   23.94    1.82
   0  12   0   24.14    2.35
   0  12   0   25.28    2.19
   0  12   0   23.56    1.81
  -1 -12   0    8.93    1.12
   1  12   0    7.65    1.39
   1  12   0   11.08    1.58
   1  12   0    9.47    1.53
  -2 -12   0    7.70    1.03
   2  12   0   10.58    1.42
   2  12   0    7.78    1.32
  -3 -12   0   12.11    1.52
   3  12   0   12.35    2.10
   3  12   0   13.65    1.29
   4  12   0   13.42    1.29
   4  12   0   17.44    1.82
   4  12   0   13.72    2.27
  -5 -12   0   14.90    1.24
   5  12   0   18.02    1.87
  -6 -12   0   16.34    1.63
   6  12   0   14.67    1.98
  -7 -12   0    6.54    1.18
   7  12   0    4.87    1.31
   5 -13   0   13.11    1.82
  -5  13   0   21.71    2.63
  -5  13   0   19.96    2.44
   4 -13   0    1.28    1.27
  -4  13   0   -0.03    1.02
  -4  13   0   -0.12    1.07
   3 -13   0   25.21    2.35
  -3  13   0   22.33    2.29
  -3  13   0   24.74    2.12
   2 -13   0   13.14    2.02
  -2  13   0   18.55    2.17
  -2  13   0   16.15    1.89
   1 -13   0    7.32    1.39
  -1  13   0    7.66    1.26
  -1  13   0    7.16    1.23
   0 -13   0    1.19    1.12
   0  13   0    0.11    0.83
   0  13   0    1.75    1.03
  -1 -13   0    1.15    0.95
   1  13   0   -1.13    0.85
   1  13   0    0.47    0.91
  -2 -13   0    0.50    0.94
   2  13   0    1.68    0.84
  -3 -13   0    1.17    0.97
   3  13   0    1.04    0.79
  -4 -13   0    6.23    1.10
   4  13   0    8.23    1.38
   4  13   0    4.80    1.09
   5  13   0   58.69    2.85
   6  13   0    1.05    1.22
   3 -14   0   45.37    3.06
  -3  14   0   42.77    2.71
  -3  14   0   53.78    3.38
   2 -14   0   -1.28    1.10
  -2  14   0    1.90    1.09
  -1  14   0   22.10    2.36
  -1  14   0   25.20    2.19
   0 -14   0    4.12    1.48
   0  14   0    2.98    1.00
   0  14   0    4.34    1.19
  -1 -14   0    6.73    1.45
   1  14   0    7.43    1.24
   1  14   0    5.46    1.22
  -2 -14   0    4.16    1.34
   2  14   0    4.20    1.44
   3  14   0    1.26    1.05
   3  14   0    2.06    0.94
   4  14   0   17.06    2.32
   4  14   0   17.79    2.20
   5  14   0    1.43    1.18
  -1  15   0   -2.40    1.80
  -1  15   0    0.56    1.30
   0  15   0   13.38    2.34
   0  15   0   10.46    1.45
   1  15   0    2.03    1.21
   1  15   0    0.27    1.22
   2  15   0   16.86    2.08
   4  14  -1   13.85    1.85
   3  14  -1    3.14    1.16
   3  14  -1    6.26    1.56
   2  14  -1   10.36    1.74
   1  14  -1    1.29    1.14
   1  14  -1   -0.56    0.99
  -1 -14   1    0.06    1.34
   0  14  -1   23.75    2.27
   0  14  -1   21.57    2.21
   0 -14   1   22.34    2.79
  -1  14  -1   -2.01    1.08
  -1  14  -1   -0.96    1.09
  -2  14  -1   25.06    2.52
  -2  14  -1   34.42    2.53
  -3  14  -1    0.61    1.23
  -3  14  -1    3.60    1.47
   5  13  -1   14.89    2.17
   4  13  -1    8.24    1.45
   3  13  -1   15.22    1.46
   3  13  -1   11.80    1.98
   2  13  -1   37.14    1.94
  -2 -13   1   35.54    2.15
   1  13  -1   -1.36    0.79
   1  13  -1    1.69    0.93
  -1 -13   1    0.82    1.06
   0  13  -1   13.41    1.96
   0  13  -1   15.80    1.86
   0 -13   1   19.61    2.13
  -1  13  -1    0.88    1.07
  -1  13  -1    0.22    0.80
   1 -13   1    2.34    1.23
  -2  13  -1    2.52    1.13
  -2  13  -1    0.24    0.88
  -3  13  -1    6.92    1.42
  -3  13  -1    5.80    1.18
   3 -13   1    9.65    1.61
  -4  13  -1    0.44    1.00
   4 -13   1    1.02    1.22
  -5  13  -1   14.87    2.03
   5 -13   1   23.99    3.29
   7  12  -1   -0.12    1.28
  -7 -12   1    3.79    1.31
   6  12  -1    0.09    1.06
  -6 -12   1   -1.65    0.91
   5  12  -1   15.18    1.94
  -5 -12   1   18.33    1.49
   4  12  -1    0.21    0.96
   3  12  -1   71.16    2.88
   3  12  -1   70.80    2.22
  -3 -12   1   71.89    2.67
   2  12  -1    0.28    0.72
  -2 -12   1    0.09    0.82
   1  12  -1   52.34    2.24
   1  12  -1   57.52    2.54
  -1 -12   1   55.10    2.27
   0  12  -1    0.39    0.81
   0  12  -1   -0.27    0.84
   0 -12   1    0.42    0.88
  -1  12  -1   67.32    2.76
  -1  12  -1   65.25    2.67
   1 -12   1   64.98    2.64
  -2  12  -1   -0.90    0.93
  -2  12  -1   -0.23    0.73
   2 -12   1    0.18    0.86
   2 -12   1    0.34    1.03
  -3  12  -1   30.49    2.19
  -3  12  -1   29.23    2.27
   3 -12   1   34.31    2.42
  -4  12  -1   -0.93    1.04
  -4  12  -1    0.77    0.94
   4 -12   1    1.99    1.22
  -5  12  -1   15.96    2.32
  -5  12  -1   15.59    1.99
   5 -12   1   13.28    2.32
  -6  12  -1   -1.44    1.20
  -6  12  -1    0.99    1.08
   6 -12   1    1.95    1.53
  -8 -11   1    6.00    1.41
   7  11  -1    2.33    1.43
   7  11  -1    4.44    1.22
  -7 -11   1    2.66    1.14
   6  11  -1    5.26    1.16
   6  11  -1    4.78    0.94
  -6 -11   1    6.34    1.02
   5  11  -1    1.41    0.83
   5  11  -1    0.96    1.24
   5  11  -1    0.93    0.88
  -5 -11   1    1.52    0.70
   4  11  -1   24.39    1.15
   4  11  -1   24.74    1.93
   4  11  -1   25.57    2.32
  -4 -11   1   25.08    1.27
   3  11  -1   21.48    1.80
   3  11  -1   20.82    2.03
   3  11  -1   21.10    1.22
  -3 -11   1   21.87    1.35
  -3 -11   1   20.15    2.03
   2  11  -1   16.04    1.33
   2  11  -1   13.37    1.80
  -2 -11   1   14.63    1.76
  -2 -11   1   14.26    1.39
   1  11  -1   17.80    1.51
   1  11  -1   21.03    1.85
   1  11  -1   22.12    1.69
  -1 -11   1   19.54    1.92
  -1 -11   1   18.54    1.47
   0  11  -1    4.49    0.89
   0  11  -1    3.93    0.84
   0  11  -1    3.93    0.90
   0 -11   1    3.79    0.82
  -1  11  -1    1.62    0.84
  -1  11  -1   -0.05    0.76
  -1  11  -1   -0.05    0.68
   1 -11   1    0.40    0.75
  -2  11  -1   18.72    2.00
  -2  11  -1   20.29    1.96
  -2  11  -1   21.51    1.73
   2 -11   1   21.02    1.80
   2 -11   1   21.66    1.85
  -3  11  -1   -0.10    0.81
  -3  11  -1    0.92    0.75
   3 -11   1    0.15    0.99
   3 -11   1    0.91    0.97
  -4  11  -1   46.50    2.44
  -4  11  -1   38.44    2.23
   4 -11   1   41.90    2.49
  -5  11  -1    1.58    0.86
  -5  11  -1   -0.46    1.05
   5 -11   1    1.06    1.06
  -6  11  -1   47.02    2.60
  -6  11  -1   55.97    2.96
   6 -11   1   48.80    2.98
  -7  11  -1   19.83    2.73
  -7  11  -1   14.56    2.28
   7 -11   1   11.40    1.71
   8  10  -1   15.56    2.25
  -8 -10   1   18.41    2.14
   7  10  -1    0.73    0.99
   7  10  -1    0.33    1.73
   7  10  -1   -0.41    0.93
  -7 -10   1    0.44    0.96
   6  10  -1   67.29    3.14
   6  10  -1   68.58    2.32
   6  10  -1   64.29    2.65
  -6 -10   1   64.23    2.35
   5  10  -1   -0.30    0.74
   5  10  -1   -0.43    1.03
   5  10  -1    1.05    0.64
  -5 -10   1    0.96    0.62
   4  10  -1  111.08    3.34
   4  10  -1  110.31    2.57
   4  10  -1  107.89    3.48
  -4 -10   1  106.66    3.34
  -4 -10   1  107.06    2.65
   3  10  -1    1.21    0.80
  -3 -10   1    0.47    0.71
   2  10  -1  110.33    2.86
   2  10  -1  114.89    3.43
  -2 -10   1  117.33    2.83
   1  10  -1    0.27    0.69
   1  10  -1    0.64    0.62
  -1 -10   1    0.62    0.64
  -1 -10   1    0.09    0.67
   0  10  -1   26.42    1.72
   0  10  -1   28.71    1.56
   0 -10   1   26.91    1.50
  -1  10  -1   15.47    1.60
  -1  10  -1   14.24    1.54
  -1  10  -1   14.22    1.34
   1 -10   1   14.61    1.59
   1 -10   1   14.24    1.34
  -2  10  -1   -0.15    0.76
  -2  10  -1    0.22    0.53
  -2  10  -1    0.09    0.68
   2 -10   1    0.47    0.72
   2 -10   1   -0.10    0.67
  -3  10  -1    3.32    0.92
  -3  10  -1    2.74    1.04
  -3  10  -1    2.86    0.78
   3 -10   1    1.83    0.87
   3 -10   1    2.46    0.87
  -4  10  -1    5.74    1.11
  -4  10  -1    2.92    0.99
  -4  10  -1    3.96    0.82
   4 -10   1    2.62    1.06
   4 -10   1    4.77    1.08
  -5  10  -1   11.16    0.98
  -5  10  -1    9.76    1.57
  -5  10  -1   13.53    1.77
   5 -10   1   10.90    1.76
  -6  10  -1   14.59    1.26
  -6  10  -1   17.94    2.19
  -6  10  -1   15.15    1.79
   6 -10   1   14.62    2.08
  -7  10  -1    8.39    1.30
  -7  10  -1   10.09    1.51
  -7  10  -1    9.52    1.54
   7 -10   1   10.55    1.57
  -8  10  -1    9.01    1.28
   9   9  -1    5.15    1.45
  -9  -9   1    4.85    1.31
   8   9  -1    9.78    1.75
   8   9  -1    8.42    1.46
   8   9  -1    9.31    1.32
  -8  -9   1    7.04    1.28
   7   9  -1   17.26    1.83
   7   9  -1   17.56    1.82
   7   9  -1   19.33    2.35
  -7  -9   1   13.62    2.23
   6   9  -1    8.29    1.29
   6   9  -1    8.23    1.34
   6   9  -1   10.72    1.75
  -6  -9   1    8.85    1.02
  -6  -9   1    6.29    1.28
   5   9  -1   27.24    1.37
   5   9  -1   25.17    1.93
   5   9  -1   25.07    1.65
  -5  -9   1   25.20    1.39
  -5  -9   1   25.86    1.81
   4   9  -1    7.91    1.36
   4   9  -1    8.63    1.24
   4   9  -1    8.01    0.84
  -4  -9   1    8.07    1.06
  -4  -9   1    8.43    0.94
   3   9  -1   45.11    1.31
   3   9  -1   44.97    1.93
   3   9  -1   49.08    2.06
  -3  -9   1   47.58    1.98
  -3  -9   1   46.48    1.38
   2   9  -1   17.19    1.08
   2   9  -1   17.84    1.36
   2   9  -1   18.51    1.43
  -2  -9   1   16.47    1.03
  -2  -9   1   18.22    1.41
   1   9  -1   64.14    2.02
   1   9  -1   65.91    2.26
   1   9  -1   66.12    2.32
  -1  -9   1   66.95    1.93
  -1  -9   1   64.08    2.22
   0   9  -1   16.80    1.25
   0   9  -1   16.42    1.31
   0   9  -1   16.90    1.27
  -1   9  -1    6.71    1.12
  -1   9  -1    5.81    0.94
  -1   9  -1    5.55    0.85
   1  -9   1    4.38    0.71
   1  -9   1    5.27    0.95
  -2   9  -1    7.82    1.19
  -2   9  -1    6.41    1.08
  -2   9  -1    6.13    0.89
   2  -9   1    5.08    0.85
   2  -9   1    6.12    0.85
  -3   9  -1  170.19    4.43
  -3   9  -1  176.75    4.77
  -3   9  -1  180.00    4.43
   3  -9   1  178.41    4.38
   3  -9   1  179.69    4.73
  -4   9  -1    4.28    0.77
  -4   9  -1    2.97    0.92
  -4   9  -1    4.38    0.97
   4  -9   1    3.81    0.94
   4  -9   1    4.63    0.95
  -5   9  -1   42.71    2.16
  -5   9  -1   37.45    2.04
  -5   9  -1   39.64    1.42
  -5   9  -1   35.04    2.15
   5  -9   1   40.89    2.34
   5  -9   1   40.30    2.16
  -6   9  -1   -0.67    0.83
  -6   9  -1    2.46    1.19
  -6   9  -1    0.68    0.63
   6  -9   1    1.32    0.76
   6  -9   1    0.77    0.88
  -7   9  -1   46.76    2.69
  -7   9  -1   53.18    2.11
   7  -9   1   52.64    2.26
   7  -9   1   52.59    2.72
  -8   9  -1    5.34    1.48
  -8   9  -1    6.27    1.13
   8  -9   1    3.90    1.29
   8  -9   1    7.35    1.44
   9   8  -1   81.00    3.25
  -9  -8   1   77.97    3.17
   8   8  -1    7.16    1.20
   8   8  -1    7.65    1.30
  -8  -8   1    8.27    1.20
   7   8  -1   49.75    2.12
  -7  -8   1   45.48    2.75
   6   8  -1    0.49    0.72
   6   8  -1   -0.21    0.86
   6   8  -1    0.17    0.62
  -6  -8   1   -1.19    0.69
  -6  -8   1   -0.85    0.58
   5   8  -1   39.57    1.56
   5   8  -1   39.20    1.81
   5   8  -1   38.36    1.97
  -5  -8   1   37.95    1.86
  -5  -8   1   36.92    1.54
   4   8  -1    9.22    0.87
   4   8  -1    8.43    1.28
   4   8  -1    7.64    1.07
  -4  -8   1    8.62    0.91
  -4  -8   1    9.25    1.17
   3   8  -1    0.41    0.34
   3   8  -1    0.33    0.62
   3   8  -1    0.65    0.52
  -3  -8   1    0.64    0.54
  -3  -8   1    0.15    0.37
   2   8  -1   54.44    1.97
   2   8  -1   49.29    1.53
   2   8  -1   50.16    1.26
  -2  -8   1   52.36    1.88
  -2  -8   1   50.04    1.48
   1   8  -1    8.31    0.91
   1   8  -1    8.70    1.07
   1   8  -1    8.50    0.98
  -1  -8   1    7.67    0.79
  -1  -8   1    9.15    1.00
   0   8  -1    4.67    0.65
   0   8  -1    5.46    0.97
   0   8  -1    5.98    0.88
   0  -8   1    5.07    0.81
  -1   8  -1    3.69    0.63
  -1   8  -1    3.82    0.60
  -1   8  -1    3.92    0.64
   1  -8   1    4.41    0.74
   1  -8   1    3.59    1.07
  -2   8  -1    0.97    0.50
  -2   8  -1    1.06    0.46
  -2   8  -1    0.50    0.53
   2  -8   1    0.24    0.49
   2  -8   1    1.48    0.58
  -3   8  -1   23.45    1.40
  -3   8  -1   23.40    1.43
  -3   8  -1   22.00    1.43
   3  -8   1   21.79    1.39
   3  -8   1   22.63    1.49
  -4   8  -1   65.23    2.43
  -4   8  -1   65.74    1.72
  -4   8  -1   66.15    2.39
  -4   8  -1   67.07    2.32
   4  -8   1   65.22    2.38
   4  -8   1   65.96    2.48
  -5   8  -1   14.43    1.46
  -5   8  -1    9.71    1.41
  -5   8  -1   13.13    0.99
   5  -8   1   15.07    1.57
   5  -8   1   12.45    1.04
  -6   8  -1    7.77    1.14
  -6   8  -1    8.76    1.23
  -6   8  -1   11.16    1.65
   6  -8   1    8.34    1.22
   6  -8   1    7.12    0.90
  -7   8  -1   63.49    2.92
  -7   8  -1   63.58    2.27
  -7   8  -1   64.64    2.83
   7  -8   1   65.56    2.81
   7  -8   1   67.69    2.42
  -8   8  -1    5.56    1.26
  -8   8  -1    7.14    1.08
   8  -8   1    7.20    1.39
   8  -8   1    9.75    1.39
  -9   8  -1   26.42    2.53
  -9   8  -1   26.25    2.15
   9  -8   1   26.12    2.57
  10   7  -1   17.82    2.53
 -10  -7   1   26.51    2.34
   9   7  -1   30.24    2.44
  -9  -7   1   32.22    2.19
   8   7  -1   20.98    1.95
  -8  -7   1   23.11    1.88
   7   7  -1   27.90    1.72
   7   7  -1   28.32    1.79
  -7  -7   1   29.05    1.84
  -7  -7   1   29.71    2.00
   6   7  -1   13.34    1.31
   6   7  -1   12.25    1.21
  -6  -7   1   12.79    1.46
  -6  -7   1   11.81    1.24
   5   7  -1   14.43    1.19
   5   7  -1   14.44    1.08
  -5  -7   1   13.73    1.30
  -5  -7   1   13.85    1.08
   4   7  -1    0.07    0.56
   4   7  -1    0.18    0.50
   4   7  -1   -0.25    0.38
  -4  -7   1   -0.73    0.38
  -4  -7   1    1.08    0.51
   3   7  -1   14.71    0.77
   3   7  -1   15.04    1.07
   3   7  -1   16.44    1.19
  -3  -7   1   13.73    0.81
  -3  -7   1   14.85    1.11
   2   7  -1   10.45    0.74
   2   7  -1   10.46    0.57
   2   7  -1   10.76    1.03
  -2  -7   1   11.18    0.95
  -2  -7   1   10.23    0.69
  -2  -7   1    9.52    0.60
   1   7  -1   28.83    1.13
   1   7  -1   28.07    1.27
   1   7  -1   29.19    1.35
  -1  -7   1   27.19    1.28
  -1  -7   1   28.53    1.05
   0   7  -1   28.62    1.26
   0   7  -1   30.86    1.37
   0   7  -1   28.93    1.20
   0  -7   1   29.02    1.30
   0  -7   1   29.84    1.12
   0  -7   1   30.25    1.38
  -1   7  -1   32.70    1.42
  -1   7  -1   34.51    1.36
  -1   7  -1   33.59    1.36
   1  -7   1   33.89    1.46
   1  -7   1   34.80    1.29
  -2   7  -1   27.06    1.31
  -2   7  -1   29.17    1.30
  -2   7  -1   29.91    1.40
   2  -7   1   27.42    1.52
   2  -7   1   28.46    1.39
  -3   7  -1    2.40    0.56
  -3   7  -1    2.47    0.55
  -3   7  -1    1.59    0.55
  -3   7  -1    2.66    0.34
   3  -7   1    1.76    0.53
   3  -7   1    2.60    0.60
  -4   7  -1  122.07    3.27
  -4   7  -1  123.94    3.32
  -4   7  -1  119.68    2.70
   4  -7   1  122.59    2.71
   4  -7   1  125.03    3.31
   4  -7   1  122.28    3.33
  -5   7  -1    3.19    0.53
  -5   7  -1    2.83    0.73
  -5   7  -1    3.18    0.83
   5  -7   1    2.79    0.75
   5  -7   1    2.40    0.70
   5  -7   1    2.82    0.55
  -6   7  -1   31.12    1.45
  -6   7  -1   32.85    1.88
   6  -7   1   33.18    1.51
   6  -7   1   32.83    1.86
  -7   7  -1    0.05    0.67
  -7   7  -1    0.25    0.81
  -7   7  -1    0.53    0.85
   7  -7   1   -0.72    0.74
   7  -7   1    0.40    0.76
  -8   7  -1   57.01    2.35
  -8   7  -1   55.59    2.98
   8  -7   1   59.89    2.69
   8  -7   1   52.96    2.67
  -9   7  -1    9.90    1.40
  -9   7  -1   11.57    1.88
   9  -7   1    9.05    1.43
  10   6  -1   14.53    2.49
 -10  -6   1   18.28    2.18
   9   6  -1    1.33    1.07
  -9  -6   1    0.88    0.92
   8   6  -1   44.84    2.20
   8   6  -1   48.54    2.27
  -8  -6   1   45.21    2.18
   7   6  -1    1.26    0.91
   7   6  -1    0.54    0.71
  -7  -6   1    0.94    0.70
   6   6  -1    6.70    1.03
   6   6  -1    6.39    1.13
  -6  -6   1    7.20    1.09
   5   6  -1   90.45    2.43
   5   6  -1   96.64    2.61
  -5  -6   1   93.01    2.51
   4   6  -1   -0.21    0.40
   4   6  -1    0.21    0.34
  -4  -6   1    0.02    0.40
  -4  -6   1    0.32    0.47
   3   6  -1   38.15    1.16
   3   6  -1   38.76    1.52
   3   6  -1   37.43    1.41
  -3  -6   1   38.58    1.45
  -3  -6   1   36.69    1.20
   2   6  -1   22.36    0.85
   2   6  -1   22.93    1.17
   2   6  -1   21.81    0.77
  -2  -6   1   22.94    0.83
  -2  -6   1   23.61    1.10
  -2  -6   1   23.08    0.80
   1   6  -1  206.75    4.22
   1   6  -1  200.82    4.46
   1   6  -1  216.49    4.58
  -1  -6   1  202.92    3.97
  -1  -6   1  219.22    4.19
  -1  -6   1  211.73    4.47
   0   6  -1  284.80    5.68
   0   6  -1  274.74    5.82
   0   6  -1  287.23    5.92
   0  -6   1  284.80    5.96
   0  -6   1  298.59    5.64
   0  -6   1  287.93    5.85
  -1   6  -1    4.98    0.70
  -1   6  -1    4.12    0.65
  -1   6  -1    4.63    0.68
   1  -6   1    3.87    0.69
   1  -6   1    4.73    0.63
  -2   6  -1  340.51    7.04
  -2   6  -1  341.54    6.49
  -2   6  -1  356.90    7.05
  -2   6  -1  353.71    7.15
   2  -6   1  362.75    7.04
   2  -6   1  355.08    7.19
  -3   6  -1    0.85    0.43
  -3   6  -1    0.66    0.28
  -3   6  -1    0.46    0.39
   3  -6   1    0.52    0.43
   3  -6   1    0.88    0.44
   3  -6   1    0.21    0.25
  -4   6  -1   79.71    2.37
  -4   6  -1   78.62    1.96
  -4   6  -1   80.95    2.43
   4  -6   1   83.76    2.47
   4  -6   1   82.47    1.97
   4  -6   1   81.28    2.43
  -5   6  -1   -0.28    0.53
  -5   6  -1   -0.40    0.53
  -5   6  -1    0.70    0.43
   5  -6   1    0.02    0.58
   5  -6   1    0.24    0.42
   5  -6   1    0.89    0.52
  -6   6  -1   22.57    1.56
  -6   6  -1   23.01    1.25
  -6   6  -1   20.04    1.92
   6  -6   1   21.03    1.53
   6  -6   1   22.12    1.29
  -7   6  -1    0.57    0.64
  -7   6  -1    1.64    0.88
  -7   6  -1   -0.13    0.75
   7  -6   1   -0.37    0.71
   7  -6   1    0.46    0.66
  -8   6  -1    7.50    1.14
  -8   6  -1    8.05    1.28
  -8   6  -1    8.53    1.12
   8  -6   1   10.56    1.24
   8  -6   1    7.86    1.16
  -9   6  -1    1.84    1.86
  -9   6  -1    3.27    1.06
  -9   6  -1    2.55    1.16
   9  -6   1    3.12    1.13
 -10   6  -1    4.21    1.18
 -10   6  -1    3.48    1.29
  10  -6   1    2.84    1.34
  10   5  -1   -1.24    1.16
 -10  -5   1    0.08    1.08
   9   5  -1   26.07    2.57
  -9  -5   1   28.39    2.03
   8   5  -1   29.13    1.84
   8   5  -1   25.51    1.80
  -8  -5   1   24.46    1.74
   7   5  -1    0.14    0.62
   7   5  -1    0.60    0.68
  -7  -5   1   -1.13    0.62
   6   5  -1    5.97    0.80
   6   5  -1    6.63    1.04
  -6  -5   1    5.84    0.80
   5   5  -1    0.85    0.48
   5   5  -1    1.14    0.48
  -5  -5   1    0.69    0.51
   4   5  -1    9.13    0.89
   4   5  -1   10.22    0.76
  -4  -5   1    9.91    0.90
  -4  -5   1    9.07    0.77
   3   5  -1    3.85    0.52
   3   5  -1    2.95    0.48
  -3  -5   1    3.05    0.43
  -3  -5   1    2.98    0.52
   2   5  -1   27.66    0.86
   2   5  -1   26.94    1.09
   2   5  -1   28.78    1.16
  -2  -5   1   27.22    1.08
  -2  -5   1   26.73    0.87
   1   5  -1  139.10    2.73
   1   5  -1  143.60    3.20
   1   5  -1  137.02    2.90
   1   5  -1  141.05    3.14
  -1  -5   1  142.06    3.13
  -1  -5   1  146.51    2.87
  -1  -5   1  134.63    2.75
   0   5  -1    0.45    0.36
   0   5  -1    0.90    0.33
   0   5  -1    0.72    0.29
   0  -5   1    0.67    0.36
   0  -5   1    0.50    0.27
   0  -5   1    0.53    0.26
  -1   5  -1  215.24    4.53
  -1   5  -1  217.28    4.41
  -1   5  -1  204.95    4.43
   1  -5   1  220.20    4.38
   1  -5   1  218.77    4.57
  -2   5  -1   33.50    1.24
  -2   5  -1   31.60    1.19
  -2   5  -1   33.13    1.23
  -2   5  -1   32.98    0.86
   2  -5   1   34.61    1.21
   2  -5   1   33.50    1.27
  -3   5  -1   51.72    1.64
  -3   5  -1   47.94    1.57
  -3   5  -1   49.01    1.25
   3  -5   1   49.00    1.26
   3  -5   1   48.35    1.61
   3  -5   1   48.80    1.59
  -4   5  -1   21.26    0.90
  -4   5  -1   19.44    1.15
  -4   5  -1   21.13    1.28
   4  -5   1   21.66    1.21
   4  -5   1   21.49    0.89
   4  -5   1   21.17    1.15
  -5   5  -1   58.06    1.71
  -5   5  -1   57.79    2.03
  -5   5  -1   58.48    1.97
   5  -5   1   59.92    2.07
   5  -5   1   58.24    1.97
   5  -5   1   58.28    1.70
  -6   5  -1    2.32    0.66
  -6   5  -1    2.54    0.68
  -6   5  -1    3.25    0.60
   6  -5   1    2.56    0.62
   6  -5   1    1.99    0.66
  -7   5  -1   34.10    1.88
  -7   5  -1   33.75    1.65
  -7   5  -1   37.67    1.95
   7  -5   1   33.52    1.79
   7  -5   1   35.80    1.67
  -8   5  -1    1.49    0.84
  -8   5  -1    0.86    0.85
  -8   5  -1    1.03    0.95
   8  -5   1    0.30    0.86
   8  -5   1    1.04    0.83
  -9   5  -1   61.58    2.59
  -9   5  -1   62.19    2.82
  -9   5  -1   59.62    2.88
   9  -5   1   61.21    2.64
   9  -5   1   66.84    3.16
 -10   5  -1    3.33    1.20
 -10   5  -1    3.94    1.10
  10  -5   1    6.12    1.29
  11   4  -1    7.00    1.55
 -11  -4   1    1.78    1.53
  10   4  -1   14.52    2.21
 -10  -4   1   11.81    1.44
 -10  -4   1   13.64    1.59
 -10  -4   1   18.30    1.91
 -10  -4   1   14.22    1.96
   9   4  -1   23.57    2.01
  -9  -4   1   25.05    1.85
  -9  -4   1   25.09    1.62
  -9  -4   1   26.16    1.88
  -9  -4   1   19.98    1.47
   8   4  -1   10.75    1.53
   8   4  -1   10.74    1.47
  -8  -4   1   10.75    1.09
  -8  -4   1   10.71    1.35
  -8  -4   1    9.73    1.42
  -8  -4   1   10.03    1.04
   7   4  -1   15.17    1.30
   7   4  -1   16.07    1.38
  -7  -4   1   13.79    1.36
  -7  -4   1   14.23    1.23
  -7  -4   1   13.05    0.92
   6   4  -1   13.10    1.15
   6   4  -1   11.99    1.06
  -6  -4   1   11.93    1.04
  -6  -4   1   11.57    1.10
   5   4  -1    3.43    0.68
   5   4  -1    3.59    0.58
  -5  -4   1    3.78    0.54
  -5  -4   1    3.74    0.58
   4   4  -1   16.63    0.86
   4   4  -1   16.88    0.92
  -4  -4   1   16.23    0.88
   3   4  -1  162.39    3.53
   3   4  -1  165.96    3.41
  -3  -4   1  164.46    3.42
   2   4  -1    7.44    0.64
   2   4  -1    7.55    0.51
  -2  -4   1    6.81    0.52
  -2  -4   1    7.95    0.65
   1   4  -1  397.03    7.53
   1   4  -1  375.00    7.44
   1   4  -1  380.66    7.21
   1   4  -1  384.24    7.15
  -1  -4   1  404.95    7.19
  -1  -4   1  393.01    7.45
  -1  -4   1  390.81    7.18
   0   4  -1   40.55    1.11
   0   4  -1   41.26    1.26
   0  -4   1   41.24    1.27
   0  -4   1   41.93    1.09
   0  -4   1   40.45    1.21
  -1   4  -1  756.41   13.82
  -1   4  -1  756.84   13.94
  -1   4  -1  748.57   13.51
  -1   4  -1  715.36   13.85
   1  -4   1  778.44   13.81
   1  -4   1  746.89   13.94
  -2   4  -1   33.94    1.17
  -2   4  -1   34.18    1.17
  -2   4  -1   34.33    0.89
   2  -4   1   33.79    1.14
   2  -4   1   35.71    0.90
  -3   4  -1   46.86    1.49
  -3   4  -1   49.30    1.26
   3  -4   1   51.04    1.27
   3  -4   1   49.39    1.53
   3  -4   1   48.97    1.52
  -4   4  -1   24.95    1.11
  -4   4  -1   25.21    1.18
  -4   4  -1   22.96    0.92
   4  -4   1   23.79    1.09
   4  -4   1   25.19    0.93
   4  -4   1   23.35    1.15
  -5   4  -1   27.69    1.15
  -5   4  -1   28.84    1.30
  -5   4  -1   26.77    1.33
   5  -4   1   27.94    1.13
   5  -4   1   25.86    1.25
  -6   4  -1   20.58    1.16
  -6   4  -1   21.71    1.37
  -6   4  -1   20.73    1.39
   6  -4   1   21.47    1.18
   6  -4   1   20.71    1.30
  -7   4  -1    7.93    1.21
  -7   4  -1    7.36    1.12
  -7   4  -1    5.51    0.93
   7  -4   1    7.34    0.89
   7  -4   1    5.94    0.86
  -8   4  -1   48.21    3.01
  -8   4  -1   56.13    2.41
  -8   4  -1   54.18    2.36
   8  -4   1   55.49    2.26
   8  -4   1   56.94    2.27
  -9   4  -1   -0.17    0.84
  -9   4  -1   -1.16    0.68
  -9   4  -1   -0.10    0.97
   9  -4   1   -0.22    0.95
   9  -4   1   -0.77    1.45
 -10   4  -1   27.48    2.23
 -10   4  -1   26.61    2.32
  10  -4   1   25.04    2.22
 -11   4  -1    2.15    1.33
 -11   4  -1    5.05    1.36
  11  -4   1    3.31    1.39
  11   3  -1    2.59    1.28
 -11  -3   1    1.07    1.14
 -11  -3   1   -0.93    2.08
  10   3  -1    2.36    1.15
 -10  -3   1    3.74    1.10
 -10  -3   1    1.79    1.11
 -10  -3   1    2.20    0.90
 -10  -3   1    2.18    1.02
   9   3  -1    3.44    1.04
  -9  -3   1    4.16    0.92
  -9  -3   1    4.54    0.92
  -9  -3   1    3.40    0.80
  -9  -3   1    2.99    0.90
   8   3  -1   55.67    2.25
   8   3  -1   57.30    2.32
  -8  -3   1   58.33    2.29
  -8  -3   1   57.73    1.91
  -8  -3   1   58.14    2.08
  -8  -3   1   58.27    2.00
   7   3  -1    5.95    0.81
   7   3  -1    4.20    0.78
  -7  -3   1    6.15    0.98
  -7  -3   1    4.06    0.77
  -7  -3   1    3.96    0.62
  -7  -3   1    4.99    0.60
   6   3  -1   50.53    1.79
   6   3  -1   50.70    1.75
  -6  -3   1   49.33    1.48
  -6  -3   1   51.14    1.81
  -6  -3   1   48.70    1.64
  -6  -3   1   48.27    1.43
   5   3  -1   20.57    1.06
  -5  -3   1   19.65    0.81
  -5  -3   1   19.35    1.06
  -5  -3   1   19.67    0.97
  -5  -3   1   19.95    0.79
   4   3  -1  247.52    5.08
   4   3  -1  253.11    5.07
  -4  -3   1  250.32    5.09
  -4  -3   1  250.03    5.06
   3   3  -1    1.00    0.34
   3   3  -1    0.58    0.28
  -3  -3   1    0.19    0.29
  -3  -3   1    0.52    0.29
   2   3  -1  204.80    4.21
   2   3  -1  208.96    4.09
  -2  -3   1  211.44    4.24
  -2  -3   1  219.07    4.13
   1   3  -1   60.65    1.29
   1   3  -1   59.34    1.47
  -1  -3   1   57.03    1.44
  -1  -3   1   60.68    1.31
   0   3  -1  183.22    3.69
   0   3  -1  183.36    3.45
   0   3  -1  192.78    3.59
   0   3  -1  183.76    3.74
   0  -3   1  180.54    3.68
   0  -3   1  181.31    3.45
   0  -3   1  194.54    3.58
   0  -3   1  188.53    3.77
  -1   3  -1    0.08    0.13
  -1   3  -1    0.39    0.20
  -1   3  -1    0.14    0.19
  -1   3  -1    0.14    0.18
   1  -3   1   -0.05    0.19
   1  -3   1    0.05    0.18
  -2   3  -1   70.05    1.70
  -2   3  -1   67.59    1.69
  -2   3  -1   68.30    1.48
   2  -3   1   67.02    1.70
   2  -3   1   68.48    1.47
   2  -3   1   66.83    1.68
  -3   3  -1   13.52    0.79
  -3   3  -1   14.61    0.64
  -3   3  -1   11.16    0.74
   3  -3   1   13.71    0.63
   3  -3   1   13.07    0.77
   3  -3   1   13.57    0.74
  -4   3  -1   18.93    0.95
  -4   3  -1   20.53    1.00
  -4   3  -1   19.47    0.83
   4  -3   1   20.56    0.85
   4  -3   1   19.96    0.94
  -5   3  -1   38.91    1.34
  -5   3  -1   39.47    1.45
  -5   3  -1   38.58    1.48
   5  -3   1   37.64    1.39
   5  -3   1   40.16    1.34
  -6   3  -1    5.32    0.74
  -6   3  -1    4.62    0.65
  -6   3  -1    4.73    0.70
   6  -3   1    6.16    0.87
   6  -3   1    5.20    0.69
  -7   3  -1   18.31    1.47
  -7   3  -1   17.08    1.24
  -7   3  -1   16.90    1.36
   7  -3   1   15.54    1.24
   7  -3   1   15.35    1.23
  -8   3  -1   48.88    2.09
  -8   3  -1   47.78    2.19
   8  -3   1   48.23    1.99
   8  -3   1   46.01    2.02
  -9   3  -1   -0.90    0.77
  -9   3  -1    1.28    0.87
  -9   3  -1    1.20    0.93
   9  -3   1    2.45    0.84
   9  -3   1    0.83    0.94
 -10   3  -1   51.33    2.59
 -10   3  -1   45.17    2.48
 -10   3  -1   42.18    2.63
  10  -3   1   47.06    2.42
 -11   3  -1    1.42    1.13
 -11   3  -1   -0.67    1.18
  11  -3   1    2.95    1.36
  11   2  -1    3.67    1.27
 -11  -2   1    2.39    1.25
 -11  -2   1    4.11    1.33
  10   2  -1    5.66    1.18
 -10  -2   1    3.40    1.10
 -10  -2   1    2.63    1.18
 -10  -2   1    6.22    1.10
 -10  -2   1    5.32    1.15
   9   2  -1   12.96    1.72
  -9  -2   1   13.62    1.59
  -9  -2   1   12.91    1.55
  -9  -2   1   14.94    1.71
  -9  -2   1   15.20    1.45
   8   2  -1   45.18    2.09
   8   2  -1   46.56    2.05
  -8  -2   1   48.70    2.10
  -8  -2   1   47.98    1.91
  -8  -2   1   47.09    1.85
  -8  -2   1   43.86    1.77
   7   2  -1    1.83    0.66
   7   2  -1    2.18    0.71
  -7  -2   1    1.42    0.67
  -7  -2   1    2.24    0.56
  -7  -2   1    2.00    0.53
  -7  -2   1    1.57    0.58
   6   2  -1   68.09    2.06
   6   2  -1   66.58    2.04
  -6  -2   1   68.55    1.86
  -6  -2   1   65.04    2.06
  -6  -2   1   66.95    1.79
  -6  -2   1   65.59    1.93
   5   2  -1    0.43    0.42
   5   2  -1    0.14    0.57
  -5  -2   1    0.48    0.39
  -5  -2   1   -0.01    0.24
  -5  -2   1    0.05    0.31
  -5  -2   1    0.23    0.30
   4   2  -1  100.83    2.38
   4   2  -1  100.54    2.37
  -4  -2   1   97.25    2.13
  -4  -2   1  100.02    2.39
  -4  -2   1  101.66    2.16
  -4  -2   1  100.60    2.33
   3   2  -1   32.22    1.07
   3   2  -1   32.84    1.05
  -3  -2   1   32.89    1.04
  -3  -2   1   32.37    1.06
   2   2  -1   28.59    0.83
   2   2  -1   27.08    0.87
  -2  -2   1   26.64    0.85
  -2  -2   1   28.42    0.85
   1   2  -1   18.66    0.66
   1   2  -1   20.40    0.58
  -1  -2   1   18.96    0.63
  -1  -2   1   20.83    0.61
   0   2  -1  466.87    8.64
   0   2  -1  461.47    8.44
   0   2  -1  463.20    8.58
   0   2  -1  490.82    8.49
   0  -2   1  455.19    8.44
   0  -2   1  472.76    8.55
   0  -2   1  461.21    8.57
  -1   2  -1  442.17    7.88
  -1   2  -1  438.60    8.03
  -1   2  -1  436.06    8.07
   1  -2   1  435.54    8.02
   1  -2   1  423.24    8.07
  -2   2  -1  400.31    7.43
  -2   2  -1  402.55    7.56
  -2   2  -1  398.51    7.60
   2  -2   1  408.30    7.57
   2  -2   1  417.49    7.44
   2  -2   1  396.26    7.59
  -3   2  -1   33.42    0.96
  -3   2  -1   30.30    1.02
  -3   2  -1   30.91    1.08
   3  -2   1   33.54    0.96
   3  -2   1   31.21    1.02
  -4   2  -1    1.43    0.40
  -4   2  -1    0.56    0.38
  -4   2  -1    1.08    0.32
   4  -2   1    0.74    0.29
   4  -2   1    0.36    0.28
  -5   2  -1  138.40    3.12
  -5   2  -1  132.22    3.07
  -5   2  -1  138.23    3.22
   5  -2   1  135.31    3.09
   5  -2   1  138.46    3.09
  -6   2  -1    0.27    0.43
  -6   2  -1   -0.02    0.48
  -6   2  -1    0.10    0.38
   6  -2   1    0.09    0.41
   6  -2   1   -0.18    0.37
  -7   2  -1   47.42    1.86
  -7   2  -1   46.92    1.79
  -7   2  -1   42.30    2.09
   7  -2   1   49.64    1.80
   7  -2   1   47.51    1.72
  -8   2  -1    5.08    1.35
  -8   2  -1    6.23    0.89
  -8   2  -1    5.78    0.88
   8  -2   1    7.60    1.15
   8  -2   1    7.88    1.27
  -9   2  -1   57.54    2.37
  -9   2  -1   58.72    2.36
  -9   2  -1   58.93    2.45
  -9   2  -1   58.47    2.65
   9  -2   1   54.85    2.48
   9  -2   1   56.97    2.25
 -10   2  -1   20.04    1.99
 -10   2  -1   18.45    2.12
 -10   2  -1   20.96    1.95
  10  -2   1   18.57    2.33
 -11   2  -1   17.75    2.15
 -11   2  -1   20.02    2.21
  11  -2   1   18.85    2.26
 -11  -1   1    7.98    1.44
 -11  -1   1    5.37    1.30
  10   1  -1    1.00    0.98
 -10  -1   1   -0.09    1.01
 -10  -1   1    2.03    1.69
 -10  -1   1    1.96    1.17
 -10  -1   1   -1.20    0.94
   9   1  -1   50.16    2.28
  -9  -1   1   52.70    2.20
  -9  -1   1   51.40    2.12
  -9  -1   1   49.43    2.26
  -9  -1   1   47.54    2.31
   8   1  -1   -0.29    0.71
   8   1  -1    1.44    0.79
  -8  -1   1    0.17    0.58
  -8  -1   1    0.55    0.59
  -8  -1   1    0.36    0.71
  -8  -1   1    0.42    0.67
   7   1  -1  242.21    5.44
   7   1  -1  238.59    5.35
  -7  -1   1  250.54    5.29
  -7  -1   1  253.07    5.27
  -7  -1   1  248.35    5.20
  -7  -1   1  242.76    5.47
   6   1  -1   31.40    1.42
   6   1  -1   30.22    1.34
  -6  -1   1   28.98    1.25
  -6  -1   1   31.79    1.23
  -6  -1   1   30.45    1.20
  -6  -1   1   28.64    1.38
   5   1  -1  130.44    3.00
   5   1  -1  121.75    3.22
  -5  -1   1  132.03    2.88
  -5  -1   1  128.60    2.82
  -5  -1   1  128.23    2.93
  -5  -1   1  133.18    3.08
   4   1  -1    2.24    0.42
   4   1  -1    1.64    0.35
  -4  -1   1    1.03    0.36
  -4  -1   1    1.12    0.27
  -4  -1   1    1.94    0.35
   3   1  -1  128.06    2.69
   3   1  -1  124.26    2.68
  -3  -1   1  124.53    2.70
  -3  -1   1  122.59    2.51
  -3  -1   1  125.17    2.65
   2   1  -1    4.38    0.41
   2   1  -1    4.51    0.40
  -2  -1   1    4.05    0.40
  -2  -1   1    4.21    0.38
   1   1  -1   30.68    0.80
   1   1  -1   25.73    0.73
  -1  -1   1   28.62    0.75
  -1  -1   1   28.15    0.75
   0   1  -1    6.87    0.29
   0   1  -1    8.12    0.43
  -1   1  -1  114.00    2.14
  -1   1  -1  106.38    2.25
   1  -1   1  117.49    2.15
  -2   1  -1   82.02    1.74
  -2   1  -1   83.01    1.75
   2  -1   1   85.76    1.77
   2  -1   1   83.97    1.74
  -3   1  -1   44.95    1.28
  -3   1  -1   48.08    1.22
  -3   1  -1   47.68    1.22
   3  -1   1   47.38    1.20
  -4   1  -1    2.05    0.43
  -4   1  -1    1.09    0.32
   4  -1   1    0.87    0.31
  -5   1  -1   39.11    1.33
  -5   1  -1   38.97    1.38
  -5   1  -1   40.77    1.35
   5  -1   1   39.73    1.33
   5  -1   1   39.78    1.27
  -6   1  -1   17.65    1.07
  -6   1  -1   18.80    1.04
  -6   1  -1   16.51    1.06
   6  -1   1   16.09    0.95
   6  -1   1   16.99    1.02
  -7   1  -1   59.62    1.99
  -7   1  -1   58.95    1.99
  -7   1  -1   60.30    1.92
   7  -1   1   56.34    1.94
   7  -1   1   55.90    1.83
  -8   1  -1    1.32    0.67
  -8   1  -1    2.08    0.86
  -8   1  -1    1.40    0.70
  -8   1  -1    1.80    0.70
   8  -1   1    2.39    0.66
   8  -1   1    2.48    0.78
  -9   1  -1   51.65    2.22
  -9   1  -1   51.38    2.12
  -9   1  -1   49.94    2.24
  -9   1  -1   54.53    2.39
   9  -1   1   45.69    2.30
   9  -1   1   51.16    2.07
 -10   1  -1   -1.87    0.87
 -10   1  -1    1.18    1.23
 -10   1  -1   -0.54    0.90
 -10   1  -1    0.74    0.95
  10  -1   1   -0.56    0.85
 -11   1  -1   36.14    2.53
 -11   1  -1   34.32    3.30
 -11   1  -1   36.80    2.46
  11  -1   1   35.43    2.31
  11   0  -1    5.99    1.32
 -11   0   1    7.28    1.38
 -11   0   1    5.25    1.35
 -10   0   1    3.63    1.07
 -10   0   1    1.10    1.10
 -10   0   1    2.20    1.04
 -10   0   1    1.70    1.27
   9   0  -1   15.90    1.64
  -9   0   1   17.51    1.59
  -9   0   1   16.31    1.70
  -9   0   1   16.27    1.76
  -9   0   1   13.79    1.67
   8   0  -1   45.26    1.95
   8   0  -1   45.83    2.30
  -8   0   1   44.50    1.88
  -8   0   1   45.44    2.01
  -8   0   1   48.52    1.96
  -8   0   1   44.79    1.83
   7   0  -1   11.15    1.26
   7   0  -1   12.65    1.22
  -7   0   1   12.12    1.10
  -7   0   1   11.05    1.16
  -7   0   1   14.79    1.29
   6   0  -1   16.22    1.19
   6   0  -1   17.82    1.12
  -6   0   1   17.45    1.05
  -6   0   1   16.86    1.13
  -6   0   1   15.15    0.97
   5   0  -1  100.68    2.50
   5   0  -1  100.66    2.54
  -5   0   1   99.10    2.43
  -5   0   1   96.82    2.49
  -5   0   1   98.51    2.36
   4   0  -1   45.85    1.37
   4   0  -1   45.21    1.41
  -4   0   1   45.06    1.35
  -4   0   1   43.13    1.26
  -4   0   1   44.30    1.39
   3   0  -1   54.66    1.41
   3   0  -1   55.70    1.47
  -3   0   1   52.40    1.32
  -3   0   1   54.74    1.44
  -3   0   1   53.91    1.40
   2   0  -1   39.43    1.03
   2   0  -1   40.38    0.95
   2   0  -1   41.13    1.03
  -2   0   1   38.03    0.94
  -2   0   1   40.51    1.04
  -2   0   1   39.17    1.01
  -2   0  -1  415.09    7.52
   2   0   1  406.10    7.60
   2   0   1  419.95    7.52
  -3   0  -1  285.45    5.57
  -3   0  -1  286.91    5.48
   3   0   1  296.92    5.58
   3   0   1  300.47    5.49
  -4   0  -1   37.06    1.19
  -4   0  -1   37.79    1.19
  -4   0  -1   39.83    1.14
   4   0   1   38.50    1.17
   4   0   1   36.08    1.12
  -5   0  -1    2.16    0.46
  -5   0  -1    2.13    0.40
   5   0   1    1.79    0.42
   5   0   1    1.62    0.38
  -6   0  -1    9.08    0.89
  -6   0  -1    9.54    0.89
  -6   0  -1    8.93    0.82
  -6   0  -1    9.36    0.80
   6   0   1    9.14    0.86
   6   0   1    8.38    0.79
  -7   0  -1   26.45    1.26
  -7   0  -1   25.70    1.32
  -7   0  -1   27.93    1.40
  -7   0  -1   26.68    1.41
   7   0   1   25.05    1.23
   7   0   1   26.92    1.36
  -8   0  -1   12.74    1.22
  -8   0  -1    7.97    1.33
  -8   0  -1   10.00    1.30
  -8   0  -1    9.82    1.46
   8   0   1    8.49    1.09
   8   0   1   11.78    1.31
  -9   0  -1   11.96    1.46
  -9   0  -1   11.18    1.35
  -9   0  -1   11.21    1.60
  -9   0  -1   13.71    1.52
   9   0   1    9.01    1.42
   9   0   1   10.51    1.68
 -10   0  -1   31.80    1.95
 -10   0  -1   31.32    2.11
 -10   0  -1   29.06    2.09
 -10   0  -1   31.53    2.42
  10   0   1   33.25    1.96
 -11   0  -1   15.73    2.14
 -11   0  -1   15.21    2.50
 -11   0  -1   20.56    2.13
  11   0   1   17.82    2.46
  11  -1  -1    3.00    1.29
 -11   1   1    0.86    1.19
 -11   1   1   -0.14    1.23
  10  -1  -1   40.99    2.23
 -10   1   1   38.09    2.38
 -10   1   1   36.62    2.52
 -10   1   1   38.20    2.33
 -10   1   1   33.95    2.73
   9  -1  -1    0.74    0.82
  -9   1   1    1.00    0.91
  -9   1   1    1.33    0.89
  -9   1   1    0.77    0.81
   8  -1  -1   65.59    2.39
   8  -1  -1   63.30    2.28
  -8   1   1   64.95    2.39
  -8   1   1   66.31    2.34
  -8   1   1   67.69    2.30
   7  -1  -1    7.34    1.14
   7  -1  -1    7.94    1.12
  -7   1   1    7.17    1.16
  -7   1   1    9.74    1.07
  -7   1   1    9.70    1.17
   6  -1  -1  119.43    3.02
   6  -1  -1  120.79    3.02
  -6   1   1  119.73    2.95
  -6   1   1  123.57    3.01
  -6   1   1  120.66    3.10
   5  -1  -1   47.25    1.55
   5  -1  -1   44.90    1.55
  -5   1   1   48.05    1.54
  -5   1   1   45.75    1.54
  -5   1   1   46.77    1.48
   4  -1  -1   13.67    0.78
   4  -1  -1   11.83    0.88
  -4   1   1   14.29    0.86
  -4   1   1   13.57    0.76
  -4   1   1   13.44    0.80
   3  -1  -1   12.21    0.64
   3  -1  -1   12.67    0.83
  -3   1   1   12.22    0.65
  -3   1   1   12.13    0.69
  -3   1   1   13.46    0.76
   2  -1  -1  128.18    2.62
   2  -1  -1  133.85    2.73
   2  -1  -1  130.29    2.62
  -2   1   1  136.65    2.67
  -2   1   1  124.01    2.61
  -2   1   1  124.14    2.60
   1  -1  -1   19.31    0.63
   1  -1  -1   14.56    0.47
  -1   1   1   16.37    0.57
  -2  -1  -1  104.41    2.10
  -2  -1  -1  101.75    1.95
  -2  -1  -1  102.21    2.07
   2   1   1  104.97    2.07
   2   1   1  100.46    1.95
   2   1   1  101.28    2.10
  -3  -1  -1   33.18    0.96
  -3  -1  -1   32.12    0.82
  -3  -1  -1   32.68    0.95
   3   1   1   32.82    0.94
   3   1   1   33.39    0.87
  -4  -1  -1  231.09    4.62
  -4  -1  -1  233.70    4.62
  -4  -1  -1  221.84    4.42
   4   1   1  230.26    4.61
   4   1   1  233.26    4.48
  -5  -1  -1   11.41    0.78
  -5  -1  -1   11.39    0.79
  -5  -1  -1   10.79    0.65
  -5  -1  -1   11.38    0.75
   5   1   1   10.82    0.78
   5   1   1   11.42    0.76
  -6  -1  -1   84.51    2.24
  -6  -1  -1   81.91    2.02
  -6  -1  -1   81.66    2.17
  -6  -1  -1   80.33    2.22
   6   1   1   80.76    2.21
   6   1   1   79.52    2.06
  -7  -1  -1    4.53    0.71
  -7  -1  -1    4.49    0.64
  -7  -1  -1    5.11    0.78
  -7  -1  -1    4.01    0.66
   7   1   1    3.52    0.64
   7   1   1    4.72    0.63
  -8  -1  -1   88.92    2.49
  -8  -1  -1   91.30    2.70
  -8  -1  -1   87.55    3.19
  -8  -1  -1   90.85    2.64
   8   1   1   89.43    2.69
   8   1   1   84.82    2.43
  -9  -1  -1   16.55    1.58
  -9  -1  -1   17.68    1.58
  -9  -1  -1   12.93    1.65
  -9  -1  -1   12.81    1.33
   9   1   1   16.36    1.68
   9   1   1   16.87    1.37
 -10  -1  -1   34.68    2.03
 -10  -1  -1   31.82    2.19
 -10  -1  -1   33.50    2.33
 -10  -1  -1   31.13    1.83
  10   1   1   34.88    1.87
 -11  -1  -1    1.58    1.15
 -11  -1  -1    2.10    1.06
 -11  -1  -1    4.37    1.91
  11   1   1    3.05    1.15
  11  -2  -1    5.72    1.35
 -11   2   1    3.83    1.37
 -11   2   1    4.38    1.35
 -10   2   1    6.96    1.39
 -10   2   1    6.59    1.25
 -10   2   1    7.50    1.28
  -9   2   1   27.60    1.92
  -9   2   1   26.53    2.05
  -9   2   1   25.35    1.89
   8  -2  -1    3.29    0.78
   8  -2  -1    3.87    0.86
  -8   2   1    3.04    0.93
  -8   2   1    3.86    0.86
  -8   2   1    2.22    0.76
   7  -2  -1   92.26    2.67
   7  -2  -1   88.91    2.65
  -7   2   1   94.11    2.71
  -7   2   1   89.07    2.67
  -7   2   1   87.92    2.63
   6  -2  -1   15.98    1.16
   6  -2  -1   16.77    1.11
  -6   2   1   18.32    1.15
  -6   2   1   17.63    1.28
  -6   2   1   18.01    1.15
   5  -2  -1   42.95    1.51
   5  -2  -1   43.08    1.47
  -5   2   1   43.83    1.50
  -5   2   1   42.22    1.48
  -5   2   1   46.22    1.56
   4  -2  -1   81.58    2.07
   4  -2  -1   77.13    1.97
  -4   2   1   83.63    2.12
  -4   2   1   78.03    2.01
  -4   2   1   78.91    2.04
   3  -2  -1   29.37    0.96
   3  -2  -1   27.28    1.06
   3  -2  -1   27.69    1.00
  -3   2   1   30.47    1.15
  -3   2   1   28.33    0.99
  -3   2   1   28.06    1.00
   2  -2  -1   17.66    0.72
   2  -2  -1   18.76    0.64
   2  -2  -1   17.56    0.69
  -2   2   1   20.42    0.76
  -2   2   1   18.16    0.71
  -2   2   1   17.52    0.64
   1  -2  -1  125.88    2.59
   1  -2  -1  131.46    2.61
   1  -2  -1  130.99    2.49
  -1   2   1  129.33    2.61
  -1   2   1  129.42    2.61
   0  -2  -1   53.04    1.21
   0  -2  -1   46.01    0.97
   0   2   1   47.77    1.08
   0   2   1   50.01    0.97
   0   2   1   51.28    1.16
  -1  -2  -1   60.46    1.17
  -1  -2  -1   56.63    1.23
  -1  -2  -1   56.34    1.26
   1   2   1   59.40    1.22
  -2  -2  -1    0.58    0.17
  -2  -2  -1    0.52    0.17
   2   2   1    0.58    0.17
   2   2   1    0.36    0.15
   2   2   1    0.62    0.14
  -3  -2  -1   81.18    1.71
  -3  -2  -1   83.11    1.84
  -3  -2  -1   81.46    1.81
   3   2   1   83.04    1.73
   3   2   1   79.06    1.81
   3   2   1   82.67    1.83
  -4  -2  -1  210.65    4.25
  -4  -2  -1  216.81    4.32
  -4  -2  -1  211.19    4.13
   4   2   1  207.17    4.14
   4   2   1  215.94    4.30
  -5  -2  -1    8.29    0.70
  -5  -2  -1   10.44    0.78
  -5  -2  -1    8.18    0.59
   5   2   1    9.56    0.71
   5   2   1    8.73    0.72
  -6  -2  -1    4.74    0.65
  -6  -2  -1    4.00    0.55
  -6  -2  -1    4.48    0.73
  -6  -2  -1    5.91    0.61
   6   2   1    5.69    0.78
   6   2   1    6.74    0.79
  -7  -2  -1   11.57    1.26
  -7  -2  -1   12.87    1.01
  -7  -2  -1   13.28    1.12
  -7  -2  -1   12.28    0.86
   7   2   1   12.46    1.10
   7   2   1   13.25    1.10
  -8  -2  -1    0.64    0.51
  -8  -2  -1   -0.12    0.79
  -8  -2  -1    0.01    0.59
  -8  -2  -1    0.19    0.57
   8   2   1   -0.35    0.53
   8   2   1    0.65    0.64
  -9  -2  -1   17.76    1.60
  -9  -2  -1   20.77    1.69
  -9  -2  -1   17.50    1.53
  -9  -2  -1   19.84    1.40
   9   2   1   19.85    1.46
   9   2   1   22.77    1.75
 -10  -2  -1   -1.00    1.40
 -10  -2  -1    0.42    0.78
 -10  -2  -1   -0.06    1.00
 -10  -2  -1   -0.48    0.85
  10   2   1    1.09    0.75
 -11  -2  -1   27.82    2.28
 -11  -2  -1   26.62    2.24
 -11  -2  -1   21.56    2.79
  11   2   1   35.31    2.59
  10  -3  -1   -0.70    0.94
 -10   3   1   -0.52    1.65
 -10   3   1   -0.91    1.06
 -10   3   1   -0.80    1.05
   9  -3  -1   31.95    2.00
  -9   3   1   28.06    2.00
  -9   3   1   30.84    2.03
  -9   3   1   26.78    2.25
   8  -3  -1    3.14    0.96
   8  -3  -1    2.47    0.83
  -8   3   1    3.84    0.96
  -8   3   1    1.92    0.77
   7  -3  -1    0.54    0.59
   7  -3  -1    1.66    0.62
  -7   3   1    0.36    0.70
  -7   3   1    0.94    0.63
  -7   3   1    0.56    0.59
   6  -3  -1    2.51    0.63
   6  -3  -1    3.69    0.63
  -6   3   1    3.45    0.71
  -6   3   1    2.91    0.58
  -6   3   1    3.81    0.64
   5  -3  -1   34.32    1.38
   5  -3  -1   33.81    1.32
  -5   3   1   36.00    1.62
  -5   3   1   37.09    1.44
  -5   3   1   35.13    1.36
   4  -3  -1   42.29    1.29
   4  -3  -1   41.88    1.41
   4  -3  -1   40.00    1.40
  -4   3   1   43.05    1.43
  -4   3   1   41.28    1.49
  -4   3   1   38.82    1.31
   3  -3  -1   11.34    0.73
   3  -3  -1   10.37    0.64
   3  -3  -1    9.14    0.71
  -3   3   1   10.79    0.87
  -3   3   1   10.08    0.74
  -3   3   1   10.47    0.66
   2  -3  -1    3.82    0.51
   2  -3  -1    4.39    0.40
   2  -3  -1    4.59    0.52
  -2   3   1    4.51    0.41
  -2   3   1    3.72    0.56
  -2   3   1    4.40    0.51
   1  -3  -1    8.36    0.50
   1  -3  -1    9.33    0.36
   1  -3  -1    9.06    0.52
  -1   3   1    8.87    0.50
  -1   3   1    9.88    0.56
   0  -3  -1    3.34    0.31
   0  -3  -1    3.61    0.36
   0  -3  -1    3.83    0.36
   0   3   1    3.46    0.34
   0   3   1    3.39    0.34
   0   3   1    3.75    0.41
  -1  -3  -1  106.64    2.16
  -1  -3  -1  108.79    2.00
  -1  -3  -1  103.88    2.18
  -1  -3  -1  105.25    2.18
   1   3   1  106.56    2.17
   1   3   1  104.57    2.16
   1   3   1  105.83    2.00
   1   3   1  101.29    2.18
  -2  -3  -1  151.46    3.02
  -2  -3  -1  157.83    2.99
   2   3   1  154.18    2.97
   2   3   1  147.18    3.01
   2   3   1  155.33    3.04
  -3  -3  -1  745.76   13.41
  -3  -3  -1  729.27   13.37
   3   3   1  737.95   13.34
   3   3   1  727.50   13.39
   3   3   1  719.69   13.37
  -4  -3  -1   66.24    1.69
  -4  -3  -1   66.04    1.57
  -4  -3  -1   65.56    1.62
   4   3   1   65.09    1.58
   4   3   1   64.97    1.66
   4   3   1   63.62    1.61
  -5  -3  -1  354.57    6.70
  -5  -3  -1  356.75    6.80
  -5  -3  -1  345.43    6.89
   5   3   1  349.60    6.88
   5   3   1  341.77    6.71
  -6  -3  -1    0.20    0.35
  -6  -3  -1    0.62    0.31
  -6  -3  -1    0.89    0.45
   6   3   1    0.07    0.40
   6   3   1    0.24    0.38
  -7  -3  -1   38.15    1.49
  -7  -3  -1   38.47    1.34
  -7  -3  -1   36.09    1.42
  -7  -3  -1   37.95    1.64
   7   3   1   35.58    1.47
   7   3   1   35.19    1.55
  -8  -3  -1   17.96    1.24
  -8  -3  -1   18.71    1.16
  -8  -3  -1   19.49    1.35
   8   3   1   20.73    1.42
   8   3   1   18.69    1.38
  -9  -3  -1   17.71    1.32
  -9  -3  -1   15.47    1.60
  -9  -3  -1   18.75    1.47
  -9  -3  -1   16.69    1.71
   9   3   1   16.74    1.50
   9   3   1   17.82    1.70
 -10  -3  -1   10.72    1.87
 -10  -3  -1   15.13    1.67
 -10  -3  -1   11.95    1.50
 -10  -3  -1   12.13    1.79
  10   3   1   12.03    1.61
 -11  -3  -1    4.79    1.19
 -11  -3  -1    6.04    1.31
 -11  -3  -1    5.80    1.53
  11   3   1    6.37    2.11
  10  -4  -1    6.33    1.29
 -10   4   1    8.12    1.29
 -10   4   1    8.60    1.27
   9  -4  -1    4.50    1.11
  -9   4   1    5.04    1.06
  -9   4   1    3.84    1.19
  -9   4   1    2.69    1.00
   8  -4  -1   11.54    1.76
   8  -4  -1   10.07    1.61
  -8   4   1   10.59    1.76
  -8   4   1   12.54    1.57
  -8   4   1   11.56    1.48
   7  -4  -1    9.23    1.28
   7  -4  -1    8.54    1.18
  -7   4   1    8.91    1.07
  -7   4   1    8.13    1.22
  -7   4   1    9.53    1.32
   6  -4  -1   61.18    1.96
   6  -4  -1   60.27    2.15
   6  -4  -1   59.36    2.09
  -6   4   1   60.76    2.18
  -6   4   1   59.54    1.97
  -6   4   1   60.16    2.11
   5  -4  -1   35.31    1.53
   5  -4  -1   34.73    1.34
   5  -4  -1   34.11    1.46
  -5   4   1   34.31    1.34
  -5   4   1   36.57    1.60
  -5   4   1   35.32    1.51
   4  -4  -1   76.01    2.13
   4  -4  -1   75.38    2.13
   4  -4  -1   77.43    1.92
  -4   4   1   75.59    1.94
  -4   4   1   74.59    2.13
  -4   4   1   76.24    2.15
   3  -4  -1   33.65    1.23
   3  -4  -1   34.00    1.25
   3  -4  -1   34.64    1.04
  -3   4   1   34.60    1.25
  -3   4   1   34.00    1.28
  -3   4   1   32.47    1.04
   2  -4  -1   35.12    0.93
   2  -4  -1   32.80    1.16
   2  -4  -1   35.21    1.16
  -2   4   1   34.47    1.18
  -2   4   1   32.45    0.98
  -2   4   1   32.70    1.17
   1  -4  -1    3.20    0.49
   1  -4  -1    3.06    0.50
   1  -4  -1    3.27    0.28
  -1   4   1    2.61    0.31
  -1   4   1    2.61    0.47
  -1   4   1    2.87    0.44
  -1   4   1    3.77    0.55
   0  -4  -1  126.37    2.67
   0  -4  -1  118.38    2.58
   0  -4  -1  126.97    2.62
   0   4   1  121.92    2.60
   0   4   1  121.34    2.62
   0   4   1  125.48    2.65
  -1  -4  -1   98.04    2.18
  -1  -4  -1  101.80    2.22
  -1  -4  -1  100.58    2.16
   1   4   1   98.48    2.20
   1   4   1  104.10    2.21
   1   4   1   97.52    2.15
  -2  -4  -1  172.14    3.50
  -2  -4  -1  171.03    3.28
  -2  -4  -1  167.81    3.38
   2   4   1  171.51    3.45
   2   4   1  171.99    3.27
   2   4   1  162.96    3.37
  -3  -4  -1    2.29    0.37
  -3  -4  -1    3.17    0.51
   3   4   1    2.44    0.33
   3   4   1    2.48    0.32
   3   4   1    2.77    0.35
  -4  -4  -1   67.12    1.70
  -4  -4  -1   62.95    1.60
   4   4   1   65.78    1.63
   4   4   1   64.25    1.61
   4   4   1   64.17    1.65
  -5  -4  -1   17.82    0.86
  -5  -4  -1   17.66    0.94
   5   4   1   19.19    0.92
   5   4   1   18.90    0.89
  -6  -4  -1    4.64    0.67
  -6  -4  -1    3.53    0.59
  -6  -4  -1    3.90    0.53
   6   4   1    4.78    0.78
   6   4   1    4.60    0.67
  -7  -4  -1    3.46    0.68
  -7  -4  -1    3.46    0.56
  -7  -4  -1    3.46    0.60
   7   4   1    3.93    0.76
   7   4   1    3.40    0.62
  -8  -4  -1   73.23    2.24
  -8  -4  -1   78.35    2.33
  -8  -4  -1   65.82    2.58
   8   4   1   75.70    2.70
   8   4   1   73.26    2.39
  -9  -4  -1    1.73    0.85
  -9  -4  -1    2.89    0.81
  -9  -4  -1    1.70    0.72
  -9  -4  -1    2.08    0.73
   9   4   1    1.79    0.85
   9   4   1    1.27    0.80
 -10  -4  -1   32.85    2.10
 -10  -4  -1   31.37    1.85
 -10  -4  -1   30.82    1.96
 -10  -4  -1   27.80    2.09
  10   4   1   31.09    2.00
 -11  -4  -1    1.50    1.35
 -11  -4  -1   -0.42    1.02
 -11  -4  -1    2.78    1.15
  11   4   1   -1.50    1.13
  10  -5  -1   14.96    2.23
 -10   5   1    9.98    1.39
 -10   5   1    8.60    1.49
   9  -5  -1    0.27    0.97
  -9   5   1   -2.12    1.31
  -9   5   1   -0.54    0.94
  -9   5   1    1.17    1.04
   8  -5  -1   19.12    1.67
   8  -5  -1   21.52    1.88
  -8   5   1   19.81    1.71
  -8   5   1   17.97    2.01
  -8   5   1   18.74    1.78
   7  -5  -1    1.52    0.74
   7  -5  -1    0.46    0.73
  -7   5   1    1.39    0.74
  -7   5   1    2.56    0.97
  -7   5   1    1.83    0.71
   6  -5  -1    4.92    0.74
   6  -5  -1    4.12    0.77
   6  -5  -1    4.55    0.79
  -6   5   1    4.39    0.70
  -6   5   1    3.79    0.83
  -6   5   1    4.95    0.79
   5  -5  -1   46.03    1.81
   5  -5  -1   42.88    1.73
   5  -5  -1   45.70    1.56
  -5   5   1   43.33    1.74
  -5   5   1   42.88    1.51
  -5   5   1   46.73    1.83
   4  -5  -1   88.22    2.10
   4  -5  -1   88.31    2.43
   4  -5  -1   85.28    2.39
  -4   5   1   84.97    2.11
  -4   5   1   87.37    2.41
  -4   5   1   76.37    2.72
   3  -5  -1   25.77    0.88
   3  -5  -1   24.07    1.12
   3  -5  -1   23.28    1.11
  -3   5   1   24.08    0.88
  -3   5   1   24.39    1.14
  -3   5   1   23.01    1.13
   2  -5  -1   67.23    1.84
   2  -5  -1   68.44    1.89
   2  -5  -1   69.52    1.50
  -2   5   1   65.21    1.84
  -2   5   1   68.79    1.87
  -2   5   1   64.55    1.51
   1  -5  -1    6.60    0.64
   1  -5  -1    5.84    0.63
  -1   5   1    5.20    0.60
  -1   5   1    7.09    0.71
  -1   5   1    6.88    0.60
   0  -5  -1  275.54    5.41
   0  -5  -1  282.09    5.41
   0  -5  -1  277.51    5.50
   0   5   1  264.20    5.40
   0   5   1  275.47    5.43
   0   5   1  273.72    5.46
  -1  -5  -1    0.53    0.30
  -1  -5  -1    0.75    0.28
  -1  -5  -1    1.44    0.34
   1   5   1    0.66    0.28
   1   5   1    1.22    0.40
   1   5   1    0.88    0.29
  -2  -5  -1  244.20    4.53
  -2  -5  -1  238.82    4.70
  -2  -5  -1  238.41    4.84
   2   5   1  231.89    4.70
   2   5   1  242.04    4.52
   2   5   1  244.90    4.83
  -3  -5  -1  181.85    3.63
  -3  -5  -1  180.28    3.59
   3   5   1  179.07    3.57
   3   5   1  173.33    3.61
   3   5   1  178.54    3.70
   3   5   1  181.92    3.76
  -4  -5  -1  201.59    4.09
  -4  -5  -1  194.49    4.00
   4   5   1  197.46    4.01
   4   5   1  199.28    4.06
   4   5   1  200.90    4.11
  -5  -5  -1   20.11    0.93
   5   5   1   22.76    1.00
   5   5   1   20.32    0.89
   5   5   1   21.09    0.99
  -6  -5  -1   22.22    1.07
  -6  -5  -1   23.73    1.24
   6   5   1   23.47    1.21
   6   5   1   21.77    1.12
  -7  -5  -1    0.47    0.58
  -7  -5  -1    0.58    0.49
   7   5   1    1.07    0.51
   7   5   1   -0.20    0.49
  -8  -5  -1   -0.75    0.49
  -8  -5  -1   -0.21    0.76
   8   5   1    0.37    0.62
   8   5   1    0.17    0.67
  -9  -5  -1   18.85    1.73
  -9  -5  -1   17.94    1.44
  -9  -5  -1   21.56    1.59
   9   5   1   20.90    1.87
   9   5   1   15.33    1.97
 -10  -5  -1    0.69    1.30
 -10  -5  -1    0.22    0.89
 -10  -5  -1    0.24    1.00
  10   5   1   -0.24    1.07
 -11  -5  -1    5.78    1.34
  10  -6  -1    6.04    1.41
 -10   6   1    6.13    1.24
 -10   6   1    2.78    1.44
   9  -6  -1    3.07    1.16
  -9   6   1    0.12    0.89
  -9   6   1    1.46    1.08
   8  -6  -1    4.85    1.04
   8  -6  -1    4.33    1.10
  -8   6   1    3.89    1.00
  -8   6   1    3.40    1.34
  -8   6   1    4.61    1.08
   7  -6  -1    3.53    0.94
   7  -6  -1    3.92    0.80
  -7   6   1    4.21    0.81
  -7   6   1    3.39    0.90
  -7   6   1    4.50    1.07
   6  -6  -1   25.03    1.37
   6  -6  -1   23.84    1.59
   6  -6  -1   23.23    1.63
  -6   6   1   23.61    1.36
  -6   6   1   26.33    1.79
  -6   6   1   24.94    1.63
   5  -6  -1  107.91    2.74
   5  -6  -1  110.07    3.08
   5  -6  -1  108.15    3.05
  -5   6   1  105.37    3.05
  -5   6   1  109.56    2.70
  -5   6   1  112.20    3.09
   4  -6  -1   10.53    0.78
   4  -6  -1    9.00    1.03
   4  -6  -1    9.01    0.99
  -4   6   1    9.71    0.78
  -4   6   1    9.46    1.01
  -4   6   1    9.49    1.07
   3  -6  -1  178.78    3.55
   3  -6  -1  175.94    4.00
  -3   6   1  171.95    4.11
  -3   6   1  173.01    3.56
  -3   6   1  175.94    4.02
   2  -6  -1    0.94    0.35
   2  -6  -1    1.17    0.24
   2  -6  -1    1.29    0.43
  -2   6   1    1.41    0.44
  -2   6   1    1.24    0.37
  -2   6   1    0.63    0.40
  -2   6   1    0.85    0.25
   1  -6  -1  123.12    2.94
   1  -6  -1  122.31    2.84
  -1   6   1  120.54    2.88
  -1   6   1  122.92    2.90
  -1   6   1  123.44    2.83
   0  -6  -1   12.19    0.80
   0  -6  -1   12.36    0.77
   0  -6  -1   11.42    0.76
   0   6   1   13.13    0.79
   0   6   1   12.86    0.87
   0   6   1   11.01    0.77
  -1  -6  -1  327.54    6.48
  -1  -6  -1  328.33    6.55
  -1  -6  -1  337.27    6.41
   1   6   1  338.13    6.55
   1   6   1  314.38    6.48
   1   6   1  327.44    6.43
  -2  -6  -1   56.42    1.64
  -2  -6  -1   57.25    1.28
  -2  -6  -1   56.41    1.52
   2   6   1   55.85    1.62
   2   6   1   54.19    1.53
   2   6   1   55.27    1.24
  -3  -6  -1  123.34    2.87
  -3  -6  -1  120.14    2.54
  -3  -6  -1  117.30    2.63
   3   6   1  118.53    2.78
   3   6   1  117.52    2.62
   3   6   1  119.31    2.51
  -4  -6  -1    2.31    0.43
  -4  -6  -1    4.62    0.77
  -4  -6  -1    2.44    0.44
   4   6   1    2.92    0.45
   4   6   1    3.26    0.52
   4   6   1    2.97    0.41
   4   6   1    2.97    0.49
  -5  -6  -1   81.46    2.17
  -5  -6  -1   79.51    2.03
   5   6   1   82.59    2.12
   5   6   1   80.62    2.02
   5   6   1   84.37    2.19
  -6  -6  -1   59.02    1.92
  -6  -6  -1   56.23    1.71
   6   6   1   58.07    1.84
   6   6   1   59.28    1.86
  -7  -6  -1    6.22    0.86
  -7  -6  -1    5.34    0.92
   7   6   1    4.82    0.72
   7   6   1    5.64    0.78
  -8  -6  -1    1.71    0.66
  -8  -6  -1    0.73    0.70
   8   6   1    0.73    0.70
   8   6   1    2.13    0.77
  -9  -6  -1   39.04    2.16
  -9  -6  -1   40.99    1.90
  -9  -6  -1   35.65    1.72
   9   6   1   39.13    2.62
   9   6   1   35.81    1.96
 -10  -6  -1    2.12    1.04
 -10  -6  -1    1.33    0.88
 -10  -6  -1    2.92    1.07
  10   6   1   -0.40    1.06
 -11  -6  -1   16.26    2.08
 -11  -6  -1   17.56    2.30
   9  -7  -1   14.16    2.16
  -9   7   1   10.28    1.55
  -9   7   1   10.48    1.31
   8  -7  -1    3.64    1.08
   8  -7  -1    1.16    1.12
  -8   7   1   -1.13    0.91
  -8   7   1    0.84    0.91
   7  -7  -1   43.90    1.99
   7  -7  -1   43.20    2.23
  -7   7   1   44.75    2.28
  -7   7   1   42.68    1.92
  -7   7   1   40.43    2.46
   6  -7  -1   36.13    1.59
   6  -7  -1   34.56    2.08
  -6   7   1   34.48    1.93
  -6   7   1   36.39    1.62
  -6   7   1   36.23    2.03
   5  -7  -1   62.65    1.89
   5  -7  -1   66.25    2.37
   5  -7  -1   61.27    2.32
  -5   7   1   61.91    1.89
  -5   7   1   62.93    2.35
  -5   7   1   65.54    2.56
   4  -7  -1    0.41    0.53
   4  -7  -1   -0.25    0.35
   4  -7  -1    0.99    0.51
  -4   7   1    0.55    0.57
  -4   7   1   -0.08    0.36
  -4   7   1    0.09    0.54
   3  -7  -1  158.66    3.22
   3  -7  -1  160.04    3.80
  -3   7   1  154.45    3.24
  -3   7   1  154.65    3.78
  -3   7   1  161.25    3.85
   2  -7  -1   10.49    0.96
   2  -7  -1    7.77    0.87
  -2   7   1    9.84    0.95
  -2   7   1    9.66    0.94
  -2   7   1    9.06    0.92
   1  -7  -1   24.62    1.19
   1  -7  -1   24.30    1.16
  -1   7   1   24.07    1.34
  -1   7   1   24.29    1.12
  -1   7   1   25.76    1.24
   0  -7  -1    0.18    0.35
   0  -7  -1    0.24    0.32
   0  -7  -1   -0.08    0.35
   0   7   1    0.61    0.40
   0   7   1    0.14    0.32
   0   7   1   -0.20    0.35
  -1  -7  -1   44.01    1.41
  -1  -7  -1   43.57    1.46
  -1  -7  -1   44.68    1.53
   1   7   1   43.45    1.49
   1   7   1   45.35    1.51
   1   7   1   42.36    1.47
  -2  -7  -1   45.90    1.57
  -2  -7  -1   48.70    1.45
   2   7   1   46.71    1.45
   2   7   1   47.72    1.58
   2   7   1   45.93    1.58
  -3  -7  -1   36.94    1.43
  -3  -7  -1   37.46    1.10
  -3  -7  -1   37.21    1.27
   3   7   1   39.60    1.43
   3   7   1   36.35    1.23
   3   7   1   37.49    1.05
  -4  -7  -1  135.79    3.28
  -4  -7  -1  132.14    2.93
  -4  -7  -1  130.22    2.93
   4   7   1  127.73    2.90
   4   7   1  134.41    3.19
   4   7   1  132.50    2.88
   4   7   1  131.91    3.12
  -5  -7  -1   13.97    1.03
  -5  -7  -1   14.38    1.17
  -5  -7  -1   14.16    0.99
   5   7   1   14.49    0.92
   5   7   1   12.79    1.02
   5   7   1   14.55    0.82
   5   7   1   14.39    1.09
  -6  -7  -1    5.14    0.73
  -6  -7  -1    5.31    0.66
  -6  -7  -1    3.67    0.66
   6   7   1    5.70    0.92
   6   7   1    4.24    0.54
   6   7   1    4.79    0.89
   6   7   1    5.43    0.95
  -7  -7  -1    3.75    0.63
  -7  -7  -1    3.60    0.79
   7   7   1    3.34    0.74
   7   7   1    2.39    0.67
  -8  -7  -1   26.59    1.76
  -8  -7  -1   27.23    1.44
   8   7   1   23.25    1.66
   8   7   1   25.59    1.76
  -9  -7  -1    6.91    1.15
  -9  -7  -1    9.63    1.34
   9   7   1    6.85    1.14
 -10  -7  -1    8.37    1.31
 -10  -7  -1    9.65    1.58
  10   7   1    8.57    1.35
   9  -8  -1    1.26    1.22
  -9   8   1    1.74    1.39
  -9   8   1    3.21    1.17
   8  -8  -1   30.90    2.39
   8  -8  -1   33.66    2.37
  -8   8   1   35.54    2.05
  -8   8   1   31.53    2.45
   7  -8  -1   -0.17    0.89
   7  -8  -1    0.75    0.86
  -7   8   1    0.57    0.79
  -7   8   1   -0.28    0.94
   6  -8  -1   40.40    1.75
   6  -8  -1   34.95    2.33
   6  -8  -1   38.53    2.09
  -6   8   1   41.63    2.19
  -6   8   1   38.55    1.67
  -6   8   1   38.63    2.25
   5  -8  -1   15.13    1.62
   5  -8  -1   11.49    1.05
  -5   8   1   16.11    1.57
  -5   8   1   13.30    1.05
  -5   8   1   12.16    1.51
   4  -8  -1  115.25    2.61
   4  -8  -1  114.30    3.31
   4  -8  -1  117.63    3.30
  -4   8   1  113.85    2.65
  -4   8   1  111.02    3.52
  -4   8   1  116.11    3.31
   3  -8  -1   41.85    1.16
   3  -8  -1   39.50    1.79
   3  -8  -1   43.23    1.78
  -3   8   1   41.08    1.67
  -3   8   1   42.95    1.85
  -3   8   1   41.21    1.76
  -3   8   1   40.72    1.17
   2  -8  -1  143.75    3.70
   2  -8  -1  151.20    3.62
  -2   8   1  149.24    3.68
  -2   8   1  147.23    3.72
  -2   8   1  147.08    3.67
   1  -8  -1   89.31    2.45
   1  -8  -1   89.12    2.59
  -1   8   1   88.38    2.45
  -1   8   1   88.44    2.53
  -1   8   1   89.20    2.49
   0  -8  -1   11.41    0.93
   0  -8  -1   10.32    0.97
   0   8   1   11.56    0.99
   0   8   1   11.34    0.94
   0   8   1   11.27    1.03
  -1  -8  -1   49.56    1.57
  -1  -8  -1   47.46    1.74
   1   8   1   48.01    1.67
   1   8   1   47.99    1.72
   1   8   1   47.97    1.69
  -2  -8  -1    7.45    0.89
  -2  -8  -1    6.00    0.81
   2   8   1    7.00    1.05
   2   8   1    5.88    0.85
   2   8   1    6.93    0.88
  -3  -8  -1    7.66    0.61
  -3  -8  -1    9.91    0.97
  -3  -8  -1    9.97    0.85
   3   8   1    9.33    0.55
   3   8   1    7.55    0.76
   3   8   1    7.18    1.13
  -4  -8  -1    6.34    0.74
  -4  -8  -1    6.74    1.01
  -4  -8  -1    8.51    0.90
   4   8   1    7.65    0.67
   4   8   1    6.76    0.72
   4   8   1    6.31    0.98
   4   8   1    7.81    0.97
  -5  -8  -1    3.00    0.70
  -5  -8  -1    3.64    0.59
  -5  -8  -1    3.48    0.61
   5   8   1    4.59    0.70
   5   8   1    4.11    0.57
   5   8   1    4.07    0.75
   5   8   1    4.04    0.66
  -6  -8  -1   39.08    1.64
  -6  -8  -1   38.11    1.51
   6   8   1   35.92    1.36
   6   8   1   38.88    1.57
   6   8   1   40.45    1.83
   6   8   1   38.93    1.68
  -7  -8  -1    6.02    0.78
  -7  -8  -1    6.26    0.90
  -7  -8  -1    5.37    0.91
   7   8   1    6.95    1.01
   7   8   1    7.97    1.24
   7   8   1    5.92    0.88
  -8  -8  -1   24.35    1.79
   8   8   1   26.21    1.81
   8   8   1   29.38    2.06
   8   8   1   25.89    1.85
  -9  -8  -1   -0.51    0.88
   9   8   1    1.79    1.22
 -10  -8  -1    9.46    1.47
  10   8   1    5.86    1.61
   8  -9  -1   13.35    2.12
   8  -9  -1   11.43    1.56
  -8   9   1   13.10    2.28
  -8   9   1   15.30    1.90
   7  -9  -1    7.99    1.12
  -7   9   1    5.86    1.04
  -7   9   1    6.22    1.26
   6  -9  -1    8.77    1.35
   6  -9  -1    9.90    1.65
  -6   9   1    9.42    1.25
  -6   9   1   11.53    1.82
  -6   9   1   11.77    1.80
   5  -9  -1    8.69    1.06
   5  -9  -1    8.80    1.48
   5  -9  -1    6.69    1.10
  -5   9   1    7.96    0.98
  -5   9   1   10.30    1.63
  -5   9   1   11.98    1.70
   4  -9  -1   52.46    2.27
   4  -9  -1   49.20    2.28
   4  -9  -1   52.02    1.50
  -4   9   1   53.54    2.23
  -4   9   1   51.67    2.33
  -4   9   1   52.27    1.51
  -4   9   1   51.05    3.01
   3  -9  -1    9.45    1.26
   3  -9  -1    8.61    1.33
  -3   9   1    9.64    1.33
  -3   9   1    9.39    1.18
  -3   9   1    9.89    1.29
   2  -9  -1   28.22    1.53
   2  -9  -1   26.46    1.55
  -2   9   1   28.58    1.47
  -2   9   1   28.22    1.55
  -2   9   1   27.98    1.60
   1  -9  -1    2.09    0.63
   1  -9  -1    2.19    0.66
  -1   9   1    1.70    0.59
  -1   9   1    2.05    0.52
  -1   9   1    2.45    0.71
   0  -9  -1    3.83    0.61
   0  -9  -1    3.49    0.73
   0   9   1    3.36    0.66
   0   9   1    2.83    0.55
   0   9   1    3.52    0.71
  -1  -9  -1   45.94    1.84
  -1  -9  -1   45.89    1.65
  -1  -9  -1   46.95    1.76
   1   9   1   46.18    1.79
   1   9   1   47.21    1.80
   1   9   1   44.96    1.76
  -2  -9  -1    0.81    0.46
  -2  -9  -1    0.48    0.46
   2   9   1    0.21    0.52
   2   9   1    0.28    0.44
   2   9   1   -0.16    0.48
  -3  -9  -1   52.04    1.69
  -3  -9  -1   52.40    1.94
  -3  -9  -1   49.41    1.32
   3   9   1   51.73    1.67
   3   9   1   51.68    1.94
  -4  -9  -1    2.44    0.56
  -4  -9  -1    2.16    0.47
  -4  -9  -1    2.42    0.64
   4   9   1    2.50    0.53
   4   9   1    2.46    0.46
   4   9   1    3.01    0.73
   4   9   1    2.65    0.64
  -5  -9  -1   36.36    1.83
  -5  -9  -1   36.59    1.44
  -5  -9  -1   37.70    1.45
   5   9   1   35.44    1.35
   5   9   1   38.81    1.82
   5   9   1   36.95    1.38
   5   9   1   39.80    1.70
  -6  -9  -1   62.31    2.09
  -6  -9  -1   59.46    1.96
  -6  -9  -1   63.24    2.47
   6   9   1   64.64    2.41
   6   9   1   63.58    2.24
   6   9   1   62.97    2.01
   6   9   1   60.68    1.85
  -7  -9  -1    1.58    0.81
   7   9   1    2.35    0.76
   7   9   1    2.19    0.84
   7   9   1    1.82    0.95
  -8  -9  -1   28.27    1.85
   8   9   1   26.69    1.91
   8   9   1   21.86    1.94
   8   9   1   27.12    2.32
  -9  -9  -1   11.87    1.92
   9   9   1    6.95    1.62
   9   9   1    5.74    1.49
 -10  -9  -1   19.97    2.30
  10   9   1   13.50    1.71
   8 -10  -1    0.77    1.39
  -8  10   1    3.43    1.15
  -8  10   1    3.67    2.54
   7 -10  -1   26.21    2.34
   7 -10  -1   26.61    2.36
  -7  10   1   27.87    1.91
  -7  10   1   24.53    2.35
   6 -10  -1    9.86    1.47
   6 -10  -1    6.94    1.28
  -6  10   1    8.05    1.25
  -6  10   1    6.95    1.32
  -6  10   1    7.32    1.07
   5 -10  -1    4.13    1.00
   5 -10  -1    7.26    1.09
  -5  10   1    7.28    1.21
  -5  10   1    8.54    1.00
  -5  10   1    5.82    0.93
   4 -10  -1   -0.39    0.71
   4 -10  -1    0.91    0.89
  -4  10   1   -0.04    0.75
  -4  10   1    2.20    1.02
  -4  10   1    0.05    0.66
   3 -10  -1   16.98    1.53
   3 -10  -1   17.51    1.67
  -3  10   1   17.34    1.49
  -3  10   1   16.82    1.62
  -3  10   1   21.47    1.65
   2 -10  -1    9.48    1.39
  -2  10   1   11.40    1.41
  -2  10   1   10.31    1.23
  -2  10   1   13.71    1.40
   1 -10  -1    0.34    0.61
   1 -10  -1    1.00    0.62
  -1  10   1    0.87    0.61
  -1  10   1   -0.32    0.68
  -1  10   1   -0.01    0.56
   0 -10  -1    8.01    1.13
   0 -10  -1    6.77    1.21
   0  10   1    7.81    1.26
   0  10   1    9.74    1.15
   0  10   1    8.20    1.20
  -1 -10  -1    0.45    0.55
  -1 -10  -1    0.51    0.63
  -1 -10  -1    0.96    0.61
   1  10   1    1.06    0.65
   1  10   1    0.80    0.58
   1  10   1    1.13    0.68
  -2 -10  -1    4.00    0.86
  -2 -10  -1    4.39    0.73
   2  10   1    4.93    0.85
   2  10   1    4.55    0.73
   2  10   1    4.35    0.80
  -3 -10  -1   30.24    1.42
  -3 -10  -1   30.52    1.66
   3  10   1   31.53    1.69
   3  10   1   30.64    1.40
  -4 -10  -1    7.03    0.78
  -4 -10  -1    6.21    0.87
  -4 -10  -1    7.61    0.83
   4  10   1    8.05    0.70
   4  10   1    6.74    0.97
   4  10   1    8.72    0.99
   4  10   1    7.84    1.23
  -5 -10  -1   73.48    2.14
  -5 -10  -1   76.67    2.22
  -5 -10  -1   76.59    2.72
   5  10   1   73.84    2.11
   5  10   1   77.85    2.69
   5  10   1   75.49    2.05
   5  10   1   77.61    2.55
  -6 -10  -1    5.11    1.13
  -6 -10  -1    4.13    1.17
   6  10   1    6.55    0.84
   6  10   1    6.73    1.01
   6  10   1    6.90    1.10
  -7 -10  -1   88.67    2.85
   7  10   1   89.58    2.99
   7  10   1   90.85    2.74
   7  10   1   86.79    3.19
  -8 -10  -1   -0.51    0.94
   8  10   1    1.89    1.04
   8  10   1   -0.91    1.27
   8  10   1    0.10    0.94
  -9 -10  -1   18.65    2.30
   9  10   1   18.26    2.35
   9  10   1   21.88    3.03
   7 -11  -1    7.76    1.64
  -7  11   1   11.21    1.80
  -7  11   1    9.04    1.35
   6 -11  -1    4.03    1.14
  -6  11   1    5.41    1.21
  -6  11   1    6.63    0.86
  -6  11   1    4.17    1.31
   5 -11  -1    5.92    1.15
  -5  11   1    4.37    1.25
  -5  11   1    4.14    0.91
   4 -11  -1   20.31    1.90
  -4  11   1   16.67    1.91
  -4  11   1   21.18    1.76
   3 -11  -1    7.86    1.26
   3 -11  -1    7.46    1.20
  -3  11   1    7.72    1.13
  -3  11   1   10.15    1.47
  -3  11   1    7.98    1.28
   2 -11  -1   17.09    1.65
   2 -11  -1   16.63    1.67
  -2  11   1   18.01    1.54
  -2  11   1   15.83    1.65
  -2  11   1   17.95    1.71
   1 -11  -1   17.39    1.54
   1 -11  -1   16.73    1.62
  -1  11   1   16.59    1.58
  -1  11   1   17.01    1.48
  -1  11   1   17.00    1.64
   0 -11  -1   10.01    1.40
   0 -11  -1    9.25    1.37
   0  11   1   11.11    1.46
   0  11   1   12.44    1.44
   0  11   1    9.04    1.29
  -1 -11  -1   11.64    1.30
  -1 -11  -1    8.85    1.49
   1  11   1    9.90    1.42
   1  11   1   11.45    1.41
   1  11   1   10.69    1.34
  -2 -11  -1   13.68    1.31
  -2 -11  -1   12.24    1.47
   2  11   1   14.19    1.45
   2  11   1   12.57    1.39
   2  11   1   13.48    1.34
  -3 -11  -1    8.18    1.21
  -3 -11  -1    9.64    1.52
   3  11   1   10.31    1.16
   3  11   1    8.68    1.48
  -4 -11  -1   11.94    1.65
   4  11   1   12.43    1.50
   4  11   1   13.75    1.68
   4  11   1   14.40    1.19
  -5 -11  -1   24.42    1.28
  -5 -11  -1   23.67    1.50
   5  11   1   24.07    1.28
   5  11   1   24.28    2.01
   5  11   1   22.69    1.16
  -6 -11  -1   23.07    1.55
   6  11   1   25.73    1.51
   6  11   1   25.53    1.90
   6  11   1   27.84    2.22
  -7 -11  -1   35.99    2.06
   7  11   1   31.20    2.59
   7  11   1   35.12    2.19
   7  11   1   36.14    1.94
  -8 -11  -1    2.20    1.13
   8  11   1    2.15    1.57
   8  11   1    2.36    1.18
  -9 -11  -1   11.95    1.54
   9  11   1   12.86    1.70
   6 -12  -1    4.03    1.52
  -6  12   1    6.41    1.32
  -6  12   1    1.51    1.30
   5 -12  -1    3.78    1.23
  -5  12   1    1.31    1.14
  -5  12   1    3.07    0.94
   4 -12  -1    4.51    1.21
  -4  12   1    7.12    1.14
  -4  12   1    5.47    1.32
   3 -12  -1   10.19    1.82
  -3  12   1    8.70    1.30
  -3  12   1    7.83    1.08
   2 -12  -1   29.83    2.28
   2 -12  -1   33.16    2.23
  -2  12   1   31.06    1.97
  -2  12   1   31.58    2.18
   1 -12  -1   -1.48    0.73
   1 -12  -1    0.72    0.99
  -1  12   1    0.87    0.92
  -1  12   1   -0.33    0.85
  -1  12   1   -0.74    0.61
   0 -12  -1   62.27    2.47
   0 -12  -1   63.77    2.68
   0  12   1   64.32    2.53
   0  12   1   60.90    2.51
   0  12   1   63.36    2.75
  -1 -12  -1    0.97    0.78
   1  12   1    1.94    0.98
   1  12   1    0.28    0.69
   1  12   1    0.00    0.79
  -2 -12  -1   56.47    2.22
  -2 -12  -1   55.54    2.53
   2  12   1   58.12    2.24
   2  12   1   57.58    2.58
  -3 -12  -1   15.14    2.33
  -3 -12  -1   12.53    1.48
   3  12   1   13.32    1.83
   3  12   1   15.62    1.41
  -4 -12  -1   78.03    2.55
   4  12   1   77.86    2.44
   4  12   1   82.42    3.15
   4  12   1   78.60    2.88
  -5 -12  -1    0.05    0.82
   5  12   1    0.37    0.55
   5  12   1    0.34    0.64
   5  12   1    0.62    1.10
   5  12   1   -1.06    0.87
  -6 -12  -1   46.24    1.90
   6  12   1   47.44    1.85
   6  12   1   42.96    2.43
   6  12   1   48.53    2.98
  -7 -12  -1    2.16    1.03
   7  12   1    2.35    1.13
  -8 -12  -1    7.06    1.37
   8  12   1   10.78    1.54
   5 -13  -1    5.76    1.57
  -5  13   1    6.70    1.31
  -5  13   1    5.79    1.53
   4 -13  -1    2.21    1.22
  -4  13   1   -2.09    1.08
  -4  13   1   -0.74    1.04
   3 -13  -1    2.39    1.11
  -3  13   1    1.27    0.88
  -3  13   1    1.98    1.18
   2 -13  -1   -0.13    1.14
  -2  13   1    0.09    0.80
  -2  13   1    0.19    1.05
   1 -13  -1   32.54    2.30
   1 -13  -1   33.52    2.45
  -1  13   1   33.43    2.09
  -1  13   1   34.92    2.28
   0 -13  -1   37.67    2.41
   0  13   1   37.18    2.34
   0  13   1   35.53    2.15
  -1 -13  -1   11.09    1.84
   1  13   1    8.64    1.89
   1  13   1    6.11    1.07
  -2 -13  -1    3.01    1.02
   2  13   1    4.18    1.01
  -3 -13  -1   11.74    1.78
   3  13   1   14.82    1.92
  -4 -13  -1   10.12    1.21
   4  13   1   11.21    1.84
   4  13   1    9.77    1.47
  -5 -13  -1    8.67    1.20
   5  13   1    9.25    1.37
   5  13   1    8.75    1.34
   6  13   1    2.13    1.14
   7  13   1   21.40    2.45
  -4  14   1    4.82    1.35
  -4  14   1    4.99    1.65
   3 -14  -1   29.65    2.70
  -3  14   1   25.73    2.37
  -3  14   1   30.09    2.68
   2 -14  -1    1.78    1.08
  -2  14   1    2.57    1.06
  -2  14   1    0.78    1.12
   1 -14  -1   96.92    3.78
  -1  14   1   94.41    3.44
  -1  14   1   96.69    3.56
   0 -14  -1    6.96    1.58
   0  14   1    4.57    1.20
   0  14   1    2.38    1.09
  -1 -14  -1   34.44    2.63
   1  14   1   37.87    2.30
   1  14   1   34.93    2.36
  -2 -14  -1    0.99    1.21
   2  14   1    0.38    0.88
  -3 -14  -1    7.49    1.34
   3  14   1    7.22    1.12
   4  14   1    1.14    0.95
   4  14   1   -0.18    1.06
   5  14   1    5.78    1.38
   6  14   1    4.03    1.36
  -2  15   1    7.40    1.52
  -2  15   1    5.80    1.36
  -1  15   1    1.52    1.18
  -1  15   1    4.89    1.42
   0  15   1   27.99    2.50
   0  15   1   27.99    2.39
   1  15   1   12.27    1.56
   1  15   1   10.42    1.45
  -2 -15  -1    0.77    1.61
   2  15   1    5.07    1.20
   3  15   1   -0.07    1.04
   4  15   1   14.52    2.36
   3  14  -2    9.39    1.68
   2  14  -2    1.59    1.24
   1  14  -2    6.91    1.62
   0  14  -2    2.26    1.25
   0  14  -2    0.05    1.15
  -1  14  -2   -0.40    1.18
  -1  14  -2   -0.79    1.06
  -2  14  -2   12.71    1.72
  -2  14  -2   17.45    2.96
   5  13  -2   -1.87    1.23
   4  13  -2   22.18    2.30
   3  13  -2   -0.43    1.18
   2  13  -2   11.21    2.09
   2  13  -2   11.17    1.50
  -2 -13   2   13.13    2.19
   1  13  -2   -1.60    0.92
   1  13  -2   -1.10    0.94
  -1 -13   2   -0.36    1.09
   0  13  -2   13.84    1.90
   0  13  -2   14.15    2.09
   0 -13   2   17.48    2.34
  -1  13  -2    1.09    1.10
  -1  13  -2    1.68    1.11
   1 -13   2    3.27    1.32
  -2  13  -2    3.75    1.18
  -2  13  -2    2.09    0.97
  -3  13  -2   10.72    1.54
  -3  13  -2    7.71    1.37
  -4  13  -2   14.56    2.28
  -4  13  -2   12.81    1.72
   4 -13   2   11.89    1.73
   6  12  -2    2.96    1.16
  -6 -12   2    2.93    1.13
   5  12  -2   17.74    2.10
  -5 -12   2   16.58    1.60
   4  12  -2    3.44    1.06
   3  12  -2   33.95    2.31
   2  12  -2    1.36    0.68
   2  12  -2    1.71    0.90
  -2 -12   2   -0.33    0.85
   1  12  -2   51.94    2.50
   1  12  -2   52.37    2.19
  -1 -12   2   48.95    2.21
   0  12  -2    5.53    1.06
   0  12  -2    5.16    0.97
   0 -12   2    3.66    1.12
  -1  12  -2   31.28    2.10
  -1  12  -2   28.96    2.45
   1 -12   2   28.77    2.27
  -2  12  -2   -0.72    0.81
  -2  12  -2   -1.16    0.93
   2 -12   2    0.98    1.10
  -3  12  -2   25.68    2.24
  -3  12  -2   30.11    2.17
  -4  12  -2    8.12    1.30
  -4  12  -2    8.94    1.43
   4 -12   2    5.10    1.31
  -5  12  -2   13.10    2.14
  -5  12  -2   15.61    2.32
   5 -12   2   17.33    2.44
  -6  12  -2   16.87    2.80
   6 -12   2   17.42    2.81
   7  11  -2   14.53    2.34
  -7 -11   2   17.64    2.28
   6  11  -2   -0.29    0.98
  -6 -11   2   -1.57    0.95
   5  11  -2    9.35    1.42
   5  11  -2    8.38    1.21
  -5 -11   2   10.69    1.42
   4  11  -2    6.46    0.76
   4  11  -2    5.16    1.14
  -4 -11   2    5.59    0.75
   3  11  -2    4.04    1.01
   3  11  -2    4.46    1.95
   2  11  -2    6.54    1.08
   2  11  -2    3.85    1.11
   2  11  -2    6.06    1.09
  -2 -11   2    7.03    1.15
   1  11  -2   16.07    1.64
   1  11  -2   16.89    2.08
   1  11  -2   16.23    1.44
  -1 -11   2   19.18    1.45
   0  11  -2   12.62    1.45
   0  11  -2    8.99    1.25
   0  11  -2   11.27    1.50
   0 -11   2   12.50    1.47
  -1  11  -2   19.41    2.04
  -1  11  -2   15.63    1.61
  -1  11  -2   18.60    1.67
   1 -11   2   15.33    1.66
  -2  11  -2   -0.12    0.73
  -2  11  -2   -0.39    0.93
   2 -11   2    1.24    0.97
  -3  11  -2   16.58    1.82
  -3  11  -2   17.08    1.70
   3 -11   2   15.36    1.92
   3 -11   2   19.31    2.05
  -4  11  -2    7.43    1.19
  -4  11  -2    9.17    1.39
   4 -11   2    8.54    1.36
  -5  11  -2   42.80    2.43
  -5  11  -2   42.22    2.68
   5 -11   2   39.55    2.62
  -6  11  -2    3.75    1.05
  -6  11  -2    2.77    1.22
   6 -11   2    4.34    1.42
  -7  11  -2   33.38    3.26
  -7  11  -2   39.72    3.06
   7 -11   2   24.56    2.86
   8  10  -2    9.74    1.60
  -8 -10   2   15.04    2.30
   7  10  -2   14.05    2.14
   7  10  -2   12.31    1.52
  -7 -10   2   15.08    1.93
   6  10  -2    9.47    1.16
   6  10  -2    9.70    1.36
  -6 -10   2   10.05    1.23
   5  10  -2    0.27    0.67
   5  10  -2   -1.78    1.26
   5  10  -2    0.79    0.83
  -5 -10   2    0.60    0.73
   4  10  -2   81.97    3.19
   4  10  -2   85.49    2.93
   4  10  -2   82.46    2.24
  -4 -10   2   82.54    3.20
  -4 -10   2   84.57    2.52
   3  10  -2    2.33    1.06
   3  10  -2    2.82    0.90
   3  10  -2    2.21    0.46
  -3 -10   2    0.84    0.48
  -3 -10   2    1.11    0.84
   2  10  -2   54.34    2.26
   2  10  -2   55.34    2.44
   2  10  -2   52.13    1.75
  -2 -10   2   54.36    2.34
   1  10  -2    1.00    0.75
   1  10  -2    0.65    0.64
   1  10  -2    0.52    0.61
  -1 -10   2    1.06    0.62
  -1 -10   2   -0.51    0.75
   0  10  -2  101.12    3.12
   0  10  -2  104.27    2.90
   0 -10   2  103.69    2.81
  -1  10  -2   38.95    2.10
  -1  10  -2   35.73    1.74
  -1  10  -2   38.22    1.89
   1 -10   2   37.70    1.78
  -2  10  -2    0.74    0.70
  -2  10  -2    1.21    0.75
  -2  10  -2    0.44    0.76
   2 -10   2    0.06    0.75
   2 -10   2   -0.99    0.61
  -3  10  -2   34.72    2.10
  -3  10  -2   34.40    1.91
  -3  10  -2   31.20    2.19
   3 -10   2   31.60    2.07
   3 -10   2   34.31    2.05
  -4  10  -2    9.76    1.51
  -4  10  -2   11.33    1.70
  -4  10  -2    7.79    1.19
   4 -10   2   11.16    1.72
   4 -10   2    6.61    1.20
  -5  10  -2    2.88    1.05
  -5  10  -2    3.59    0.92
   5 -10   2    4.89    1.18
  -6  10  -2    5.18    1.21
  -6  10  -2    6.41    0.80
   6 -10   2    5.23    1.24
  -7  10  -2   -0.68    1.26
  -7  10  -2    0.31    1.11
   7 -10   2    0.48    1.13
   8   9  -2   14.01    2.22
  -8  -9   2   13.57    2.06
   7   9  -2    1.50    0.98
   7   9  -2    0.94    1.00
  -7  -9   2    0.25    0.91
   6   9  -2    5.99    1.36
   6   9  -2    5.90    1.05
   6   9  -2    7.52    1.06
  -6  -9   2    7.19    1.01
   5   9  -2   17.71    1.65
   5   9  -2   19.26    1.35
   5   9  -2   18.05    2.05
  -5  -9   2   17.37    1.85
  -5  -9   2   18.10    1.45
   4   9  -2    9.37    1.25
   4   9  -2    7.19    0.99
  -4  -9   2    8.90    1.06
  -4  -9   2   10.54    1.54
   3   9  -2    4.28    0.86
   3   9  -2    4.22    0.57
   3   9  -2    4.62    0.99
  -3  -9   2    4.65    0.84
  -3  -9   2    3.93    0.57
   2   9  -2   32.10    1.74
   2   9  -2   33.20    1.30
   2   9  -2   33.30    1.83
  -2  -9   2   33.87    1.76
   1   9  -2    5.30    0.98
   1   9  -2    4.78    0.70
  -1  -9   2    5.10    0.82
  -1  -9   2    5.60    0.87
   0   9  -2   75.24    2.48
   0   9  -2   79.17    2.64
   0   9  -2   75.12    2.25
   0  -9   2   73.71    2.48
  -1   9  -2   27.23    1.47
  -1   9  -2   26.42    1.62
  -1   9  -2   28.91    1.57
   1  -9   2   25.75    1.40
  -2   9  -2   30.01    1.91
  -2   9  -2   28.34    1.59
  -2   9  -2   26.32    1.74
   2  -9   2   30.24    1.63
   2  -9   2   28.10    1.73
  -3   9  -2    0.28    0.72
  -3   9  -2   -0.46    0.55
  -3   9  -2    0.53    0.67
   3  -9   2    0.58    0.76
   3  -9   2   -0.20    0.74
  -4   9  -2   28.33    1.86
  -4   9  -2   27.58    1.69
  -4   9  -2   29.81    1.82
   4  -9   2   28.73    1.91
   4  -9   2   28.35    1.91
  -5   9  -2   16.36    1.59
  -5   9  -2   15.07    1.65
  -5   9  -2   19.55    1.83
  -5   9  -2   15.68    1.05
   5  -9   2   16.79    1.81
  -6   9  -2   52.73    2.56
  -6   9  -2   52.49    2.50
  -6   9  -2   48.90    1.81
   6  -9   2   52.05    2.60
  -7   9  -2   11.12    1.50
  -7   9  -2    9.88    1.40
   7  -9   2   10.10    1.40
  -8   9  -2   11.33    1.61
  -8   9  -2   11.88    1.76
   8  -9   2   18.08    2.44
   8  -9   2   10.75    2.20
   9   8  -2   13.34    1.71
  -9  -8   2   13.82    2.21
   8   8  -2    7.30    1.35
  -8  -8   2    8.99    1.29
   7   8  -2   23.74    1.94
   7   8  -2   20.48    1.85
  -7  -8   2   22.51    1.78
   6   8  -2   13.50    1.57
   6   8  -2   10.57    1.42
   6   8  -2    9.92    1.62
  -6  -8   2   10.06    1.41
  -6  -8   2   12.06    1.78
   5   8  -2   22.46    1.39
   5   8  -2   19.66    1.82
   5   8  -2   23.56    1.61
  -5  -8   2   21.89    1.40
  -5  -8   2   22.24    1.67
   4   8  -2    4.80    0.65
   4   8  -2    3.48    0.96
   4   8  -2    4.34    0.78
  -4  -8   2    4.04    0.74
  -4  -8   2    4.47    0.68
   3   8  -2   26.76    1.51
   3   8  -2   28.03    1.10
   3   8  -2   27.92    1.66
  -3  -8   2   28.10    1.16
   2   8  -2   24.90    0.92
   2   8  -2   25.42    1.41
   2   8  -2   22.84    1.52
  -2  -8   2   24.52    0.94
  -2  -8   2   25.46    1.42
  -2  -8   2   23.47    0.98
   1   8  -2   40.03    1.43
   1   8  -2   38.97    1.68
   1   8  -2   41.89    1.81
  -1  -8   2   38.78    1.33
  -1  -8   2   41.77    1.72
   0   8  -2    1.91    0.53
   0   8  -2    1.70    0.62
   0   8  -2    2.16    0.55
   0  -8   2    1.56    0.48
  -1   8  -2   17.16    1.29
  -1   8  -2   17.42    1.15
  -1   8  -2   17.14    1.24
  -2   8  -2  105.19    2.96
  -2   8  -2  111.74    3.09
  -2   8  -2  108.08    2.92
   2  -8   2  111.12    2.90
   2  -8   2  104.50    3.12
  -3   8  -2   25.00    1.43
  -3   8  -2   23.05    1.65
  -3   8  -2   24.68    1.43
   3  -8   2   24.33    1.58
   3  -8   2   22.49    1.51
  -4   8  -2    4.68    1.03
  -4   8  -2    5.36    0.84
  -4   8  -2    5.03    0.56
  -4   8  -2    4.92    0.86
   4  -8   2    4.29    0.85
   4  -8   2    4.83    0.93
  -5   8  -2   23.30    1.68
  -5   8  -2   20.91    1.66
  -5   8  -2   21.43    1.11
   5  -8   2   16.62    1.97
  -6   8  -2    3.69    0.97
  -6   8  -2    5.46    0.75
   6  -8   2    4.92    0.83
   6  -8   2    2.79    0.92
  -7   8  -2   41.54    1.94
  -7   8  -2   41.97    2.42
  -7   8  -2   46.12    2.56
   7  -8   2   46.56    2.46
   7  -8   2   38.01    2.04
  -8   8  -2    6.13    1.04
  -8   8  -2    6.36    1.42
   8  -8   2    7.23    1.32
   8  -8   2    9.75    1.35
  -9   8  -2   21.68    2.46
  -9   8  -2   28.53    2.21
   9  -8   2   30.69    2.71
   9   7  -2    5.92    1.40
  -9  -7   2    5.88    1.23
   8   7  -2    8.80    1.32
  -8  -7   2    9.36    1.31
   7   7  -2   26.82    1.84
   7   7  -2   27.09    1.89
  -7  -7   2   28.10    2.47
  -7  -7   2   24.94    1.77
   6   7  -2   -0.59    0.66
   6   7  -2   -0.26    0.70
  -6  -7   2   -0.68    0.60
   5   7  -2   32.32    1.68
   5   7  -2   32.69    1.50
  -5  -7   2   30.77    1.49
  -5  -7   2   32.39    1.71
   4   7  -2    1.76    0.78
   4   7  -2    2.27    0.53
   4   7  -2    1.78    0.60
  -4  -7   2    1.38    0.49
  -4  -7   2    2.35    0.64
   3   7  -2   58.95    2.10
   3   7  -2   54.12    1.55
   3   7  -2   53.35    1.92
  -3  -7   2   54.88    1.93
  -3  -7   2   53.16    1.60
   2   7  -2    0.29    0.48
   2   7  -2    0.17    0.48
   2   7  -2    0.17    0.31
  -2  -7   2   -0.47    0.31
  -2  -7   2   -0.05    0.48
   1   7  -2   97.45    2.72
   1   7  -2   94.39    2.59
   1   7  -2   93.45    2.26
   1   7  -2   90.99    2.00
  -1  -7   2   99.62    2.62
  -1  -7   2   95.25    2.20
  -1  -7   2   92.38    2.03
   0   7  -2    2.98    0.50
   0   7  -2    2.42    0.53
   0   7  -2    2.40    0.47
   0  -7   2    2.60    0.56
   0  -7   2    3.28    0.47
  -1   7  -2   60.79    1.98
  -1   7  -2   64.31    1.90
  -1   7  -2   65.51    2.12
   1  -7   2   65.81    1.86
   1  -7   2   65.06    2.14
  -2   7  -2    0.41    0.41
  -2   7  -2    0.81    0.43
  -2   7  -2   -0.19    0.42
   2  -7   2   -0.49    0.43
   2  -7   2    0.32    0.47
  -3   7  -2   23.69    0.83
  -3   7  -2   25.55    1.38
  -3   7  -2   24.08    1.31
  -3   7  -2   23.74    1.30
   3  -7   2   24.75    1.43
   3  -7   2   25.18    1.41
  -4   7  -2   47.72    1.93
  -4   7  -2   52.04    2.00
  -4   7  -2   50.90    1.43
   4  -7   2   52.60    2.01
   4  -7   2   50.39    2.03
  -5   7  -2    1.28    0.69
  -5   7  -2    1.61    0.49
  -5   7  -2    1.49    0.74
   5  -7   2    1.33    0.74
   5  -7   2    1.64    0.51
  -6   7  -2   45.20    2.15
  -6   7  -2   43.61    1.65
  -6   7  -2   44.17    2.07
   6  -7   2   45.24    1.72
   6  -7   2   43.70    2.14
  -7   7  -2    9.00    1.29
  -7   7  -2    5.92    0.87
  -7   7  -2    7.65    1.22
   7  -7   2    7.09    1.00
   7  -7   2    4.73    0.99
  -8   7  -2   15.04    2.26
  -8   7  -2   19.06    2.00
  -8   7  -2   15.57    1.62
   8  -7   2   12.93    1.90
   8  -7   2   16.41    1.92
  -9   7  -2   11.91    1.95
  -9   7  -2   14.37    2.07
   9  -7   2   15.08    2.22
  10   6  -2    6.50    1.54
 -10  -6   2    5.86    1.41
   9   6  -2   -0.39    1.15
  -9  -6   2   -0.97    1.00
   8   6  -2   22.61    1.94
   8   6  -2   26.88    2.16
  -8  -6   2   22.32    1.87
   7   6  -2   18.29    1.64
   7   6  -2   18.36    1.73
  -7  -6   2   16.16    1.74
  -7  -6   2   18.11    1.59
   6   6  -2   27.47    1.60
   6   6  -2   28.63    1.54
  -6  -6   2   25.73    1.54
  -6  -6   2   27.53    1.69
   5   6  -2    0.33    0.52
   5   6  -2    1.42    0.55
  -5  -6   2    0.85    0.58
  -5  -6   2    1.18    0.55
   4   6  -2    1.20    0.43
   4   6  -2    0.71    0.52
  -4  -6   2    1.27    0.50
  -4  -6   2    0.02    0.41
   3   6  -2    1.50    0.54
   3   6  -2    1.55    0.39
  -3  -6   2    2.41    0.56
  -3  -6   2    1.76    0.44
   2   6  -2   38.82    1.86
   2   6  -2   40.40    1.17
   2   6  -2   41.19    1.51
  -2  -6   2   41.02    1.21
   1   6  -2   16.85    1.21
   1   6  -2   18.09    0.82
   1   6  -2   16.74    0.68
   1   6  -2   16.95    1.01
  -1  -6   2   15.91    0.66
  -1  -6   2   17.47    0.73
  -1  -6   2   16.84    1.00
   0   6  -2   51.17    1.48
   0   6  -2   52.75    1.68
   0   6  -2   53.12    1.77
   0  -6   2   54.68    1.70
   0  -6   2   52.81    1.45
  -1   6  -2    1.47    0.54
  -1   6  -2    1.99    0.41
  -1   6  -2    1.42    0.37
   1  -6   2    1.45    0.47
   1  -6   2    1.85    0.39
  -2   6  -2  167.92    3.36
  -2   6  -2  178.62    3.88
  -2   6  -2  174.47    3.41
  -2   6  -2  169.47    3.90
  -2   6  -2  156.01    4.31
   2  -6   2  191.62    3.90
   2  -6   2  177.86    4.06
  -3   6  -2   14.41    1.06
  -3   6  -2   15.27    0.67
  -3   6  -2   15.21    1.04
  -3   6  -2   16.31    1.08
   3  -6   2   18.23    1.12
   3  -6   2   14.08    1.10
  -4   6  -2   44.93    1.75
  -4   6  -2   49.13    1.82
  -4   6  -2   48.56    1.38
   4  -6   2   48.37    1.82
   4  -6   2   47.24    1.81
   4  -6   2   47.64    1.39
  -5   6  -2    0.99    0.65
  -5   6  -2    0.28    0.57
  -5   6  -2    0.56    0.41
   5  -6   2    0.56    0.45
   5  -6   2    0.38    0.70
  -6   6  -2   61.19    2.24
  -6   6  -2   60.51    1.93
   6  -6   2   61.53    2.29
   6  -6   2   63.09    1.98
  -7   6  -2    0.92    0.64
  -7   6  -2    1.86    0.87
  -7   6  -2    1.11    0.76
   7  -6   2    0.50    0.69
   7  -6   2   -0.12    0.70
  -8   6  -2   45.83    2.38
  -8   6  -2   48.93    2.51
  -8   6  -2   49.16    2.50
   8  -6   2   49.82    2.23
   8  -6   2   48.31    2.34
  -9   6  -2    1.53    1.29
  -9   6  -2    1.83    1.10
  -9   6  -2    3.15    1.03
   9  -6   2    3.89    1.17
   9  -6   2    1.80    1.46
 -10   6  -2   12.45    1.46
 -10   6  -2   13.63    2.41
  10  -6   2   15.92    2.36
  10   5  -2    3.45    1.36
 -10  -5   2    3.74    1.21
   9   5  -2    1.11    1.08
  -9  -5   2    4.89    1.14
   8   5  -2   42.84    2.33
   8   5  -2   40.26    3.34
  -8  -5   2   42.71    2.21
   7   5  -2    3.86    0.89
   7   5  -2    3.51    0.89
   6   5  -2  110.89    3.07
   6   5  -2  114.06    2.99
  -6  -5   2  109.46    3.03
   5   5  -2    1.70    0.57
   5   5  -2    1.78    0.57
  -5  -5   2    0.47    0.52
  -5  -5   2    1.53    0.52
   4   5  -2  125.26    3.06
   4   5  -2  120.89    2.87
  -4  -5   2  125.25    3.07
  -4  -5   2  119.70    2.91
   3   5  -2    0.64    0.34
   3   5  -2    0.16    0.36
  -3  -5   2    0.52    0.44
  -3  -5   2    0.05    0.33
   2   5  -2  126.85    3.00
   2   5  -2  127.56    2.71
  -2  -5   2  124.96    2.73
  -2  -5   2  129.90    2.99
   1   5  -2  108.11    2.28
   1   5  -2  110.81    2.72
   1   5  -2  110.42    2.32
   1   5  -2  110.45    2.64
  -1  -5   2  107.85    2.30
  -1  -5   2  108.31    2.26
  -1  -5   2  109.33    2.60
   0   5  -2    1.20    0.31
   0   5  -2   -0.09    0.29
   0   5  -2    0.42    0.20
   0   5  -2    0.52    0.31
   0  -5   2    0.26    0.29
   0  -5   2    0.75    0.21
   0  -5   2    0.76    0.26
  -1   5  -2  176.84    3.42
  -1   5  -2  172.35    3.45
  -1   5  -2  184.04    3.97
  -1   5  -2  185.58    3.78
  -1   5  -2  171.07    3.84
   1  -5   2  179.22    3.99
   1  -5   2  190.10    3.76
  -2   5  -2    3.61    0.64
  -2   5  -2    4.23    0.37
  -2   5  -2    4.72    0.67
  -2   5  -2    3.94    0.61
   2  -5   2    3.04    0.49
   2  -5   2    3.81    0.65
  -3   5  -2   95.08    2.48
  -3   5  -2   94.24    2.08
  -3   5  -2   95.10    2.48
   3  -5   2   93.38    2.51
   3  -5   2   96.85    2.46
  -4   5  -2    1.07    0.33
  -4   5  -2    1.69    0.49
  -4   5  -2    1.70    0.80
   4  -5   2    1.17    0.43
   4  -5   2    1.07    0.35
  -5   5  -2   68.48    2.22
  -5   5  -2   65.34    1.83
  -5   5  -2   68.67    2.12
   5  -5   2   66.25    2.15
   5  -5   2   69.22    1.86
  -6   5  -2   -0.44    0.55
  -6   5  -2    0.50    0.48
  -6   5  -2    0.73    0.61
   6  -5   2    0.57    0.54
   6  -5   2    0.44    0.57
  -7   5  -2   43.10    1.76
  -7   5  -2   43.91    1.99
   7  -5   2   45.82    1.99
   7  -5   2   44.54    1.81
  -8   5  -2   12.33    1.69
  -8   5  -2   14.66    1.83
   8  -5   2   14.13    1.62
   8  -5   2   12.46    1.57
  -9   5  -2   13.58    1.80
  -9   5  -2   10.63    1.74
  -9   5  -2    8.69    1.48
   9  -5   2   11.04    1.80
   9  -5   2   16.32    2.08
 -10   5  -2   24.45    2.34
 -10   5  -2   15.93    2.76
 -10   5  -2   24.89    2.20
  10  -5   2   24.80    2.35
  10   4  -2    1.68    1.33
 -10  -4   2    0.75    1.08
   9   4  -2   26.62    2.30
  -9  -4   2   34.02    2.22
  -9  -4   2   36.64    2.22
   8   4  -2    0.11    0.78
   8   4  -2    1.85    0.91
  -8  -4   2   -0.12    0.75
  -8  -4   2   -0.11    0.75
   7   4  -2   67.97    2.38
   7   4  -2   69.78    2.44
  -7  -4   2   70.74    2.35
  -7  -4   2   66.32    2.85
   6   4  -2    1.30    0.60
   6   4  -2    1.93    0.65
  -6  -4   2    1.82    0.62
  -6  -4   2    1.86    0.63
   5   4  -2  104.23    2.76
   5   4  -2  103.43    2.68
  -5  -4   2  103.99    2.72
  -5  -4   2  102.79    2.70
   4   4  -2   15.63    0.92
   4   4  -2   16.31    1.01
  -4  -4   2   15.36    0.96
   3   4  -2   45.10    1.48
   3   4  -2   43.71    1.34
  -3  -4   2   46.88    1.48
  -3  -4   2   44.15    1.37
   2   4  -2   55.80    1.45
   2   4  -2   54.70    1.61
  -2  -4   2   55.75    1.59
  -2  -4   2   59.97    1.49
   1   4  -2  259.14    5.10
   1   4  -2  253.76    4.84
  -1  -4   2  248.96    4.85
  -1  -4   2  251.09    5.07
   0   4  -2   23.23    1.00
   0   4  -2   23.47    0.73
   0   4  -2   24.71    0.96
   0   4  -2   25.45    0.82
   0  -4   2   25.07    0.95
   0  -4   2   25.58    0.79
   0  -4   2   23.16    0.71
  -1   4  -2  114.46    2.65
  -1   4  -2  114.49    2.49
  -1   4  -2  109.08    2.23
  -1   4  -2  111.29    2.26
  -1   4  -2  109.81    2.56
   1  -4   2  117.37    2.48
   1  -4   2  112.30    2.65
  -2   4  -2   57.33    1.66
  -2   4  -2   58.59    1.35
  -2   4  -2   61.33    1.65
   2  -4   2   62.20    1.65
   2  -4   2   59.90    1.70
  -3   4  -2   57.64    1.41
  -3   4  -2   57.69    1.71
  -3   4  -2   56.63    1.66
   3  -4   2   57.54    1.68
   3  -4   2   56.86    1.42
   3  -4   2   54.98    1.67
  -4   4  -2   66.87    1.98
  -4   4  -2   64.69    1.66
  -4   4  -2   65.28    1.87
   4  -4   2   65.29    1.91
   4  -4   2   65.97    1.68
  -5   4  -2    7.96    0.75
  -5   4  -2    7.80    0.86
  -5   4  -2    5.57    0.75
   5  -4   2    8.31    0.89
   5  -4   2    8.87    0.76
  -6   4  -2    0.26    0.56
  -6   4  -2    0.58    0.51
  -6   4  -2    1.00    0.54
   6  -4   2    0.37    0.48
   6  -4   2    1.09    0.47
  -7   4  -2    8.02    1.31
  -7   4  -2    7.79    1.28
  -7   4  -2    8.41    1.10
   7  -4   2    8.52    1.11
   7  -4   2    7.99    1.16
  -8   4  -2    0.75    0.83
  -8   4  -2    0.57    1.21
  -8   4  -2    0.83    0.76
   8  -4   2    2.53    0.81
   8  -4   2    0.22    0.80
  -9   4  -2   30.56    1.96
  -9   4  -2   30.59    2.16
  -9   4  -2   30.89    2.07
   9  -4   2   27.99    2.17
   9  -4   2   34.97    2.00
 -10   4  -2   -2.30    1.22
 -10   4  -2    0.54    1.03
 -10   4  -2   -0.23    1.02
  10  -4   2    0.10    1.00
 -11   4  -2   11.40    1.53
  11  -4   2   16.53    2.51
  10   3  -2    6.56    1.40
 -10  -3   2    6.30    1.26
 -10  -3   2    4.21    1.00
   9   3  -2   48.09    2.48
  -9  -3   2   44.37    2.02
  -9  -3   2   46.88    2.35
  -9  -3   2   43.74    1.87
  -9  -3   2   47.35    2.35
   8   3  -2    0.06    0.87
   8   3  -2    0.64    0.82
  -8  -3   2    0.96    0.70
  -8  -3   2    0.66    0.74
  -8  -3   2    0.46    0.54
  -8  -3   2    0.52    0.61
   7   3  -2   75.33    2.52
   7   3  -2   74.92    2.51
  -7  -3   2   75.43    2.55
  -7  -3   2   77.74    2.39
   6   3  -2   30.45    1.52
   6   3  -2   29.76    1.52
  -6  -3   2   29.63    1.39
  -6  -3   2   28.44    1.45
   5   3  -2  169.29    3.82
   5   3  -2  167.75    3.86
  -5  -3   2  167.80    3.86
  -5  -3   2  170.64    3.89
   4   3  -2   13.06    0.89
   4   3  -2   12.18    0.86
  -4  -3   2   11.17    0.84
  -4  -3   2   12.86    0.84
   3   3  -2    4.34    0.63
   3   3  -2    4.04    0.60
  -3  -3   2    4.48    0.61
  -3  -3   2    4.07    0.49
   2   3  -2  185.46    3.71
   2   3  -2  180.77    3.84
  -2  -3   2  181.39    3.79
  -2  -3   2  187.22    3.73
   1   3  -2    7.28    0.49
   1   3  -2    7.16    0.59
   1   3  -2    8.17    0.58
  -1  -3   2    7.71    0.55
  -1  -3   2    7.64    0.49
   0   3  -2  417.00    7.64
   0   3  -2  416.75    7.64
   0   3  -2  412.79    7.82
   0  -3   2  413.56    7.81
   0  -3   2  404.66    7.63
   0  -3   2  423.97    7.64
  -1   3  -2   42.35    1.01
  -1   3  -2   41.49    1.23
  -1   3  -2   39.88    1.17
  -1   3  -2   43.08    1.17
   1  -3   2   41.01    1.24
   1  -3   2   44.76    1.15
  -2   3  -2  309.31    5.99
  -2   3  -2  306.06    5.76
  -2   3  -2  295.82    5.98
   2  -3   2  311.70    6.03
   2  -3   2  316.02    6.00
  -3   3  -2   15.47    0.65
  -3   3  -2   15.78    0.85
  -3   3  -2   14.92    0.79
   3  -3   2   17.10    0.68
   3  -3   2   15.40    0.79
  -4   3  -2  137.41    3.15
  -4   3  -2  144.73    3.31
  -4   3  -2  143.36    3.05
   4  -3   2  146.09    3.07
   4  -3   2  144.11    3.21
  -5   3  -2  282.83    5.73
  -5   3  -2  288.10    5.83
  -5   3  -2  286.45    5.99
   5  -3   2  289.08    5.74
   5  -3   2  284.83    5.85
  -6   3  -2   11.61    1.04
  -6   3  -2   10.04    1.07
  -6   3  -2    9.67    0.88
   6  -3   2    9.94    0.94
   6  -3   2   11.79    0.98
  -7   3  -2   37.64    1.76
  -7   3  -2   35.29    1.70
  -7   3  -2   38.39    1.63
   7  -3   2   36.71    1.58
   7  -3   2   34.64    1.59
  -8   3  -2   36.22    1.84
  -8   3  -2   35.51    1.92
  -8   3  -2   35.21    1.88
   8  -3   2   32.92    1.77
   8  -3   2   35.29    1.81
  -9   3  -2   41.47    2.52
  -9   3  -2   41.35    2.23
  -9   3  -2   41.35    2.18
  -9   3  -2   44.97    2.19
   9  -3   2   44.40    2.27
   9  -3   2   45.22    2.09
 -10   3  -2    7.25    1.18
 -10   3  -2    6.28    1.20
 -11   3  -2    7.97    1.41
 -11   3  -2   12.24    1.55
  11  -3   2    7.87    1.40
  10   2  -2   22.65    2.25
 -10  -2   2   16.35    2.32
 -10  -2   2   20.26    2.04
 -10  -2   2   18.84    1.86
 -10  -2   2   19.61    2.53
   9   2  -2    0.20    1.00
  -9  -2   2    1.96    0.89
  -9  -2   2    1.31    0.96
  -9  -2   2   -0.73    0.84
  -9  -2   2    0.65    0.80
   8   2  -2   85.01    2.87
   8   2  -2   85.61    2.89
  -8  -2   2   85.07    2.40
  -8  -2   2   87.48    2.70
  -8  -2   2   83.12    2.82
   7   2  -2   -0.34    0.60
   7   2  -2   -0.01    0.68
  -7  -2   2   -0.58    0.45
  -7  -2   2    0.57    0.47
  -7  -2   2    0.16    0.59
  -7  -2   2    0.12    0.62
   6   2  -2   86.15    2.49
   6   2  -2   87.45    2.54
  -6  -2   2   87.46    2.42
  -6  -2   2   86.81    2.52
  -6  -2   2   88.23    2.16
  -6  -2   2   82.48    2.08
   5   2  -2   12.31    0.92
   5   2  -2   11.13    1.07
  -5  -2   2   11.06    0.67
  -5  -2   2   11.37    0.93
  -5  -2   2   12.21    0.89
   4   2  -2  117.69    2.78
   4   2  -2  117.42    2.75
  -4  -2   2  116.72    2.77
  -4  -2   2  117.92    2.74
   3   2  -2    0.24    0.29
   3   2  -2    0.26    0.30
  -3  -2   2    0.18    0.25
  -3  -2   2   -0.19    0.28
   2   2  -2    0.73    0.28
   2   2  -2    0.42    0.26
  -2  -2   2    0.43    0.27
  -2  -2   2    0.75    0.26
   1   2  -2   -0.06    0.17
   1   2  -2    0.01    0.20
  -1  -2   2    0.00    0.18
  -1  -2   2    0.10    0.17
   0   2  -2   72.46    1.58
   0   2  -2   80.02    1.63
   0   2  -2   76.28    1.69
   0  -2   2   78.14    1.69
   0  -2   2   78.98    1.63
  -1   2  -2    3.72    0.30
  -1   2  -2    3.44    0.39
  -1   2  -2    3.30    0.34
  -1   2  -2    4.08    0.38
   1  -2   2    3.64    0.42
  -2   2  -2   13.09    0.58
  -2   2  -2   12.59    0.63
  -2   2  -2   12.73    0.50
   2  -2   2   13.51    0.53
   2  -2   2   12.91    0.61
  -3   2  -2   60.24    1.45
  -3   2  -2   59.34    1.51
  -3   2  -2   57.06    1.59
   3  -2   2   59.37    1.52
   3  -2   2   61.52    1.45
  -4   2  -2  159.57    3.43
  -4   2  -2  163.35    3.61
  -4   2  -2  167.09    3.43
   4  -2   2  163.53    3.46
   4  -2   2  164.88    3.42
  -5   2  -2    0.63    0.35
  -5   2  -2    1.00    0.39
  -5   2  -2    0.48    0.40
   5  -2   2    0.91    0.38
   5  -2   2    0.56    0.35
  -6   2  -2    1.66    0.53
  -6   2  -2    1.53    0.45
  -6   2  -2    0.91    0.49
   6  -2   2    0.79    0.49
   6  -2   2    1.47    0.45
  -7   2  -2   57.02    2.06
  -7   2  -2   60.23    2.00
  -7   2  -2   59.50    2.00
   7  -2   2   59.35    2.00
   7  -2   2   59.63    1.90
  -8   2  -2   34.84    1.72
  -8   2  -2   32.39    1.68
  -8   2  -2   35.04    1.84
   8  -2   2   34.40    1.58
   8  -2   2   33.92    1.73
  -9   2  -2    5.56    0.97
  -9   2  -2   10.31    1.75
  -9   2  -2    6.06    1.12
  -9   2  -2    6.70    1.03
   9  -2   2    5.14    0.91
   9  -2   2    5.80    1.06
 -10   2  -2   40.13    2.36
 -10   2  -2   41.21    2.36
 -10   2  -2   41.69    2.31
  10  -2   2   41.22    2.34
 -11   2  -2    9.37    1.35
 -11   2  -2    7.20    1.32
  11  -2   2    9.40    1.39
  10   1  -2   11.64    1.98
 -10  -1   2    9.24    1.45
 -10  -1   2    8.76    1.28
 -10  -1   2    9.67    1.38
 -10  -1   2   11.96    1.83
   9   1  -2   13.14    2.00
  -9  -1   2   15.16    1.54
  -9  -1   2   16.30    1.73
  -9  -1   2   18.30    1.88
  -9  -1   2   15.75    1.77
   8   1  -2   45.78    2.17
   8   1  -2   48.26    2.21
  -8  -1   2   46.65    1.84
  -8  -1   2   47.59    2.10
  -8  -1   2   44.73    1.90
  -8  -1   2   48.70    2.04
   7   1  -2   32.09    1.75
   7   1  -2   31.35    1.65
  -7  -1   2   31.31    1.67
  -7  -1   2   34.55    1.45
  -7  -1   2   32.15    1.37
  -7  -1   2   34.75    1.56
   6   1  -2   10.97    1.08
   6   1  -2   10.43    1.23
  -6  -1   2   10.54    1.06
  -6  -1   2   10.23    0.82
  -6  -1   2   10.15    0.98
  -6  -1   2   10.83    0.84
   5   1  -2   97.10    2.50
   5   1  -2   95.30    2.58
  -5  -1   2   93.94    2.19
  -5  -1   2   96.79    2.44
  -5  -1   2   94.89    2.49
   4   1  -2   65.81    1.84
   4   1  -2   66.88    1.82
  -4  -1   2   63.42    1.76
  -4  -1   2   64.92    1.81
  -4  -1   2   60.90    1.51
   3   1  -2    6.80    0.64
   3   1  -2    8.34    0.75
  -3  -1   2    6.55    0.43
  -3  -1   2    6.35    0.60
  -3  -1   2    6.68    0.63
   2   1  -2  370.03    7.17
   2   1  -2  384.43    7.14
  -2  -1   2  374.55    7.16
  -2  -1   2  383.24    7.14
   1   1  -2    0.15    0.19
   1   1  -2    0.50    0.19
  -1  -1   2    0.45    0.16
  -1  -1   2    0.31    0.18
  -1  -1   2    0.42    0.19
   0   1  -2  115.87    2.26
   0   1  -2  112.88    2.40
   0   1  -2  123.17    2.37
   0   1  -2  118.71    2.37
   0  -1   2  124.68    2.34
   0  -1   2  120.86    2.37
  -1   1  -2   21.58    0.67
  -2   1  -2  307.12    5.74
  -2   1  -2  305.37    5.72
   2  -1   2  297.31    5.74
   2  -1   2  317.27    5.74
  -3   1  -2   39.02    1.07
  -3   1  -2   38.41    1.03
  -3   1  -2   37.71    1.16
   3  -1   2   38.25    1.03
   3  -1   2   39.63    1.07
  -4   1  -2  419.59    7.86
  -4   1  -2  417.16    7.78
  -4   1  -2  398.03    7.97
   4  -1   2  414.89    7.84
   4  -1   2  414.61    7.78
  -5   1  -2   48.08    1.43
  -5   1  -2   47.47    1.45
  -5   1  -2   45.72    1.51
   5  -1   2   47.92    1.45
   5  -1   2   48.16    1.37
  -6   1  -2   79.23    2.20
  -6   1  -2   80.57    2.29
  -6   1  -2   83.11    2.15
   6  -1   2   81.11    2.09
   6  -1   2   84.88    2.24
  -7   1  -2    2.96    0.64
  -7   1  -2    4.27    0.74
  -7   1  -2    2.12    0.53
  -7   1  -2    3.19    0.64
   7  -1   2    3.18    0.62
   7  -1   2    2.39    0.52
  -8   1  -2    6.75    1.38
  -8   1  -2    7.58    1.17
  -8   1  -2    8.36    1.32
  -8   1  -2    8.21    1.28
   8  -1   2    7.67    1.19
   8  -1   2    5.80    0.99
  -9   1  -2   48.63    2.19
  -9   1  -2   48.86    2.01
  -9   1  -2   50.17    2.22
  -9   1  -2   47.52    2.35
   9  -1   2   41.61    2.23
   9  -1   2   45.51    1.89
 -10   1  -2    9.38    1.19
 -10   1  -2   12.91    1.72
 -10   1  -2    8.01    1.26
  10  -1   2   12.01    1.57
 -11   1  -2   22.08    2.19
 -11   1  -2   22.42    2.25
  11  -1   2   22.72    2.18
  11   0  -2   15.76    2.40
  10   0  -2    4.11    1.15
 -10   0   2    2.25    1.06
 -10   0   2    2.49    1.09
 -10   0   2    2.80    1.31
 -10   0   2   -0.32    1.26
   9   0  -2    9.92    1.67
  -9   0   2   11.34    1.59
  -9   0   2    9.59    1.70
  -9   0   2    9.01    1.22
  -9   0   2   11.51    1.63
   8   0  -2    1.55    0.86
   8   0  -2    0.23    0.74
  -8   0   2    1.34    0.77
  -8   0   2    0.90    0.64
  -8   0   2    1.22    0.70
  -8   0   2    1.92    0.78
   7   0  -2    7.16    0.91
   7   0  -2    7.24    0.96
  -7   0   2    7.58    1.02
  -7   0   2    6.75    0.87
  -7   0   2    7.92    1.13
   6   0  -2   18.56    1.34
   6   0  -2   18.29    1.20
  -6   0   2   17.30    1.18
  -6   0   2   18.01    1.03
  -6   0   2   19.38    1.16
   5   0  -2    9.45    0.99
   5   0  -2   10.33    0.89
  -5   0   2   10.26    0.86
  -5   0   2   10.17    0.88
  -5   0   2    9.57    0.72
   4   0  -2   95.16    2.32
   4   0  -2   93.54    2.35
  -4   0   2   93.13    2.32
  -4   0   2   90.46    2.11
  -4   0   2   94.89    2.29
   3   0  -2   38.20    1.27
   3   0  -2   35.82    1.01
   3   0  -2   37.64    1.19
  -3   0   2   38.12    1.19
  -3   0   2   35.71    1.17
  -3   0   2   36.72    1.01
   2   0  -2    5.88    0.34
   2   0  -2    6.11    0.48
   2   0  -2    5.40    0.51
   1   0  -2  383.92    6.95
   1   0  -2  373.72    6.97
   1   0  -2  368.25    6.78
  -1   0   2  375.43    6.95
  -1   0   2  368.68    6.95
   0   0  -2    2.77    0.35
   0   0   2    2.24    0.23
   0   0   2    1.76    0.21
   1   0   2  811.98   15.04
  -2   0  -2    0.44    0.14
   2   0   2    0.59    0.15
  -3   0  -2  255.38    5.07
  -3   0  -2  278.69    4.95
  -3   0  -2  254.29    5.17
   3   0   2  270.51    4.95
   3   0   2  262.44    5.07
  -4   0  -2    6.59    0.58
  -4   0  -2    5.83    0.63
  -4   0  -2    5.41    0.60
   4   0   2    4.50    0.46
   4   0   2    6.23    0.55
  -5   0  -2  156.02    3.29
  -5   0  -2  161.29    3.48
  -5   0  -2  163.42    3.59
  -5   0  -2  156.38    3.52
   5   0   2  160.46    3.29
   5   0   2  159.69    3.47
  -6   0  -2    1.99    0.45
  -6   0  -2    2.85    0.44
  -6   0  -2    3.20    0.64
  -6   0  -2    2.31    0.49
   6   0   2    2.62    0.53
   6   0   2    1.82    0.39
  -7   0  -2    2.26    0.51
  -7   0  -2    1.57    0.56
  -7   0  -2    2.33    0.63
  -7   0  -2    2.45    0.60
   7   0   2    1.83    0.58
   7   0   2    2.59    0.49
  -8   0  -2   15.37    1.19
  -8   0  -2   17.13    1.34
  -8   0  -2   18.19    1.34
  -8   0  -2   17.71    1.47
   8   0   2   17.51    1.15
   8   0   2   16.70    1.33
  -9   0  -2    6.78    0.95
  -9   0  -2    5.82    1.05
  -9   0  -2    6.90    0.88
   9   0   2    6.69    1.07
   9   0   2    8.16    1.18
 -10   0  -2    7.22    1.03
 -10   0  -2   11.82    1.66
 -10   0  -2    6.66    1.15
 -10   0  -2    6.28    1.33
  10   0   2    7.36    1.00
 -11   0  -2    8.45    1.33
 -11   0  -2    6.41    1.22
  11   0   2    8.35    1.25
 -10   1   2    5.21    1.18
 -10   1   2    6.61    1.52
 -10   1   2    4.60    1.11
 -10   1   2    4.74    1.71
   9  -1  -2   18.70    1.74
  -9   1   2   17.51    1.95
  -9   1   2   20.55    1.89
  -9   1   2   19.46    1.77
  -9   1   2   19.27    1.80
   8  -1  -2   48.49    2.25
   8  -1  -2   47.64    2.11
  -8   1   2   48.03    2.13
  -8   1   2   47.68    1.98
  -8   1   2   48.01    2.15
   7  -1  -2    1.97    0.64
   7  -1  -2    0.74    0.69
  -7   1   2    2.33    0.66
  -7   1   2    1.48    0.62
  -7   1   2    0.50    0.73
   6  -1  -2   19.22    1.36
   6  -1  -2   22.78    1.30
  -6   1   2   21.71    1.27
  -6   1   2   24.30    1.21
  -6   1   2   21.83    1.28
   5  -1  -2    1.23    0.53
   5  -1  -2    0.71    0.45
  -5   1   2    0.68    0.45
  -5   1   2    1.03    0.41
  -5   1   2    1.10    0.41
   4  -1  -2   29.18    1.26
   4  -1  -2   26.38    1.01
  -4   1   2   28.67    1.03
  -4   1   2   28.68    1.14
  -4   1   2   26.98    1.11
   3  -1  -2  105.03    2.37
   3  -1  -2  111.58    2.57
   3  -1  -2  110.21    2.47
  -3   1   2  113.40    2.52
  -3   1   2  106.08    2.47
  -3   1   2  109.36    2.38
   2  -1  -2  408.98    7.72
   2  -1  -2  410.19    7.60
   2  -1  -2  404.82    7.67
  -2   1   2  403.49    7.68
  -2   1   2  411.62    7.61
  -2   1   2  418.91    7.72
   1  -1  -2   67.26    1.50
   1  -1  -2   63.81    1.45
   1  -1  -2   64.46    1.40
  -1   1   2   60.97    1.44
  -1   1   2   66.68    1.48
  -1   1   2   69.62    1.43
  -3  -1  -2   59.45    1.50
   3   1   2   61.18    1.44
  -4  -1  -2  300.55    5.91
  -4  -1  -2  298.79    5.85
   4   1   2  301.33    5.84
  -5  -1  -2   29.24    1.11
  -5  -1  -2   30.43    0.93
  -5  -1  -2   30.10    1.17
   5   1   2   28.93    0.94
  -6  -1  -2   93.08    2.42
  -6  -1  -2   90.98    2.39
  -6  -1  -2   92.79    2.14
  -6  -1  -2   94.66    2.47
   6   1   2   94.19    2.42
   6   1   2   91.87    2.17
  -7  -1  -2    0.10    0.38
  -7  -1  -2    0.52    0.51
  -7  -1  -2   -0.01    0.42
  -7  -1  -2   -0.65    0.44
   7   1   2    0.28    0.46
   7   1   2   -0.41    0.36
  -8  -1  -2   29.51    1.64
  -8  -1  -2   28.07    1.56
  -8  -1  -2   27.49    1.24
  -8  -1  -2   26.82    1.48
   8   1   2   27.01    1.54
   8   1   2   26.42    1.27
  -9  -1  -2    1.60    0.77
  -9  -1  -2    2.94    0.77
  -9  -1  -2    3.53    0.94
   9   1   2    3.20    0.85
   9   1   2    2.83    0.69
 -10  -1  -2   56.79    2.69
 -10  -1  -2   58.30    2.11
 -10  -1  -2   57.47    2.52
 -10  -1  -2   58.86    2.45
  10   1   2   60.49    2.20
 -11  -1  -2    6.90    1.21
 -11  -1  -2    5.48    1.16
 -11  -1  -2    5.06    1.75
  11   1   2    5.80    1.05
  10  -2  -2    1.62    1.01
 -10   2   2   -1.00    1.05
 -10   2   2   -0.22    0.99
   9  -2  -2    2.18    0.85
  -9   2   2    2.54    1.08
  -9   2   2    1.69    0.92
  -9   2   2    3.29    0.93
   8  -2  -2    4.69    0.96
   8  -2  -2    4.50    1.32
  -8   2   2    4.45    0.92
  -8   2   2    3.16    0.89
  -8   2   2    4.40    0.85
   7  -2  -2   44.28    1.88
   7  -2  -2   40.98    1.88
  -7   2   2   45.04    1.95
  -7   2   2   43.37    1.82
  -7   2   2   45.12    1.99
   6  -2  -2   43.26    1.76
   6  -2  -2   45.39    1.72
  -6   2   2   44.14    1.71
  -6   2   2   47.15    1.80
  -6   2   2   44.86    1.68
   5  -2  -2   34.23    1.32
   5  -2  -2   34.63    1.45
   5  -2  -2   34.52    1.35
  -5   2   2   36.49    1.44
  -5   2   2   33.98    1.37
  -5   2   2   34.45    1.33
   4  -2  -2  461.44    8.94
   4  -2  -2  463.09    8.85
   4  -2  -2  462.69    8.85
  -4   2   2  480.53    8.95
  -4   2   2  445.52    8.85
  -4   2   2  455.09    8.83
   3  -2  -2    1.82    0.36
   3  -2  -2    1.11    0.40
   3  -2  -2    1.75    0.35
  -3   2   2    1.94    0.45
  -3   2   2    1.78    0.36
  -3   2   2    1.60    0.35
   2  -2  -2  762.11   14.12
   2  -2  -2  755.38   14.18
   2  -2  -2  780.56   14.10
  -2   2   2  736.42   14.09
  -2   2   2  800.52   14.14
  -2   2   2  793.47   14.20
   1  -2  -2    2.42    0.39
   1  -2  -2    2.27    0.34
   1  -2  -2    1.88    0.31
  -1   2   2    2.08    0.33
  -1   2   2    2.71    0.38
  -1   2   2    3.14    0.41
   0  -2  -2 1000.00   17.69
   0  -2  -2  919.73   17.46
   0  -2  -2  967.36   17.85
   0   2   2  936.33   17.43
   0   2   2  967.82   17.59
   0   2   2  967.73   17.81
  -1  -2  -2   49.66    1.19
  -1  -2  -2   53.58    1.07
   1   2   2   49.25    1.20
   1   2   2   51.66    1.07
  -2  -2  -2  196.71    3.77
  -2  -2  -2  199.61    3.83
   2   2   2  194.35    3.83
   2   2   2  197.94    3.76
  -3  -2  -2    6.16    0.46
  -3  -2  -2    5.66    0.48
   3   2   2    6.27    0.44
   3   2   2    5.81    0.49
  -4  -2  -2    1.29    0.34
  -4  -2  -2    1.58    0.34
   4   2   2    1.30    0.31
  -5  -2  -2    6.42    0.67
  -5  -2  -2    7.70    0.73
  -5  -2  -2    6.21    0.48
   5   2   2    6.04    0.65
   5   2   2    6.67    0.61
  -6  -2  -2    4.63    0.52
  -6  -2  -2    3.81    0.55
  -6  -2  -2    4.27    0.60
   6   2   2    3.56    0.54
   6   2   2    3.64    0.46
  -7  -2  -2   -0.32    0.46
  -7  -2  -2    0.01    0.46
  -7  -2  -2    0.13    0.36
  -7  -2  -2   -0.12    0.46
   7   2   2   -0.32    0.42
   7   2   2   -0.50    0.46
  -8  -2  -2    2.35    0.49
  -8  -2  -2    1.45    0.63
  -8  -2  -2    1.21    0.63
  -8  -2  -2    2.17    0.96
   8   2   2    1.25    0.60
   8   2   2    1.45    0.53
  -9  -2  -2   38.62    1.87
  -9  -2  -2   37.50    1.96
  -9  -2  -2   38.40    1.57
  -9  -2  -2   36.28    1.94
   9   2   2   37.08    1.58
   9   2   2   37.55    1.97
 -10  -2  -2   15.34    1.70
 -10  -2  -2   11.72    1.68
 -10  -2  -2   14.28    1.40
 -10  -2  -2   12.90    1.93
  10   2   2   14.08    1.36
 -11  -2  -2    6.53    1.28
 -11  -2  -2    6.35    1.17
  11   2   2    6.40    1.06
 -10   3   2    3.42    1.16
 -10   3   2    2.42    1.16
   9  -3  -2   11.62    1.64
  -9   3   2    8.20    1.18
  -9   3   2    8.77    1.18
  -9   3   2    6.91    1.35
   8  -3  -2    3.80    0.99
   8  -3  -2    4.83    1.47
  -8   3   2    4.69    1.11
  -8   3   2    5.04    0.91
  -8   3   2    5.61    1.62
   7  -3  -2   40.63    1.78
   7  -3  -2   34.80    1.78
  -7   3   2   41.19    1.92
  -7   3   2   37.73    1.78
  -7   3   2   37.14    1.78
   6  -3  -2   10.23    1.18
   6  -3  -2   12.95    1.11
  -6   3   2   12.30    1.12
  -6   3   2   11.26    1.27
  -6   3   2   11.94    1.12
   5  -3  -2   29.69    1.37
   5  -3  -2   30.58    1.32
  -5   3   2   29.12    1.29
  -5   3   2   29.54    1.28
  -5   3   2   30.38    1.52
   4  -3  -2    4.20    0.63
   4  -3  -2    7.57    0.75
  -4   3   2    6.38    0.91
  -4   3   2    6.12    0.72
  -4   3   2    4.82    0.68
   3  -3  -2   66.13    1.69
   3  -3  -2   66.37    1.78
  -3   3   2   63.26    1.68
  -3   3   2   66.73    1.79
  -3   3   2   69.09    1.89
   2  -3  -2   85.22    2.04
   2  -3  -2   81.46    1.85
   2  -3  -2   81.87    1.98
  -2   3   2   85.13    2.05
  -2   3   2   82.89    1.98
  -2   3   2   80.17    1.86
   1  -3  -2   53.03    1.23
   1  -3  -2   54.22    1.37
  -1   3   2   51.46    1.23
  -1   3   2   55.00    1.39
   0  -3  -2   37.51    0.91
   0  -3  -2   37.92    1.02
   0  -3  -2   39.56    1.00
   0  -3  -2   35.67    0.85
   0   3   2   37.17    0.92
   0   3   2   34.08    0.87
   0   3   2   38.96    0.99
   0   3   2   36.81    1.03
  -1  -3  -2  222.57    4.21
  -1  -3  -2  220.48    4.28
  -1  -3  -2  215.76    4.20
   1   3   2  226.81    4.21
   1   3   2  224.57    4.30
  -2  -3  -2    3.77    0.33
  -2  -3  -2    3.88    0.40
   2   3   2    4.05    0.30
   2   3   2    3.78    0.30
   2   3   2    3.51    0.40
  -3  -3  -2  223.49    4.44
  -3  -3  -2  232.69    4.41
   3   3   2  227.46    4.38
   3   3   2  218.96    4.44
  -4  -3  -2   10.21    0.67
  -4  -3  -2   10.55    0.68
   4   3   2   10.58    0.65
   4   3   2   12.38    0.56
   4   3   2   12.01    0.69
  -5  -3  -2  240.28    4.85
  -5  -3  -2  239.13    4.59
  -5  -3  -2  236.21    4.86
   5   3   2  226.95    4.58
   5   3   2  242.79    4.87
  -6  -3  -2    0.90    0.29
  -6  -3  -2    0.90    0.44
  -6  -3  -2    0.49    0.40
   6   3   2    1.11    0.38
   6   3   2    1.01    0.44
  -7  -3  -2   57.99    1.60
  -7  -3  -2   58.04    1.97
   7   3   2   58.50    1.94
   7   3   2   55.89    1.69
  -8  -3  -2    1.52    0.61
  -8  -3  -2    1.54    0.67
  -8  -3  -2    1.32    0.66
  -8  -3  -2    1.95    0.47
   8   3   2    2.23    0.62
   8   3   2    1.76    0.69
  -9  -3  -2   17.50    1.65
  -9  -3  -2   18.62    1.64
  -9  -3  -2   17.60    1.49
  -9  -3  -2   19.78    1.24
   9   3   2   20.16    1.34
   9   3   2   21.33    1.69
 -10  -3  -2   -0.03    1.01
 -10  -3  -2    0.16    0.69
 -10  -3  -2   -0.30    0.79
 -11  -3  -2   12.25    1.99
 -11  -3  -2   15.81    2.62
 -11  -3  -2   15.84    2.03
  11   3   2   17.30    1.67
  10  -4  -2    2.55    1.14
 -10   4   2    0.05    1.19
 -10   4   2    1.96    1.15
   9  -4  -2   18.37    1.96
  -9   4   2   15.24    1.81
  -9   4   2   14.65    1.67
  -9   4   2   13.50    1.81
   8  -4  -2    1.85    0.95
   8  -4  -2    3.19    0.89
  -8   4   2    2.32    0.83
  -8   4   2    1.14    0.97
  -8   4   2    2.78    0.83
   7  -4  -2   92.30    2.87
   7  -4  -2   89.41    2.72
  -7   4   2   90.07    2.83
  -7   4   2   90.73    2.76
  -7   4   2   92.28    2.95
   6  -4  -2    9.88    1.13
   6  -4  -2   10.78    1.18
   6  -4  -2    9.54    1.11
  -6   4   2   10.18    1.31
  -6   4   2    8.52    1.08
  -6   4   2    7.72    1.08
   5  -4  -2  158.72    3.85
   5  -4  -2  163.94    3.71
   5  -4  -2  171.00    3.90
  -5   4   2  162.26    3.90
  -5   4   2  161.65    3.85
  -5   4   2  162.27    3.72
   4  -4  -2    0.17    0.35
   4  -4  -2   -0.51    0.37
   4  -4  -2    0.41    0.40
  -4   4   2    0.00    0.34
  -4   4   2    0.00    0.46
  -4   4   2    0.01    0.33
   3  -4  -2  446.38    8.71
   3  -4  -2  443.25    8.45
   3  -4  -2  456.69    8.69
  -3   4   2  428.95    8.46
  -3   4   2  464.11    8.73
  -3   4   2  448.05    8.69
   2  -4  -2    3.03    0.46
   2  -4  -2    2.53    0.41
   2  -4  -2    2.25    0.42
  -2   4   2    2.12    0.43
  -2   4   2    3.04    0.36
  -2   4   2    2.86    0.43
   1  -4  -2   20.15    0.84
   1  -4  -2   19.88    0.64
   1  -4  -2   19.08    0.84
  -1   4   2   21.50    0.90
  -1   4   2   19.86    0.65
  -1   4   2   19.43    0.85
   0  -4  -2    1.96    0.25
   0  -4  -2    1.73    0.29
   0  -4  -2    1.54    0.23
   0  -4  -2    2.73    0.47
   0   4   2    2.35    0.36
   0   4   2    2.02    0.33
   0   4   2    1.94    0.33
   0   4   2    2.15    0.26
  -1  -4  -2  105.41    2.22
  -1  -4  -2  102.56    2.25
  -1  -4  -2   91.71    1.94
  -1  -4  -2   96.35    2.13
   1   4   2  102.56    2.15
   1   4   2  101.31    2.20
   1   4   2   97.53    2.14
  -2  -4  -2   63.62    1.55
  -2  -4  -2   61.31    1.56
  -2  -4  -2   64.64    1.40
  -2  -4  -2   61.33    1.47
   2   4   2   64.48    1.47
   2   4   2   63.32    1.38
   2   4   2   61.64    1.54
  -3  -4  -2    0.72    0.27
  -3  -4  -2   -0.30    0.27
   3   4   2    0.41    0.27
   3   4   2    0.29    0.23
   3   4   2    0.57    0.25
   3   4   2    0.34    0.22
  -4  -4  -2   60.80    1.58
  -4  -4  -2   57.27    1.57
   4   4   2   60.03    1.43
   4   4   2   59.03    1.56
   4   4   2   59.97    1.55
  -5  -4  -2    5.17    0.67
  -5  -4  -2    4.88    0.64
   5   4   2    5.48    0.63
   5   4   2    5.45    0.57
   5   4   2    6.23    0.67
  -6  -4  -2   15.23    0.92
  -6  -4  -2   15.29    1.04
   6   4   2   16.26    1.00
   6   4   2   14.46    0.84
  -7  -4  -2   27.75    1.13
  -7  -4  -2   28.00    1.34
  -7  -4  -2   26.14    1.38
   7   4   2   27.43    1.22
   7   4   2   28.15    1.39
  -8  -4  -2    0.20    0.46
  -8  -4  -2    0.00    0.55
  -8  -4  -2    0.48    0.61
   8   4   2   -0.30    0.56
   8   4   2    0.76    0.58
  -9  -4  -2   36.72    1.98
  -9  -4  -2   37.26    1.88
  -9  -4  -2   38.23    1.57
  -9  -4  -2   38.82    1.86
   9   4   2   32.33    1.99
   9   4   2   34.87    1.67
 -10  -4  -2   17.50    1.86
 -10  -4  -2   16.27    1.53
 -10  -4  -2   21.68    1.75
 -10  -4  -2   21.07    1.94
  10   4   2   20.00    1.55
 -11  -4  -2   40.63    2.79
 -11  -4  -2   31.89    2.31
 -11  -4  -2   36.32    2.44
  11   4   2   40.38    2.04
  10  -5  -2   15.18    2.33
 -10   5   2   16.35    2.20
 -10   5   2   15.48    2.16
   9  -5  -2    7.99    1.31
  -9   5   2    3.70    1.09
  -9   5   2    6.21    1.20
   8  -5  -2   14.80    1.83
   8  -5  -2   13.66    1.60
  -8   5   2   13.98    1.68
  -8   5   2   14.26    1.60
  -8   5   2   12.12    2.05
   7  -5  -2   32.30    1.77
   7  -5  -2   34.17    2.00
  -7   5   2   32.11    1.91
  -7   5   2   32.31    2.03
  -7   5   2   33.81    1.70
   6  -5  -2   81.91    2.41
   6  -5  -2   79.52    2.80
   6  -5  -2   83.11    2.69
  -6   5   2   81.60    2.73
  -6   5   2   82.63    2.65
  -6   5   2   82.57    2.43
   5  -5  -2   19.07    1.12
   5  -5  -2   15.28    1.22
   5  -5  -2   19.85    1.27
  -5   5   2   17.58    1.07
  -5   5   2   19.01    1.27
  -5   5   2   18.80    1.43
   4  -5  -2   54.57    1.83
   4  -5  -2   53.68    1.56
   4  -5  -2   52.15    1.80
  -4   5   2   49.83    1.54
  -4   5   2   53.76    1.87
  -4   5   2   50.36    1.77
   3  -5  -2    9.78    0.85
   3  -5  -2   10.24    0.85
   3  -5  -2   10.07    0.68
  -3   5   2   10.48    0.68
  -3   5   2   11.30    0.96
  -3   5   2   12.29    0.94
   2  -5  -2  138.48    3.14
   2  -5  -2  139.17    2.80
  -2   5   2  134.07    2.81
  -2   5   2  136.11    3.14
   1  -5  -2    4.66    0.61
   1  -5  -2    5.04    0.39
   1  -5  -2    3.69    0.57
  -1   5   2    4.99    0.53
  -1   5   2    5.74    0.74
  -1   5   2    4.14    0.39
  -1   5   2    3.96    0.50
   0  -5  -2    6.90    0.59
   0  -5  -2    5.65    0.53
   0  -5  -2    6.92    0.67
   0   5   2    6.67    0.56
   0   5   2    7.55    0.76
   0   5   2    5.40    0.57
  -1  -5  -2    3.81    0.65
  -1  -5  -2    2.18    0.34
  -1  -5  -2    2.51    0.38
   1   5   2    1.92    0.42
   1   5   2    1.90    0.31
   1   5   2    1.91    0.33
  -2  -5  -2  236.46    4.59
  -2  -5  -2  224.89    4.56
  -2  -5  -2  227.84    4.60
  -2  -5  -2  232.49    4.33
   2   5   2  228.52    4.31
   2   5   2  220.15    4.56
   2   5   2  230.55    4.54
  -3  -5  -2    3.62    0.60
  -3  -5  -2    2.50    0.33
  -3  -5  -2    2.77    0.44
   3   5   2    2.59    0.31
   3   5   2    2.66    0.38
   3   5   2    2.45    0.35
  -4  -5  -2  148.42    3.16
  -4  -5  -2  147.45    3.19
   4   5   2  152.06    3.16
   4   5   2  144.95    3.18
   4   5   2  150.43    3.15
   4   5   2  148.18    3.10
  -5  -5  -2    5.07    0.68
  -5  -5  -2    4.03    0.51
   5   5   2    4.39    0.63
   5   5   2    5.17    0.60
   5   5   2    3.90    0.48
  -6  -5  -2   67.67    1.94
  -6  -5  -2   66.05    2.00
   6   5   2   67.60    1.81
   6   5   2   67.36    1.92
   6   5   2   67.87    1.97
  -7  -5  -2   33.64    1.45
  -7  -5  -2   35.28    1.56
   7   5   2   34.03    1.37
   7   5   2   35.97    1.54
  -8  -5  -2   37.48    1.90
  -8  -5  -2   39.80    1.72
   8   5   2   38.07    1.59
   8   5   2   39.67    1.82
  -9  -5  -2   10.87    1.44
  -9  -5  -2    7.85    1.31
  -9  -5  -2    9.03    1.13
   9   5   2    9.29    1.33
   9   5   2   10.16    1.29
 -10  -5  -2    7.60    1.19
 -10  -5  -2    8.54    1.23
 -10  -5  -2    6.39    1.17
  10   5   2    8.74    1.55
 -11  -5  -2    0.57    1.33
 -11  -5  -2   -0.04    1.06
 -11  -5  -2    0.84    1.15
  11   5   2    1.32    1.01
   9  -6  -2    4.95    1.18
  -9   6   2    4.78    1.16
  -9   6   2    6.63    1.17
   8  -6  -2   41.30    2.39
   8  -6  -2   37.15    2.23
  -8   6   2   38.51    2.10
  -8   6   2   37.44    2.30
  -8   6   2   40.06    2.61
   7  -6  -2    2.96    1.00
   7  -6  -2    0.79    0.86
   7  -6  -2    2.67    0.82
  -7   6   2    2.60    0.91
  -7   6   2    4.03    0.85
  -7   6   2    2.73    1.08
   6  -6  -2   47.83    1.81
   6  -6  -2   45.93    2.03
   6  -6  -2   44.54    2.31
  -6   6   2   46.49    2.17
  -6   6   2   45.62    2.14
  -6   6   2   45.91    1.79
   5  -6  -2   42.24    1.81
   5  -6  -2   43.79    1.58
   5  -6  -2   44.11    1.85
  -5   6   2   39.24    1.53
  -5   6   2   42.87    1.95
  -5   6   2   42.14    1.88
   4  -6  -2    3.95    0.69
   4  -6  -2    5.32    0.90
   4  -6  -2    5.22    0.75
  -4   6   2    6.53    1.05
  -4   6   2    5.09    0.72
  -4   6   2    6.17    0.98
   3  -6  -2   32.26    1.37
   3  -6  -2   31.37    1.03
  -3   6   2   31.35    1.40
  -3   6   2   29.26    1.04
  -3   6   2   29.51    1.37
   2  -6  -2   12.53    0.89
   2  -6  -2   12.39    0.61
   2  -6  -2   14.04    0.93
  -2   6   2   12.86    0.61
  -2   6   2   12.33    0.90
  -2   6   2   14.01    0.97
   1  -6  -2    6.37    0.71
   1  -6  -2    6.82    0.69
  -1   6   2    5.56    0.68
  -1   6   2    6.81    0.79
  -1   6   2    7.78    0.64
   0  -6  -2    3.91    0.59
   0  -6  -2    4.60    0.67
   0  -6  -2    4.36    0.59
   0   6   2    4.13    0.59
   0   6   2    5.48    0.78
   0   6   2    3.73    0.58
  -1  -6  -2    0.44    0.34
  -1  -6  -2    0.27    0.24
  -1  -6  -2    0.14    0.29
   1   6   2    0.78    0.34
   1   6   2   -0.10    0.26
   1   6   2    0.20    0.38
  -2  -6  -2    0.70    0.30
  -2  -6  -2    0.57    0.29
  -2  -6  -2    0.91    0.38
  -2  -6  -2    1.27    0.23
   2   6   2    0.96    0.20
   2   6   2    0.31    0.34
   2   6   2    0.99    0.32
  -3  -6  -2   17.22    0.69
  -3  -6  -2   18.39    0.94
  -3  -6  -2   16.36    0.91
   3   6   2   16.87    0.84
   3   6   2   17.89    0.68
   3   6   2   16.22    0.82
  -4  -6  -2  117.83    2.64
  -4  -6  -2  115.14    2.68
  -4  -6  -2  121.36    2.96
   4   6   2  120.00    2.60
   4   6   2  117.51    2.70
   4   6   2  116.64    2.65
   4   6   2  114.75    2.66
  -5  -6  -2    4.85    0.71
  -5  -6  -2    4.97    0.74
   5   6   2    5.14    0.69
   5   6   2    4.87    0.65
   5   6   2    5.38    0.68
   5   6   2    4.53    0.65
  -6  -6  -2   97.97    2.62
  -6  -6  -2  102.61    2.53
   6   6   2  100.81    2.49
   6   6   2  103.40    2.54
   6   6   2  102.34    2.60
  -7  -6  -2    0.57    0.56
  -7  -6  -2    1.02    0.57
   7   6   2    0.33    0.51
   7   6   2    1.94    0.59
  -8  -6  -2  115.92    3.01
  -8  -6  -2  115.36    3.98
   8   6   2  110.78    3.15
   8   6   2  109.96    2.91
  -9  -6  -2    6.33    0.93
  -9  -6  -2    9.64    1.45
  -9  -6  -2    7.53    1.07
   9   6   2    6.71    0.94
   9   6   2    6.72    1.07
 -10  -6  -2    5.69    1.49
 -10  -6  -2    5.09    1.01
 -10  -6  -2    4.04    1.11
  10   6   2    6.06    1.06
 -11  -6  -2   19.25    2.16
 -11  -6  -2   20.63    2.24
  11   6   2   17.93    2.07
   9  -7  -2   15.46    2.24
  -9   7   2   13.12    2.27
  -9   7   2   15.25    2.02
   8  -7  -2   55.17    2.64
   8  -7  -2   53.86    2.71
  -8   7   2   60.15    2.52
  -8   7   2   55.45    2.77
   7  -7  -2    8.72    1.07
   7  -7  -2   13.80    1.70
   7  -7  -2   10.30    2.23
  -7   7   2    8.67    1.29
  -7   7   2    9.77    1.24
   6  -7  -2    5.37    1.05
   6  -7  -2    5.34    0.80
   6  -7  -2    4.39    0.98
  -6   7   2    4.00    0.90
  -6   7   2    7.56    1.16
  -6   7   2    3.82    1.11
   5  -7  -2   11.82    1.39
   5  -7  -2   10.98    1.26
   5  -7  -2   13.35    1.09
  -5   7   2   11.49    1.48
  -5   7   2   13.07    1.56
  -5   7   2   13.24    1.05
   4  -7  -2    5.01    0.82
   4  -7  -2    5.86    0.76
   4  -7  -2    4.11    0.82
  -4   7   2    5.37    0.75
  -4   7   2    6.22    1.09
  -4   7   2    3.72    0.72
   3  -7  -2   11.41    0.72
   3  -7  -2   11.24    1.03
   3  -7  -2   10.82    1.05
  -3   7   2   11.60    1.11
  -3   7   2   10.78    1.04
  -3   7   2   10.37    0.69
   2  -7  -2   14.09    1.06
   2  -7  -2   13.68    1.01
   2  -7  -2   13.37    0.60
  -2   7   2   13.34    0.61
  -2   7   2   13.18    1.01
  -2   7   2   13.73    1.06
  -2   7   2   12.95    0.89
   1  -7  -2   82.01    2.22
   1  -7  -2   80.15    2.27
  -1   7   2   79.45    2.13
  -1   7   2   80.06    2.24
  -1   7   2   79.60    2.24
   0  -7  -2    0.15    0.31
   0  -7  -2    0.02    0.33
   0   7   2    0.13    0.31
   0   7   2    0.76    0.44
   0   7   2    0.34    0.33
  -1  -7  -2   60.08    1.79
  -1  -7  -2   59.71    1.71
  -1  -7  -2   59.79    1.73
   1   7   2   59.24    1.75
   1   7   2   58.32    1.73
   1   7   2   58.24    1.78
  -2  -7  -2    0.53    0.36
  -2  -7  -2    0.56    0.34
  -2  -7  -2    0.44    0.22
  -2  -7  -2    0.25    0.30
   2   7   2    0.44    0.32
   2   7   2    0.20    0.40
  -3  -7  -2  139.63    3.60
  -3  -7  -2  144.32    3.19
  -3  -7  -2  140.32    2.91
   3   7   2  141.24    3.17
   3   7   2  143.67    3.25
   3   7   2  146.19    2.90
  -4  -7  -2    2.30    0.52
  -4  -7  -2    2.15    0.41
  -4  -7  -2    0.95    0.46
   4   7   2    1.30    0.39
   4   7   2    1.83    0.44
   4   7   2    1.80    0.44
   4   7   2    2.39    0.37
  -5  -7  -2  104.89    2.80
  -5  -7  -2   99.41    2.50
  -5  -7  -2   99.76    2.50
   5   7   2   99.05    2.48
   5   7   2  101.33    2.52
   5   7   2  103.76    2.60
   5   7   2  103.92    2.47
  -6  -7  -2   16.77    1.13
  -6  -7  -2   16.16    1.18
   6   7   2   17.60    1.05
   6   7   2   17.69    1.17
   6   7   2   16.23    1.05
   6   7   2   17.67    1.09
  -7  -7  -2   21.70    1.27
  -7  -7  -2   20.34    1.37
   7   7   2   19.81    1.31
   7   7   2   21.78    1.27
   7   7   2   21.64    1.38
  -8  -7  -2   14.37    1.42
   8   7   2   14.81    1.47
   8   7   2   14.24    1.34
  -9  -7  -2   13.95    1.55
  -9  -7  -2   12.09    1.76
   9   7   2    9.00    1.08
   9   7   2   10.04    1.39
 -10  -7  -2    3.31    1.05
 -10  -7  -2    2.55    1.10
 -10  -7  -2    1.26    0.94
  10   7   2   -1.01    0.99
 -11  -7  -2    7.54    1.43
 -11  -7  -2    6.26    1.61
  11   7   2    7.31    1.46
   9  -8  -2   13.03    2.32
  -9   8   2   11.61    1.66
   8  -8  -2    0.79    1.29
  -8   8   2    1.02    1.00
  -8   8   2    0.84    1.18
   7  -8  -2    5.30    1.08
   7  -8  -2    5.79    1.24
  -7   8   2    6.45    1.13
  -7   8   2    5.89    0.99
   6  -8  -2   94.58    3.19
   6  -8  -2   95.54    2.71
   6  -8  -2   92.11    3.36
  -6   8   2   90.66    2.67
  -6   8   2   92.77    3.30
  -6   8   2   95.70    3.25
   5  -8  -2   14.64    1.59
   5  -8  -2   10.81    1.65
   5  -8  -2   13.50    1.42
  -5   8   2   16.36    1.68
  -5   8   2   10.71    1.08
  -5   8   2   12.37    1.51
   4  -8  -2    9.79    1.33
   4  -8  -2   11.77    0.88
   4  -8  -2   10.51    1.27
  -4   8   2   11.33    1.36
  -4   8   2   10.73    1.35
  -4   8   2    9.78    0.85
   3  -8  -2    7.03    0.98
   3  -8  -2    7.28    1.06
   3  -8  -2    6.26    0.64
  -3   8   2    6.84    1.09
  -3   8   2    6.69    1.15
  -3   8   2    7.42    0.65
  -3   8   2    6.92    0.95
   2  -8  -2   58.55    2.02
   2  -8  -2   57.91    2.04
  -2   8   2   58.70    1.88
  -2   8   2   57.76    2.14
  -2   8   2   58.65    2.01
   1  -8  -2   78.81    2.29
   1  -8  -2   78.60    2.35
  -1   8   2   78.10    2.22
  -1   8   2   77.54    2.33
  -1   8   2   77.89    2.32
   0  -8  -2    5.62    0.82
   0  -8  -2    4.68    0.77
   0   8   2    5.66    0.74
   0   8   2    5.39    0.94
   0   8   2    4.42    0.61
  -1  -8  -2  106.22    2.61
  -1  -8  -2   94.06    2.85
  -1  -8  -2  102.53    2.71
   1   8   2  105.50    2.67
   1   8   2  105.11    2.97
   1   8   2   98.63    2.85
  -2  -8  -2    2.73    0.51
  -2  -8  -2    3.76    0.56
  -2  -8  -2    3.55    0.57
   2   8   2    4.20    0.62
   2   8   2    3.62    0.55
   2   8   2    3.47    0.54
  -3  -8  -2   62.95    1.54
  -3  -8  -2   64.55    2.00
  -3  -8  -2   65.59    1.88
   3   8   2   68.23    1.98
   3   8   2   61.72    1.83
   3   8   2   63.88    1.50
  -4  -8  -2   24.05    1.29
  -4  -8  -2   23.36    1.19
  -4  -8  -2   21.33    0.95
   4   8   2   20.80    1.08
   4   8   2   21.73    1.18
   4   8   2   21.94    0.90
  -5  -8  -2   86.46    2.56
  -5  -8  -2   80.50    2.18
  -5  -8  -2   83.72    2.29
   5   8   2   82.51    2.22
   5   8   2   84.79    2.31
   5   8   2   83.28    2.14
   5   8   2   85.21    2.39
  -6  -8  -2    5.22    0.80
  -6  -8  -2    6.02    0.77
  -6  -8  -2    6.62    0.79
   6   8   2    6.02    0.88
   6   8   2    5.83    0.98
   6   8   2    6.58    0.75
  -7  -8  -2    5.61    0.86
  -7  -8  -2    6.26    0.81
  -7  -8  -2    3.65    0.83
   7   8   2    5.20    0.92
   7   8   2    5.20    0.88
   7   8   2    5.77    0.90
   7   8   2    5.05    0.78
  -8  -8  -2   63.32    2.23
  -8  -8  -2   60.25    2.53
   8   8   2   64.87    2.41
   8   8   2   66.62    2.46
   8   8   2   65.48    2.31
  -9  -8  -2    8.14    1.22
   9   8   2    6.56    1.04
   9   8   2    9.54    1.30
   9   8   2    9.00    1.36
 -10  -8  -2   11.65    1.79
 -10  -8  -2   10.31    1.41
  10   8   2    7.59    1.27
  10   8   2   12.55    2.03
   8  -9  -2    7.59    1.46
   8  -9  -2    9.14    1.58
  -8   9   2   13.50    1.95
  -8   9   2    8.67    1.54
   7  -9  -2    5.52    1.22
   7  -9  -2    5.16    1.18
  -7   9   2    7.01    1.05
  -7   9   2    5.74    1.15
   6  -9  -2    1.36    0.87
   6  -9  -2    0.25    0.75
  -6   9   2   -0.09    0.69
  -6   9   2    0.40    0.86
   5  -9  -2   17.53    1.79
   5  -9  -2   17.14    1.66
  -5   9   2   17.71    1.16
  -5   9   2   16.62    1.74
  -5   9   2   16.83    1.84
   4  -9  -2    6.56    0.84
   4  -9  -2    5.35    0.91
   4  -9  -2    6.48    1.11
  -4   9   2    7.14    0.83
  -4   9   2    5.43    0.90
  -4   9   2    7.68    1.19
  -4   9   2    9.47    1.41
   3  -9  -2    1.70    0.77
   3  -9  -2    2.23    0.67
  -3   9   2    2.16    0.65
  -3   9   2    1.58    0.64
  -3   9   2    0.94    0.65
   2  -9  -2   60.43    2.18
   2  -9  -2   58.64    2.20
  -2   9   2   60.39    2.16
  -2   9   2   61.18    2.06
  -2   9   2   61.89    2.21
   1  -9  -2    2.87    0.68
   1  -9  -2    2.47    0.62
  -1   9   2    2.61    0.53
  -1   9   2    2.11    0.55
  -1   9   2    3.23    0.73
   0  -9  -2  128.29    3.38
   0  -9  -2  131.72    3.24
   0   9   2  127.26    3.29
   0   9   2  125.93    3.24
   0   9   2  128.16    3.30
  -1  -9  -2    2.66    0.57
  -1  -9  -2    2.33    0.52
  -1  -9  -2    3.66    0.86
   1   9   2    2.83    0.64
   1   9   2    3.26    0.61
   1   9   2    2.79    0.61
  -2  -9  -2   34.52    1.50
  -2  -9  -2   34.14    1.44
  -2  -9  -2   34.64    1.54
   2   9   2   35.20    1.55
   2   9   2   35.75    1.50
   2   9   2   34.94    1.51
  -3  -9  -2   14.54    1.18
  -3  -9  -2   13.81    0.69
  -3  -9  -2   16.59    1.10
   3   9   2   13.24    1.14
   3   9   2   14.50    1.04
  -4  -9  -2   72.66    2.32
  -4  -9  -2   72.11    2.10
  -4  -9  -2   67.00    1.78
   4   9   2   70.89    2.06
   4   9   2   70.02    2.24
   4   9   2   70.77    1.75
  -5  -9  -2    2.01    0.56
  -5  -9  -2    2.53    0.64
  -5  -9  -2    1.96    0.65
   5   9   2    1.94    0.53
   5   9   2    1.52    0.57
   5   9   2    1.73    0.67
   5   9   2    3.05    0.54
  -6  -9  -2   27.18    1.49
  -6  -9  -2   26.72    1.44
  -6  -9  -2   27.27    1.75
   6   9   2   28.62    1.32
   6   9   2   29.60    1.52
   6   9   2   27.94    1.64
   6   9   2   27.19    1.36
  -7  -9  -2    1.69    0.77
  -7  -9  -2    0.66    0.85
  -7  -9  -2    1.63    0.89
   7   9   2    2.26    0.82
   7   9   2    2.39    0.75
   7   9   2    1.60    0.58
   7   9   2    0.94    0.83
  -8  -9  -2   17.89    1.74
  -8  -9  -2   13.90    1.63
   8   9   2   17.37    1.73
   8   9   2   14.27    1.61
   8   9   2   18.41    1.88
  -9  -9  -2    4.04    1.09
  -9  -9  -2    4.27    1.13
   9   9   2    2.75    1.11
   9   9   2    3.70    1.26
 -10  -9  -2    3.89    1.26
 -10  -9  -2    2.22    1.02
  10   9   2    0.62    1.18
   8 -10  -2   17.88    2.54
  -8  10   2   22.89    2.20
   7 -10  -2    7.05    1.30
   7 -10  -2    7.09    1.51
  -7  10   2   11.06    1.71
  -7  10   2    4.09    1.30
   6 -10  -2    5.25    0.96
   6 -10  -2    3.08    1.11
  -6  10   2    4.76    0.88
  -6  10   2    3.31    1.08
   5 -10  -2   29.88    1.46
   5 -10  -2   30.68    2.12
  -5  10   2   30.14    2.17
  -5  10   2   32.06    1.42
  -5  10   2   31.87    1.99
   4 -10  -2   64.67    2.69
   4 -10  -2   63.35    2.61
   4 -10  -2   62.42    1.74
  -4  10   2   61.06    1.71
  -4  10   2   59.75    2.59
  -4  10   2   66.34    2.66
  -4  10   2   64.73    2.39
   3 -10  -2    2.97    0.76
   3 -10  -2    3.00    0.93
  -3  10   2    5.28    1.00
  -3  10   2    4.98    0.92
  -3  10   2    4.57    0.88
   2 -10  -2   53.63    2.32
   2 -10  -2   57.99    2.27
  -2  10   2   58.10    2.13
  -2  10   2   55.10    2.21
  -2  10   2   58.09    2.30
   1 -10  -2   20.56    1.43
   1 -10  -2   20.96    1.51
  -1  10   2   21.88    1.58
  -1  10   2   21.01    1.39
  -1  10   2   20.13    1.44
   0 -10  -2  110.20    2.99
   0 -10  -2  107.36    3.14
   0  10   2  107.68    3.05
   0  10   2  107.55    2.99
   0  10   2  107.29    3.07
  -1 -10  -2    1.83    0.64
  -1 -10  -2    0.99    0.63
  -1 -10  -2    2.16    0.62
   1  10   2    1.90    0.70
   1  10   2    1.30    0.65
   1  10   2    0.80    0.54
  -2 -10  -2   37.77    1.61
  -2 -10  -2   34.78    1.66
   2  10   2   35.46    1.70
   2  10   2   33.17    1.60
   2  10   2   34.99    1.68
  -3 -10  -2    9.55    1.41
  -3 -10  -2   10.78    1.25
   3  10   2   10.42    1.19
   3  10   2   10.64    1.08
  -4 -10  -2    1.16    0.41
  -4 -10  -2    0.20    0.56
  -4 -10  -2    0.97    0.73
   4  10   2    1.32    0.53
   4  10   2    1.66    0.37
   4  10   2    1.73    0.68
  -5 -10  -2   48.49    2.11
  -5 -10  -2   41.85    1.79
  -5 -10  -2   47.35    1.61
   5  10   2   46.18    1.91
   5  10   2   46.29    1.66
   5  10   2   46.33    2.00
   5  10   2   47.07    1.50
  -6 -10  -2    1.69    0.67
  -6 -10  -2    1.43    1.13
  -6 -10  -2    2.42    0.85
   6  10   2    2.04    0.65
   6  10   2    1.20    0.74
   6  10   2    1.18    0.57
   6  10   2    0.62    0.78
  -7 -10  -2   39.51    1.91
  -7 -10  -2   36.26    2.20
   7  10   2   39.13    1.78
   7  10   2   38.28    2.13
   7  10   2   36.62    1.62
   7  10   2   36.78    1.95
  -8 -10  -2    4.19    0.97
  -8 -10  -2    2.75    1.01
   8  10   2    3.34    1.17
   8  10   2    1.62    1.10
   8  10   2    3.26    1.04
  -9 -10  -2   31.16    2.26
   9  10   2   29.55    2.74
   9  10   2   26.72    2.78
 -10 -10  -2    6.44    1.34
   7 -11  -2    2.64    1.33
  -7  11   2    5.22    1.38
  -7  11   2    4.80    1.25
  -7  11   2    7.80    1.16
   6 -11  -2    0.60    0.99
  -6  11   2    0.41    1.02
  -6  11   2    0.06    0.90
  -6  11   2    1.26    0.77
   5 -11  -2   19.54    2.02
   5 -11  -2   20.64    1.36
  -5  11   2   17.12    2.11
  -5  11   2   19.80    1.83
  -5  11   2   19.37    1.26
   4 -11  -2   10.54    1.69
  -4  11   2    9.62    1.50
  -4  11   2   10.12    1.71
   3 -11  -2   58.52    2.55
   3 -11  -2   59.13    2.61
  -3  11   2   60.54    2.55
  -3  11   2   58.32    2.54
  -3  11   2   60.25    2.34
   2 -11  -2    2.63    0.82
   2 -11  -2    3.87    0.99
  -2  11   2    3.10    0.78
  -2  11   2    2.73    0.84
  -2  11   2    3.44    0.85
   1 -11  -2   67.65    2.55
   1 -11  -2   62.69    2.42
  -1  11   2   62.82    2.49
  -1  11   2   64.44    2.49
   0 -11  -2    6.40    0.93
   0 -11  -2    5.50    1.17
   0  11   2    8.83    1.43
   0  11   2    5.86    0.87
   0  11   2    5.98    0.89
  -1 -11  -2   84.91    2.63
  -1 -11  -2   87.68    2.81
  -1 -11  -2   85.73    2.85
   1  11   2   85.44    2.73
   1  11   2   86.75    2.76
   1  11   2   83.87    2.77
  -2 -11  -2    0.13    0.58
  -2 -11  -2   -0.06    0.63
   2  11   2    0.17    0.61
   2  11   2   -0.37    0.68
   2  11   2   -0.53    0.60
  -3 -11  -2   16.21    1.39
  -3 -11  -2   16.72    1.54
   3  11   2   15.45    1.31
   3  11   2   16.17    1.45
  -4 -11  -2   11.89    1.49
  -4 -11  -2   11.03    1.36
   4  11   2   11.34    1.52
   4  11   2   12.00    1.18
  -5 -11  -2   22.53    1.19
  -5 -11  -2   20.59    1.85
  -5 -11  -2   21.50    1.54
   5  11   2   21.57    1.76
   5  11   2   23.84    1.71
   5  11   2   22.28    1.37
   5  11   2   21.85    1.11
  -6 -11  -2    1.83    0.85
  -6 -11  -2    1.76    0.71
   6  11   2    1.48    0.81
   6  11   2    2.46    0.96
   6  11   2    2.98    0.71
   6  11   2    2.77    0.70
  -7 -11  -2    9.08    1.11
  -7 -11  -2   14.41    1.58
   7  11   2   10.91    1.58
   7  11   2   13.77    1.36
   7  11   2   10.77    1.51
   7  11   2   11.47    1.98
  -8 -11  -2    2.68    1.05
   8  11   2    0.97    1.06
   8  11   2    1.75    1.37
   8  11   2    0.84    1.01
  -9 -11  -2   32.25    2.43
   9  11   2   25.40    2.42
   6 -12  -2    1.02    1.18
  -6  12   2    2.03    1.03
  -6  12   2    0.26    1.18
   5 -12  -2    5.05    1.23
  -5  12   2    3.98    1.22
  -5  12   2    7.35    1.11
   4 -12  -2   22.05    2.11
  -4  12   2   22.25    1.91
  -4  12   2   21.29    2.13
   3 -12  -2   11.59    1.78
  -3  12   2   16.21    1.94
  -3  12   2   14.71    1.68
   2 -12  -2    7.97    1.32
   2 -12  -2    7.33    1.14
  -2  12   2    7.14    1.14
  -2  12   2   10.45    1.58
   1 -12  -2    8.65    1.28
   1 -12  -2    6.37    1.11
  -1  12   2    8.66    1.29
  -1  12   2    6.74    1.02
  -1  12   2    6.45    1.09
   0 -12  -2   40.20    2.11
   0 -12  -2   45.49    2.26
   0  12   2   40.34    2.32
   0  12   2   42.68    2.06
   0  12   2   41.56    2.20
  -1 -12  -2   33.38    1.86
  -1 -12  -2   33.64    2.04
   1  12   2   33.21    2.06
   1  12   2   32.92    1.98
   1  12   2   33.37    1.89
  -2 -12  -2    5.62    0.98
  -2 -12  -2    9.91    1.45
   2  12   2    7.70    1.05
   2  12   2   10.52    1.57
   2  12   2    5.77    0.90
  -3 -12  -2    5.65    0.97
  -3 -12  -2    4.36    0.95
   3  12   2    5.95    1.18
   3  12   2    5.68    0.90
  -4 -12  -2   20.16    2.39
  -4 -12  -2   20.60    1.61
   4  12   2   24.31    1.54
   4  12   2   20.29    1.87
  -5 -12  -2    1.74    0.59
  -5 -12  -2    1.14    0.93
   5  12   2    1.15    1.06
   5  12   2    2.38    0.88
   5  12   2    2.43    0.75
  -6 -12  -2   40.78    1.78
  -6 -12  -2   40.88    2.14
   6  12   2   40.28    1.74
   6  12   2   42.18    2.23
   6  12   2   37.86    2.61
   6  12   2   43.78    1.86
  -7 -12  -2    0.33    1.01
  -7 -12  -2   -0.18    0.88
   7  12   2    0.22    0.77
   7  12   2   -1.21    0.94
   7  12   2    0.46    0.91
   7  12   2    0.86    1.32
  -8 -12  -2    5.88    1.27
   8  12   2    7.70    1.40
   8  12   2    5.79    1.73
   5 -13  -2   -0.58    1.29
  -5  13   2   -0.13    1.03
  -5  13   2   -2.40    1.22
   4 -13  -2   31.19    2.55
  -4  13   2   31.28    2.29
  -4  13   2   31.11    2.51
   3 -13  -2   -1.24    0.93
  -3  13   2   -1.05    0.90
  -3  13   2    0.59    1.09
   2 -13  -2   21.80    2.18
  -2  13   2   23.89    1.91
  -2  13   2   16.46    2.12
   1 -13  -2    0.95    0.89
   1 -13  -2    0.07    1.09
  -1  13   2    0.48    0.78
  -1  13   2    0.38    0.89
   0 -13  -2   18.51    2.07
   0 -13  -2   18.96    1.90
   0  13   2   16.15    1.94
   0  13   2   16.02    1.72
  -1 -13  -2    0.05    0.95
   1  13   2    0.15    0.78
   1  13   2    0.01    1.81
   1  13   2    0.50    0.88
  -2 -13  -2   11.30    1.70
   2  13   2    7.98    1.17
   2  13   2    7.16    1.23
  -3 -13  -2    1.09    0.95
   3  13   2   -0.29    1.08
   3  13   2    1.94    0.82
  -4 -13  -2    1.47    0.94
   4  13   2    3.02    1.18
   4  13   2    3.21    0.89
  -5 -13  -2    0.57    0.95
   5  13   2    0.22    0.94
   5  13   2    0.88    1.22
   5  13   2    1.45    0.75
  -6 -13  -2   21.07    1.60
  -6 -13  -2   18.43    1.96
   6  13   2   19.53    1.66
   6  13   2   18.75    2.04
  -7 -13  -2    0.00    1.01
   7  13   2    1.10    1.20
   4 -14  -2   -1.11    1.41
  -4  14   2   -0.16    1.32
  -4  14   2   -1.04    1.09
   3 -14  -2   16.52    2.38
  -3  14   2   15.14    2.05
  -3  14   2   12.81    1.65
   2 -14  -2    0.89    1.15
  -2  14   2    0.88    0.92
  -2  14   2    0.94    1.13
   1 -14  -2   26.92    2.38
  -1  14   2   26.08    2.39
  -1  14   2   30.41    2.12
   0 -14  -2    3.94    1.12
   0  14   2    5.31    1.10
   0  14   2    3.81    1.20
  -1 -14  -2   27.09    2.47
   1  14   2   21.13    2.04
   1  14   2   27.27    2.15
  -2 -14  -2    2.42    1.26
   2  14   2    4.88    1.03
  -3 -14  -2    5.45    1.31
  -4 -14  -2    0.78    1.21
   4  14   2    3.71    1.01
   5  14   2    5.52    1.03
   5  14   2    5.20    1.26
   6  14   2    0.37    1.15
   6  14   2    1.74    1.34
   2 -15  -2    0.92    1.29
  -2  15   2   -1.17    1.24
  -2  15   2   -0.16    1.14
   1 -15  -2    3.00    1.30
  -1  15   2    3.30    1.32
   0  15   2    1.61    1.00
   0  15   2    2.74    1.32
   1  15   2    6.96    1.36
   1  15   2    4.59    1.03
  -2 -15  -2    5.47    1.64
   2  15   2    5.05    1.20
  -3 -15  -2   16.21    2.70
   3  15   2   16.10    1.95
   4  15   2   -0.01    1.21
   4  15   2    2.08    1.05
   5  15   2   18.94    2.47
   4  13  -3   23.46    2.65
   3  13  -3    1.90    1.20
   2  13  -3   23.15    2.36
   1  13  -3    6.57    1.35
   1  13  -3    6.48    1.31
   1  13  -3    8.67    1.13
   0  13  -3    1.54    1.06
  -1  13  -3   14.63    2.13
  -1  13  -3   16.71    2.08
  -2  13  -3    5.40    1.28
  -2  13  -3    3.82    1.08
  -3  13  -3    2.65    1.18
  -3  13  -3    6.54    1.41
   5  12  -3    0.71    1.26
   4  12  -3    1.44    1.18
   3  12  -3   10.86    1.50
   2  12  -3   35.86    2.36
   1  12  -3    6.11    0.98
   1  12  -3    4.14    1.09
   0  12  -3   32.10    2.08
   0  12  -3   37.08    2.27
  -1  12  -3    4.02    1.84
  -1  12  -3    0.38    0.85
  -2  12  -3   25.05    2.16
  -2  12  -3   26.55    2.10
  -3  12  -3    3.20    1.21
  -3  12  -3    3.01    0.93
  -4  12  -3    8.12    1.27
  -4  12  -3    5.34    1.35
  -5  12  -3   16.45    2.23
  -5  12  -3   12.64    1.63
   5 -12   3   14.37    2.02
   6  11  -3    1.75    1.13
   5  11  -3    4.94    1.16
  -5 -11   3    5.94    1.02
   4  11  -3    3.62    1.06
  -4 -11   3    5.45    0.87
   3  11  -3    4.87    1.15
  -3 -11   3    4.80    0.67
   2  11  -3   16.43    1.75
   1  11  -3   10.23    1.34
   1  11  -3    9.33    1.57
   0  11  -3    9.52    1.11
   0  11  -3   11.18    1.61
   0 -11   3    8.99    1.51
  -1  11  -3    5.86    0.99
  -1  11  -3    6.21    0.99
   1 -11   3    5.20    1.05
  -2  11  -3    3.43    1.17
  -2  11  -3    2.18    0.80
  -3  11  -3   13.92    1.80
  -3  11  -3   13.52    1.86
  -4  11  -3    0.82    0.99
  -4  11  -3    0.85    0.80
   4 -11   3    0.19    1.07
  -5  11  -3    4.56    1.11
  -5  11  -3    8.85    1.43
   5 -11   3    5.17    1.29
  -6  11  -3   -0.50    1.22
  -6  11  -3   -1.08    1.01
   6 -11   3   -1.73    1.26
   7  10  -3   16.89    2.05
   7  10  -3   16.92    2.28
  -7 -10   3   23.01    2.31
   6  10  -3    0.53    0.97
   6  10  -3    1.88    1.04
   5  10  -3   39.04    1.90
   5  10  -3   35.07    2.27
  -5 -10   3   41.91    1.97
   4  10  -3   -0.55    0.68
   4  10  -3   -0.10    0.84
  -4 -10   3    0.21    0.67
   3  10  -3   31.53    1.99
   3  10  -3   31.97    2.38
   3  10  -3   30.25    1.33
  -3 -10   3   32.05    1.35
  -3 -10   3   34.10    2.45
   2  10  -3    8.60    1.35
   2  10  -3    8.26    1.47
   1  10  -3  107.96    3.31
   1  10  -3  101.14    3.48
   1  10  -3  102.80    2.78
  -1 -10   3  106.61    3.38
  -1 -10   3  107.20    2.73
   0  10  -3    4.80    0.89
   0  10  -3    8.23    1.26
   0  10  -3    6.37    1.09
   0 -10   3    7.62    1.23
  -1  10  -3   21.78    1.86
  -1  10  -3   20.36    1.62
  -1  10  -3   17.04    1.44
   1 -10   3   20.54    1.52
  -2  10  -3   -0.67    0.68
  -2  10  -3   -0.29    0.90
  -2  10  -3    0.08    0.73
   2 -10   3    0.01    0.77
  -3  10  -3   31.83    2.21
  -3  10  -3   32.50    1.94
  -3  10  -3   33.16    2.00
  -4  10  -3    0.39    0.79
  -4  10  -3   -0.25    0.99
   4 -10   3   -0.97    0.87
  -5  10  -3    3.49    1.02
   5 -10   3    3.46    1.11
  -6  10  -3    1.52    0.87
  -6  10  -3    2.98    1.18
  -6  10  -3    3.33    0.73
   6 -10   3    3.35    1.27
  -7  10  -3   21.11    1.68
  -7  10  -3   17.06    2.32
  -7  10  -3   21.66    2.25
   7 -10   3   19.55    2.44
   8   9  -3    5.70    1.46
  -8  -9   3    8.05    1.40
   7   9  -3    7.33    1.44
  -7  -9   3    8.01    1.28
   6   9  -3    2.84    1.10
   6   9  -3    5.19    1.07
  -6  -9   3    2.89    1.18
   5   9  -3   26.53    2.46
   5   9  -3   24.50    1.92
   5   9  -3   25.38    1.64
  -5  -9   3   25.46    1.64
   4   9  -3    2.18    0.69
   4   9  -3    1.73    0.84
   4   9  -3    2.28    1.00
  -4  -9   3    3.31    0.71
  -4  -9   3    3.60    1.00
   3   9  -3    2.14    0.82
   3   9  -3    2.15    0.96
   3   9  -3    2.70    0.57
  -3  -9   3    2.12    0.61
  -3  -9   3    2.05    0.84
   2   9  -3   27.46    1.09
   2   9  -3   24.27    1.88
   2   9  -3   29.19    1.77
  -2  -9   3   27.29    1.10
  -2  -9   3   31.39    1.82
   1   9  -3   13.34    1.09
   1   9  -3   14.32    1.57
   1   9  -3   10.02    1.57
  -1  -9   3   12.61    1.44
  -1  -9   3   15.13    1.02
   0   9  -3  174.23    4.50
   0   9  -3  174.09    4.55
   0   9  -3  170.13    3.98
   0  -9   3  183.27    4.00
  -1   9  -3    0.50    1.07
  -1   9  -3    0.94    0.58
  -1   9  -3   -0.19    0.72
   1  -9   3    0.43    0.55
  -2   9  -3   65.14    2.24
  -2   9  -3   63.05    2.48
  -2   9  -3   62.24    2.35
   2  -9   3   61.58    2.23
  -3   9  -3    2.95    0.88
  -3   9  -3    3.99    1.02
  -3   9  -3    2.66    0.71
   3  -9   3    2.72    0.79
  -4   9  -3   75.36    2.69
  -4   9  -3   73.69    2.66
  -4   9  -3   69.79    2.73
   4  -9   3   72.62    2.82
  -5   9  -3    0.46    0.53
  -5   9  -3   -0.01    0.74
  -5   9  -3    0.11    0.87
  -5   9  -3    0.49    0.90
  -5   9  -3   -0.16    0.50
   5  -9   3    0.18    0.93
  -6   9  -3   26.69    2.03
  -6   9  -3   27.46    2.07
  -6   9  -3   26.07    1.42
   6  -9   3   28.93    2.27
  -7   9  -3    0.86    0.92
  -7   9  -3    0.83    0.79
  -7   9  -3    0.53    1.02
   7  -9   3    0.41    1.18
  -8   9  -3   23.14    2.42
  -8   9  -3   25.24    2.02
   8  -9   3   26.87    2.69
   8   8  -3   31.33    2.54
  -8  -8   3   34.29    2.44
   7   8  -3   -1.28    1.06
   7   8  -3   -0.75    0.86
  -7  -8   3    0.92    0.91
   6   8  -3  114.53    3.56
   6   8  -3  114.86    3.27
  -6  -8   3  113.70    3.34
   5   8  -3    0.73    0.65
   5   8  -3   -0.77    0.73
   5   8  -3    0.06    0.90
  -5  -8   3    0.20    0.77
  -5  -8   3    0.57    0.67
   4   8  -3   57.35    2.51
   4   8  -3   59.39    1.94
  -4  -8   3   58.74    2.33
  -4  -8   3   58.35    1.96
   3   8  -3   -0.64    0.68
   3   8  -3   -0.38    0.54
   3   8  -3    0.06    0.46
  -3  -8   3    0.26    0.58
  -3  -8   3    0.62    0.51
   2   8  -3    2.74    0.79
   2   8  -3    2.58    0.65
   2   8  -3    2.05    0.48
  -2  -8   3    1.95    0.62
  -2  -8   3    1.94    0.48
   1   8  -3   36.05    1.34
   1   8  -3   36.64    1.82
   1   8  -3   37.10    1.71
  -1  -8   3   38.47    1.31
  -1  -8   3   37.23    1.69
  -1  -8   3   35.92    1.21
   0   8  -3    3.76    0.63
   0   8  -3    4.03    0.81
   0   8  -3    4.08    0.63
   0  -8   3    5.75    0.85
  -1   8  -3   10.83    1.25
  -1   8  -3    9.21    1.12
  -1   8  -3    9.72    1.06
  -2   8  -3    6.20    1.04
  -2   8  -3    5.17    0.88
  -2   8  -3    7.06    1.08
   2  -8   3    5.18    0.78
  -3   8  -3   26.11    0.96
  -3   8  -3   26.95    1.52
  -3   8  -3   25.71    1.49
  -3   8  -3   26.55    1.67
   3  -8   3   24.57    1.67
  -4   8  -3    7.18    1.03
  -4   8  -3    7.20    0.78
  -4   8  -3    5.76    0.82
  -4   8  -3    6.55    0.69
  -4   8  -3    5.50    0.89
   4  -8   3    5.66    0.98
  -5   8  -3    0.66    0.69
  -5   8  -3    1.24    0.50
  -5   8  -3    0.94    0.78
  -5   8  -3    1.19    0.76
   5  -8   3    0.52    0.79
  -6   8  -3    1.49    1.06
  -6   8  -3    0.48    0.60
  -6   8  -3    3.52    0.97
   6  -8   3    2.48    0.96
  -7   8  -3   32.79    2.35
  -7   8  -3   30.45    1.88
  -7   8  -3   26.71    2.15
   7  -8   3   26.51    2.16
  -8   8  -3    7.85    1.14
  -8   8  -3    9.04    1.34
   8  -8   3   10.29    1.58
  -9   8  -3   23.69    2.23
  -9   8  -3   22.01    2.56
   9  -8   3   29.43    2.70
   9   7  -3   13.30    1.66
  -9  -7   3   17.70    2.51
   8   7  -3    6.79    1.25
  -8  -7   3    9.99    1.39
   7   7  -3   18.39    1.94
   7   7  -3   16.22    1.85
  -7  -7   3   19.74    1.80
   6   7  -3   24.47    1.78
   6   7  -3   23.11    1.68
  -6  -7   3   25.18    1.69
  -6  -7   3   28.18    1.94
   5   7  -3   89.14    2.85
   5   7  -3   87.71    2.58
  -5  -7   3   87.07    2.81
  -5  -7   3   88.88    2.61
   4   7  -3    8.82    1.06
   4   7  -3    9.84    1.28
  -4  -7   3    7.79    1.06
  -4  -7   3    8.28    1.17
   3   7  -3   26.85    1.64
   3   7  -3   26.07    1.46
   3   7  -3   27.25    1.20
  -3  -7   3   27.13    1.19
  -3  -7   3   25.34    1.48
   2   7  -3    2.20    0.45
   2   7  -3    2.30    0.74
   2   7  -3    2.43    0.64
  -2  -7   3    1.74    0.55
  -2  -7   3    2.48    0.46
   1   7  -3  176.37    4.23
   1   7  -3  171.54    4.07
   1   7  -3  172.99    3.53
   1   7  -3  170.96    3.62
  -1  -7   3  171.48    3.55
  -1  -7   3  176.25    3.58
  -1  -7   3  174.47    4.06
   0   7  -3   12.56    1.05
   0   7  -3   13.25    0.65
   0   7  -3   14.57    0.90
   0   7  -3   14.68    1.19
   0  -7   3   15.44    0.88
   0  -7   3   14.44    1.18
  -1   7  -3  184.40    4.50
  -1   7  -3  178.42    4.04
  -1   7  -3  186.44    4.43
   1  -7   3  195.54    4.08
  -2   7  -3    4.36    0.47
  -2   7  -3    5.36    0.92
  -2   7  -3    6.49    0.87
  -2   7  -3    6.30    0.97
  -2   7  -3    4.60    0.55
   2  -7   3    6.15    0.91
  -3   7  -3  106.57    2.31
  -3   7  -3  104.72    2.36
  -3   7  -3  106.60    3.03
  -3   7  -3  109.89    2.92
  -3   7  -3  106.69    2.95
   3  -7   3  105.56    3.07
  -4   7  -3   10.76    1.23
  -4   7  -3   10.58    0.74
  -4   7  -3   11.64    1.26
  -4   7  -3   12.07    1.24
   4  -7   3   10.21    1.27
  -5   7  -3   18.82    1.01
  -5   7  -3   18.81    1.52
  -5   7  -3   17.40    1.57
   5  -7   3   16.36    1.55
  -6   7  -3    3.28    0.90
  -6   7  -3    5.28    0.92
  -6   7  -3    4.45    0.69
   6  -7   3    3.96    1.15
  -7   7  -3   10.23    1.74
  -7   7  -3   11.42    1.33
  -7   7  -3   14.39    1.80
   7  -7   3   12.62    1.46
   7  -7   3    9.82    1.63
  -8   7  -3    3.62    1.19
  -8   7  -3    4.89    1.30
  -8   7  -3    4.81    1.01
   8  -7   3    5.20    1.16
   8  -7   3    6.08    1.24
  -9   7  -3   16.78    1.96
  -9   7  -3   19.13    2.25
   9  -7   3   15.62    2.30
   9   6  -3   23.11    2.52
  -9  -6   3   23.63    2.16
   8   6  -3    3.42    1.21
  -8  -6   3    3.07    1.06
   7   6  -3   39.96    2.13
   7   6  -3   38.91    2.14
  -7  -6   3   38.61    1.99
  -7  -6   3   38.24    2.28
   6   6  -3   18.24    1.58
   6   6  -3   17.31    1.47
  -6  -6   3   17.31    1.63
  -6  -6   3   16.77    1.44
   5   6  -3   26.16    1.59
   5   6  -3   25.78    1.43
  -5  -6   3   25.04    1.46
  -5  -6   3   25.15    1.55
   4   6  -3   35.62    1.45
   4   6  -3   33.82    1.61
  -4  -6   3   33.71    1.57
  -4  -6   3   33.55    1.44
   3   6  -3    3.52    0.51
   3   6  -3    3.07    0.60
  -3  -6   3    2.96    0.55
  -3  -6   3    2.52    0.59
   2   6  -3   74.82    1.88
   2   6  -3   75.73    2.25
   2   6  -3   76.63    2.38
  -2  -6   3   72.83    1.91
  -2  -6   3   76.56    2.20
   1   6  -3   21.55    1.15
   1   6  -3   22.10    0.86
   1   6  -3   22.16    1.17
   1   6  -3   20.81    1.26
  -1  -6   3   22.83    1.17
  -1  -6   3   21.68    0.86
   0   6  -3  169.51    3.98
   0   6  -3  165.91    3.82
   0   6  -3  165.32    3.53
   0   6  -3  165.37    3.37
   0  -6   3  172.40    3.87
   0  -6   3  171.02    3.52
  -1   6  -3   34.11    1.46
  -1   6  -3   32.64    1.21
  -1   6  -3   32.82    0.93
  -1   6  -3   32.28    0.96
  -1   6  -3   34.21    1.35
   1  -6   3   35.73    1.22
  -2   6  -3    8.96    0.57
  -2   6  -3    8.71    0.84
  -2   6  -3    8.22    0.92
  -2   6  -3    8.38    0.51
  -2   6  -3   10.20    0.88
   2  -6   3    9.79    0.84
   2  -6   3    9.13    0.97
  -3   6  -3   38.93    1.53
  -3   6  -3   39.03    1.58
  -3   6  -3   39.18    1.53
  -3   6  -3   36.26    1.13
  -3   6  -3   36.73    1.10
   3  -6   3   39.09    1.63
  -4   6  -3   29.70    1.47
  -4   6  -3   29.05    1.06
  -4   6  -3   29.33    1.51
   4  -6   3   27.29    1.49
  -5   6  -3   58.95    1.89
  -5   6  -3   59.28    2.22
  -5   6  -3   60.96    2.10
   5  -6   3   59.93    2.18
  -6   6  -3    1.54    0.63
  -6   6  -3    0.13    0.64
  -6   6  -3    0.76    0.52
   6  -6   3    0.08    0.58
   6  -6   3    0.27    0.66
  -7   6  -3    1.15    0.65
  -7   6  -3    0.90    0.83
  -7   6  -3    1.38    0.84
   7  -6   3    0.63    0.83
   7  -6   3   -0.39    0.68
  -8   6  -3   33.80    2.64
  -8   6  -3   32.30    2.18
  -8   6  -3   33.43    2.18
   8  -6   3   32.77    2.06
   8  -6   3   31.53    2.10
  -9   6  -3   14.32    1.76
  -9   6  -3   14.17    1.86
  -9   6  -3   12.98    1.99
   9  -6   3   13.27    2.06
   9  -6   3   13.44    1.63
 -10   6  -3   11.15    1.63
  10  -6   3   10.71    1.60
  10   5  -3   10.06    1.79
 -10  -5   3   11.83    1.59
   9   5  -3   -0.59    1.14
  -9  -5   3   -0.92    0.97
   8   5  -3   44.91    2.58
  -8  -5   3   48.27    2.38
   7   5  -3   23.62    1.81
  -7  -5   3   21.99    1.70
   6   5  -3   30.51    1.77
   6   5  -3   32.56    1.70
  -6  -5   3   32.87    1.77
  -6  -5   3   32.40    1.69
   5   5  -3    0.20    0.52
   5   5  -3    0.42    0.55
  -5  -5   3    0.30    0.50
  -5  -5   3    0.37    0.52
   4   5  -3   69.93    2.45
   4   5  -3   77.04    2.31
  -4  -5   3   77.39    2.28
  -4  -5   3   76.58    2.19
   3   5  -3    0.34    0.35
   3   5  -3    0.22    0.40
  -3  -5   3    0.03    0.42
  -3  -5   3    0.16    0.36
   2   5  -3    2.64    0.47
   2   5  -3    3.15    0.45
  -2  -5   3    2.52    0.43
  -2  -5   3    2.50    0.49
   1   5  -3   40.59    1.41
   1   5  -3   40.20    1.53
   1   5  -3   39.79    1.43
   1   5  -3   39.95    1.16
  -1  -5   3   40.41    1.40
  -1  -5   3   38.04    1.16
   0   5  -3  133.86    2.83
   0   5  -3  133.58    2.77
   0   5  -3  133.15    3.09
   0   5  -3  133.24    3.23
   0  -5   3  136.46    3.11
   0  -5   3  136.11    2.83
   0  -5   3  134.40    2.78
  -1   5  -3    1.34    0.37
  -1   5  -3    1.99    0.36
  -1   5  -3    1.58    0.42
  -1   5  -3    1.74    0.29
   1  -5   3    1.22    0.35
  -2   5  -3  150.73    3.51
  -2   5  -3  151.70    3.15
  -2   5  -3  157.26    3.46
  -2   5  -3  158.43    3.61
  -2   5  -3  157.65    3.12
   2  -5   3  154.46    3.64
  -3   5  -3    0.17    0.36
  -3   5  -3   -0.05    0.25
  -3   5  -3   -0.26    0.34
   3  -5   3    0.24    0.39
  -4   5  -3   46.70    1.72
  -4   5  -3   46.43    1.37
  -4   5  -3   48.51    1.78
   4  -5   3   46.77    1.71
  -5   5  -3   12.48    0.87
  -5   5  -3   12.64    1.18
  -5   5  -3   12.16    1.09
   5  -5   3   13.26    1.12
   5  -5   3   12.95    0.92
  -6   5  -3   30.22    1.53
  -6   5  -3   26.59    1.29
  -6   5  -3   25.36    1.61
   6  -5   3   27.36    1.50
   6  -5   3   27.56    1.35
  -7   5  -3    2.70    0.80
  -7   5  -3    1.07    0.73
  -7   5  -3    2.26    0.68
   7  -5   3    1.78    0.72
   7  -5   3    1.23    0.68
  -8   5  -3   24.45    1.93
  -8   5  -3   24.95    1.89
   8  -5   3   21.86    1.77
   8  -5   3   22.98    1.78
  -9   5  -3    3.82    1.05
  -9   5  -3    3.56    0.94
  -9   5  -3    5.56    1.27
   9  -5   3    3.09    1.03
   9  -5   3    4.50    1.31
 -10   5  -3   16.36    2.11
 -10   5  -3   14.61    2.62
 -10   5  -3   22.96    2.14
  10  -5   3   18.77    2.26
  10   4  -3    2.96    1.38
 -10  -4   3    3.38    1.32
   9   4  -3   10.99    1.56
  -9  -4   3   12.19    1.48
  -9  -4   3   18.47    2.40
   8   4  -3    3.34    1.01
  -8  -4   3    4.35    1.11
  -8  -4   3    3.98    1.01
   7   4  -3   52.85    2.26
   7   4  -3   53.40    2.25
  -7  -4   3   50.28    2.21
  -7  -4   3   54.38    2.21
   6   4  -3    1.50    0.65
   6   4  -3    1.54    0.75
  -6  -4   3    1.01    0.65
  -6  -4   3    0.30    0.64
   5   4  -3  120.44    3.18
   5   4  -3  119.89    3.06
  -5  -4   3  117.02    3.07
  -5  -4   3  122.85    3.14
   4   4  -3   83.70    2.38
  -4  -4   3   85.09    2.38
  -4  -4   3   84.13    2.32
  -4  -4   3   81.86    2.26
   3   4  -3   26.17    1.21
   3   4  -3   26.38    1.08
  -3  -4   3   27.65    1.17
  -3  -4   3   25.93    1.11
   2   4  -3   74.00    2.05
   2   4  -3   74.29    1.86
  -2  -4   3   74.97    1.90
  -2  -4   3   74.87    1.97
   1   4  -3   11.74    0.80
   1   4  -3   11.77    0.79
   1   4  -3   11.73    0.66
  -1  -4   3   12.23    0.64
  -1  -4   3   11.43    0.74
   0   4  -3  180.03    3.84
   0   4  -3  181.41    3.62
   0   4  -3  182.26    3.59
   0  -4   3  181.16    3.62
   0  -4   3  185.65    3.85
  -1   4  -3  152.41    3.38
  -1   4  -3  159.35    3.28
  -1   4  -3  157.71    3.16
  -1   4  -3  158.92    3.52
  -2   4  -3  180.38    3.51
  -2   4  -3  170.76    3.76
  -2   4  -3  179.58    3.84
  -2   4  -3  170.98    3.45
  -2   4  -3  174.60    3.71
   2  -4   3  173.19    3.85
  -3   4  -3    2.90    0.47
  -3   4  -3    3.78    0.64
  -3   4  -3    3.24    0.44
   3  -4   3    3.74    0.67
  -4   4  -3   82.39    2.30
  -4   4  -3   76.99    2.15
  -4   4  -3   82.58    1.98
   4  -4   3   82.43    2.25
   4  -4   3   80.42    1.98
  -5   4  -3    7.41    0.97
  -5   4  -3    8.26    0.74
  -5   4  -3    8.33    0.84
   5  -4   3    8.91    0.90
   5  -4   3    7.48    0.76
  -6   4  -3   25.48    1.49
  -6   4  -3   24.84    1.25
  -6   4  -3   25.82    1.36
   6  -4   3   25.53    1.26
   6  -4   3   26.88    1.37
  -7   4  -3    7.56    1.05
  -7   4  -3    5.45    1.42
   7  -4   3    7.39    1.14
  -8   4  -3   18.48    1.69
  -8   4  -3   17.54    1.91
  -8   4  -3   16.91    1.67
   8  -4   3   17.56    1.54
   8  -4   3   16.68    1.50
  -9   4  -3   50.03    2.47
  -9   4  -3   44.53    2.44
  -9   4  -3   47.68    2.24
   9  -4   3   46.68    2.40
   9  -4   3   49.94    2.29
 -10   4  -3   -1.17    1.17
 -10   4  -3    2.17    1.00
 -10   4  -3   -0.55    1.08
  10  -4   3    0.59    1.03
 -11   4  -3   28.19    2.70
 -11   4  -3   33.44    2.48
  11  -4   3   27.23    2.63
  10   3  -3    0.43    1.29
 -10  -3   3    0.30    1.15
   9   3  -3    9.55    1.39
  -9  -3   3    8.01    1.40
  -9  -3   3    7.73    1.22
   8   3  -3    4.88    1.09
   8   3  -3    4.68    1.64
  -8  -3   3    4.17    0.97
  -8  -3   3    6.65    1.07
   7   3  -3   26.98    1.75
   7   3  -3   27.79    1.83
  -7  -3   3   25.47    1.64
  -7  -3   3   28.07    1.63
   6   3  -3    1.73    0.66
   6   3  -3    1.96    0.69
  -6  -3   3    3.01    0.66
  -6  -3   3    1.35    0.63
   5   3  -3   59.01    1.93
   5   3  -3   58.17    2.00
  -5  -3   3   56.22    1.93
  -5  -3   3   59.88    1.95
   4   3  -3    0.84    0.47
   4   3  -3    1.06    0.49
  -4  -3   3    0.56    0.77
  -4  -3   3    1.23    0.44
   3   3  -3  185.47    3.97
   3   3  -3  186.13    4.08
  -3  -3   3  183.96    3.99
  -3  -3   3  191.62    4.00
  -3  -3   3  188.67    4.08
   2   3  -3   12.08    0.73
   2   3  -3   12.48    0.82
  -2  -3   3   12.20    0.73
  -2  -3   3   11.50    0.71
   1   3  -3   23.05    0.92
   1   3  -3   20.45    0.94
   1   3  -3   21.25    0.84
  -1  -3   3   22.84    0.84
  -1  -3   3   22.31    0.88
   0   3  -3   24.91    0.91
   0   3  -3   24.10    0.73
   0   3  -3   25.30    0.82
   0  -3   3   25.67    0.91
   0  -3   3   24.14    0.81
  -1   3  -3  208.73    4.15
  -1   3  -3  208.94    4.25
  -1   3  -3  212.62    4.36
  -1   3  -3  212.97    4.10
  -2   3  -3   31.90    0.91
  -2   3  -3   31.64    1.07
  -2   3  -3   31.49    1.10
   2  -3   3   32.54    1.14
  -3   3  -3   14.81    0.79
  -3   3  -3   15.47    0.84
  -3   3  -3   15.88    0.67
   3  -3   3   15.02    0.83
  -4   3  -3   15.22    0.94
  -4   3  -3   14.77    0.82
  -4   3  -3   14.89    0.74
   4  -3   3   15.46    0.78
   4  -3   3   15.22    0.88
  -5   3  -3  100.83    2.50
  -5   3  -3  103.16    2.46
  -5   3  -3  102.98    2.71
   5  -3   3   98.74    2.53
   5  -3   3  100.77    2.44
  -6   3  -3    1.43    0.53
  -6   3  -3    1.13    0.50
  -6   3  -3    1.83    0.47
   6  -3   3    1.19    0.45
   6  -3   3    0.63    0.43
  -7   3  -3   18.86    1.21
  -7   3  -3   17.55    1.43
  -7   3  -3   16.00    1.38
   7  -3   3   17.48    1.20
   7  -3   3   19.40    1.28
  -8   3  -3    6.39    0.95
  -8   3  -3    6.38    1.02
  -8   3  -3    6.27    0.92
   8  -3   3    5.44    0.87
   8  -3   3    5.91    0.85
  -9   3  -3   14.33    1.71
  -9   3  -3   12.73    1.62
  -9   3  -3   16.79    1.79
   9  -3   3   16.24    1.60
   9  -3   3   15.45    1.86
 -10   3  -3    4.11    1.18
 -10   3  -3    2.10    0.96
  10  -3   3    1.15    1.12
 -11   3  -3   38.37    2.64
 -11   3  -3   40.67    2.55
  11  -3   3   39.74    2.60
  10   2  -3    6.04    1.46
 -10  -2   3    3.68    1.12
 -10  -2   3    4.11    1.19
   9   2  -3    1.42    1.07
  -9  -2   3   -1.20    0.89
  -9  -2   3   -0.52    1.08
  -9  -2   3    0.26    0.79
  -9  -2   3   -0.60    0.89
   8   2  -3   23.71    1.98
  -8  -2   3   22.09    1.43
  -8  -2   3   23.03    1.80
  -8  -2   3   23.65    1.42
  -8  -2   3   22.72    1.75
   7   2  -3    8.80    1.08
   7   2  -3    9.22    1.47
  -7  -2   3    6.15    0.91
  -7  -2   3    8.75    1.28
  -7  -2   3    8.41    1.23
  -7  -2   3    6.64    0.88
   6   2  -3   15.78    1.39
   6   2  -3   14.85    1.26
  -6  -2   3   16.08    1.18
  -6  -2   3   13.07    1.23
   5   2  -3  202.94    4.62
   5   2  -3  214.36    4.62
  -5  -2   3  209.64    4.57
  -5  -2   3  198.90    4.57
   4   2  -3   20.31    1.06
   4   2  -3   20.79    1.13
  -4  -2   3   20.33    1.34
  -4  -2   3   19.73    1.05
   3   2  -3  176.21    3.72
   3   2  -3  175.85    3.79
  -3  -2   3  174.55    3.75
  -3  -2   3  164.60    3.68
   2   2  -3   14.11    0.82
   2   2  -3   12.62    0.76
  -2  -2   3   12.19    0.72
  -2  -2   3   12.97    0.78
  -2  -2   3   14.21    0.73
   1   2  -3  297.20    5.96
   1   2  -3  313.92    5.89
  -1  -2   3  301.36    5.97
  -1  -2   3  311.61    5.89
  -1  -2   3  307.08    5.85
   0   2  -3    5.85    0.43
   0   2  -3    7.68    0.46
   0   2  -3    5.67    0.53
   0   2  -3    6.72    0.46
   0  -2   3    7.83    0.49
   0  -2   3    7.71    0.48
  -1   2  -3   51.73    1.29
  -1   2  -3   54.01    1.34
  -1   2  -3   55.39    1.29
  -1   2  -3   53.67    1.43
  -2   2  -3  182.41    3.74
  -2   2  -3  185.69    3.61
  -2   2  -3  183.69    3.75
   2  -2   3  183.50    3.76
  -3   2  -3    6.09    0.49
  -3   2  -3    4.92    0.52
  -3   2  -3    6.04    0.61
   3  -2   3    6.10    0.56
   3  -2   3    6.33    0.52
  -4   2  -3  125.86    2.73
  -4   2  -3  124.26    2.71
  -4   2  -3  119.30    2.88
   4  -2   3  120.46    2.73
   4  -2   3  123.94    2.71
  -5   2  -3    3.95    0.62
  -5   2  -3    2.72    0.52
  -5   2  -3    2.94    0.47
   5  -2   3    2.64    0.43
   5  -2   3    4.36    0.62
  -6   2  -3   57.31    1.94
  -6   2  -3   57.31    1.74
  -6   2  -3   58.45    1.77
   6  -2   3   55.66    1.70
   6  -2   3   57.32    1.79
  -7   2  -3    1.46    0.58
  -7   2  -3    2.14    0.58
  -7   2  -3    1.44    0.62
   7  -2   3    1.82    0.58
   7  -2   3    1.03    0.50
  -8   2  -3   52.30    1.99
  -8   2  -3   49.53    2.04
  -8   2  -3   52.20    2.26
   8  -2   3   54.12    2.06
   8  -2   3   52.51    1.87
  -9   2  -3    1.86    0.87
  -9   2  -3    2.44    0.86
  -9   2  -3    2.03    0.82
  -9   2  -3    1.13    1.06
   9  -2   3    1.81    0.75
   9  -2   3    3.39    1.01
 -10   2  -3   28.53    2.09
 -10   2  -3   27.38    2.10
 -10   2  -3   26.35    2.51
  10  -2   3   30.87    1.92
 -11   2  -3    9.68    1.42
 -11   2  -3    7.22    1.36
  11  -2   3    6.03    1.28
  10   1  -3    3.39    1.25
 -10  -1   3    1.48    1.25
 -10  -1   3    2.21    1.07
   9   1  -3   -0.70    1.02
  -9  -1   3    0.25    1.08
  -9  -1   3   -1.20    0.84
  -9  -1   3   -0.96    0.92
  -9  -1   3   -0.70    0.76
   8   1  -3   26.16    1.96
   8   1  -3   27.37    2.42
  -8  -1   3   22.96    1.44
  -8  -1   3   27.43    1.85
  -8  -1   3   28.66    1.61
  -8  -1   3   25.82    1.81
   7   1  -3   13.88    1.47
   7   1  -3   14.13    1.49
  -7  -1   3   12.49    1.08
  -7  -1   3   13.92    1.48
  -7  -1   3   12.64    1.29
  -7  -1   3   13.28    1.06
   6   1  -3   96.43    2.71
   6   1  -3   94.63    2.78
  -6  -1   3   90.66    2.28
  -6  -1   3   96.42    2.66
  -6  -1   3   94.55    2.77
  -6  -1   3   94.19    2.32
   5   1  -3    0.53    0.49
   5   1  -3    0.72    0.53
  -5  -1   3    0.49    0.47
  -5  -1   3    0.44    0.32
  -5  -1   3    0.48    0.48
   4   1  -3  343.65    6.85
   4   1  -3  342.92    6.80
  -4  -1   3  335.36    6.81
  -4  -1   3  338.95    6.80
   3   1  -3   27.12    1.13
   3   1  -3   25.86    1.08
  -3  -1   3   26.58    1.06
  -3  -1   3   26.79    1.06
   2   1  -3   70.02    1.81
   2   1  -3   71.40    1.78
  -2  -1   3   68.21    1.77
  -2  -1   3   71.36    1.77
   1   1  -3   89.82    2.00
   1   1  -3   86.44    2.03
  -1  -1   3   94.34    1.91
  -1  -1   3   85.43    2.02
  -1  -1   3   88.80    2.00
   0   1  -3    1.12    0.22
   0   1  -3    1.49    0.24
   0   1  -3    1.86    0.28
   0   1  -3    1.51    0.25
   0  -1   3    1.50    0.26
   0  -1   3    1.76    0.30
   0  -1   3    1.27    0.23
   0  -1   3    1.63    0.27
  -1   1  -3  354.99    6.54
  -1   1  -3  343.34    6.51
  -2   1  -3    9.85    0.50
  -2   1  -3   10.11    0.55
  -2   1  -3   10.53    0.49
  -3   1  -3    5.25    0.47
  -3   1  -3    5.27    0.44
  -3   1  -3    6.12    0.59
   3  -1   3    6.01    0.47
   3  -1   3    5.83    0.49
  -4   1  -3  110.16    2.48
  -4   1  -3  112.86    2.39
  -4   1  -3  105.85    2.59
   4  -1   3  112.46    2.47
   4  -1   3  108.11    2.38
  -5   1  -3    3.52    0.46
  -5   1  -3    2.35    0.44
  -5   1  -3    3.37    0.45
  -5   1  -3    3.57    0.57
   5  -1   3    3.35    0.50
   5  -1   3    2.74    0.38
  -6   1  -3   97.53    2.49
  -6   1  -3  100.98    2.70
  -6   1  -3   93.77    2.59
  -6   1  -3   98.34    2.37
   6  -1   3   95.05    2.32
   6  -1   3   95.78    2.48
  -7   1  -3    8.12    0.99
  -7   1  -3    8.96    1.15
  -7   1  -3    8.70    1.01
  -7   1  -3    7.57    0.99
   7  -1   3    6.63    0.82
   7  -1   3    7.99    0.98
  -8   1  -3   15.26    1.44
  -8   1  -3   12.97    1.31
  -8   1  -3   12.69    1.22
  -8   1  -3   11.53    1.24
   8  -1   3   11.28    1.27
   8  -1   3   13.25    1.09
  -9   1  -3    2.17    1.02
  -9   1  -3    1.06    0.74
  -9   1  -3   -0.20    0.71
  -9   1  -3    1.72    0.81
   9  -1   3    1.75    0.93
   9  -1   3    1.06    0.67
 -10   1  -3    7.26    1.16
 -10   1  -3    7.47    1.04
 -10   1  -3    9.77    1.72
  10  -1   3    8.49    1.44
 -11   1  -3   10.38    1.44
 -11   1  -3    7.54    1.28
  11  -1   3    7.35    1.24
  10   0  -3   21.37    2.17
 -10   0   3   15.31    2.12
 -10   0   3   15.42    1.76
 -10   0   3   13.92    2.12
   9   0  -3    0.59    0.95
  -9   0   3   -0.17    1.03
  -9   0   3    0.35    0.99
  -9   0   3    0.07    0.87
  -9   0   3   -0.96    0.76
   8   0  -3   13.82    1.74
   8   0  -3   14.13    2.24
  -8   0   3   12.04    1.63
  -8   0   3   14.96    1.44
  -8   0   3   12.12    1.32
  -8   0   3   15.20    1.64
   7   0  -3   17.20    1.49
   7   0  -3   18.73    1.61
  -7   0   3   17.43    1.19
  -7   0   3   16.86    1.42
  -7   0   3   15.32    1.66
   6   0  -3   73.43    2.30
   6   0  -3   72.56    2.40
  -6   0   3   70.45    2.29
  -6   0   3   70.66    1.98
  -6   0   3   72.66    2.27
   5   0  -3    6.45    1.06
   5   0  -3    7.16    0.95
  -5   0   3    5.15    0.67
  -5   0   3    6.04    0.89
  -5   0   3    5.75    0.82
   4   0  -3  256.32    5.26
   4   0  -3  251.54    5.29
  -4   0   3  248.77    4.96
  -4   0   3  261.06    5.27
  -4   0   3  251.75    5.26
   3   0  -3   15.40    0.86
   3   0  -3   13.81    0.60
   3   0  -3   15.85    0.95
  -3   0   3   14.36    0.83
  -3   0   3   14.79    0.83
  -3   0   3   15.11    0.64
   2   0  -3    6.84    0.66
   2   0  -3    5.23    0.59
  -2   0   3    4.98    0.56
  -2   0   3    6.37    0.46
  -2   0   3    4.79    0.54
   1   0  -3    0.66    0.24
   1   0  -3    0.41    0.21
  -1   0   3    0.45    0.18
  -1   0   3    0.75    0.23
  -1   0   3    0.43    0.21
   0   0  -3    0.19    0.11
   0   0  -3    0.11    0.16
   0   0  -3   -0.01    0.13
   0   0  -3    0.54    0.20
   0   0   3    0.10    0.15
   0   0   3    0.10    0.10
   0   0   3   -0.04    0.15
   0   0   3    0.62    0.18
  -1   0  -3  188.82    3.60
  -1   0  -3  182.71    3.53
  -1   0  -3  183.61    3.56
   1   0   3  185.58    3.58
   1   0   3  182.00    3.52
  -2   0  -3  143.47    2.85
  -2   0  -3  145.94    2.94
  -2   0  -3  139.24    2.75
   2   0   3  139.64    2.93
  -3   0  -3  517.45    9.55
  -3   0  -3  501.12    9.66
  -3   0  -3  531.42    9.39
   3   0   3  536.63    9.57
   3   0   3  484.83    9.38
  -4   0  -3    3.91    0.38
  -4   0  -3    5.35    0.55
  -4   0  -3    5.28    0.62
   4   0   3    5.39    0.52
   4   0   3    4.24    0.41
  -5   0  -3  172.77    3.81
  -5   0  -3  170.37    3.43
  -5   0  -3  167.33    3.64
   5   0   3  169.45    3.64
   5   0   3  165.10    3.40
  -6   0  -3    1.20    0.47
  -6   0  -3    1.42    0.43
  -6   0  -3    2.04    0.41
  -6   0  -3    1.06    0.48
   6   0   3    1.23    0.40
   6   0   3    1.30    0.33
  -7   0  -3   48.63    1.89
  -7   0  -3   45.20    1.77
  -7   0  -3   48.97    1.51
  -7   0  -3   46.04    1.71
   7   0   3   47.58    1.73
   7   0   3   46.39    1.46
  -8   0  -3   11.14    1.18
  -8   0  -3   12.01    1.36
  -8   0  -3   12.14    1.04
  -8   0  -3   12.19    1.23
   8   0   3   11.34    1.22
   8   0   3   11.23    0.99
  -9   0  -3    8.11    1.01
  -9   0  -3    8.63    1.15
  -9   0  -3    8.08    1.09
  -9   0  -3    8.35    1.14
   9   0   3    9.76    1.11
   9   0   3    7.45    0.98
 -10   0  -3   11.90    1.74
 -10   0  -3   11.80    1.43
 -10   0  -3   11.43    1.63
 -10   0  -3   16.15    1.77
  10   0   3   13.58    1.41
 -11   0  -3   10.60    1.37
 -11   0  -3   12.13    1.99
  10  -1  -3    2.23    1.12
 -10   1   3    2.18    1.17
 -10   1   3    0.17    1.49
 -10   1   3    0.61    1.17
   9  -1  -3   35.31    2.17
  -9   1   3   35.87    2.07
  -9   1   3   32.60    2.40
  -9   1   3   35.58    2.19
  -9   1   3   34.13    2.15
   8  -1  -3    2.00    1.00
  -8   1   3    2.73    0.94
  -8   1   3    1.50    0.79
  -8   1   3    3.86    0.88
   7  -1  -3   34.09    1.86
   7  -1  -3   33.03    1.78
  -7   1   3   32.99    1.52
  -7   1   3   34.34    1.76
  -7   1   3   26.33    2.61
   6  -1  -3    2.54    0.77
   6  -1  -3    2.77    0.72
  -6   1   3    3.22    0.59
  -6   1   3    2.12    0.70
  -6   1   3    2.39    0.63
   5  -1  -3  139.23    3.31
   5  -1  -3  136.54    3.37
  -5   1   3  140.19    3.35
  -5   1   3  135.46    3.09
  -5   1   3  130.91    3.28
   4  -1  -3   65.34    1.84
   4  -1  -3   63.50    1.93
   4  -1  -3   61.22    1.65
  -4   1   3   63.89    1.87
  -4   1   3   64.18    1.86
  -4   1   3   61.87    1.66
   3  -1  -3   89.23    2.19
   3  -1  -3   91.50    2.29
   3  -1  -3   83.49    2.00
  -3   1   3   89.74    2.21
  -3   1   3   88.88    2.18
  -3   1   3   90.62    2.04
   2  -1  -3   57.74    1.58
   2  -1  -3   55.57    1.50
   2  -1  -3   56.89    1.37
  -2   1   3   58.37    1.40
  -2   1   3   55.79    1.49
  -2   1   3   59.41    1.54
   1  -1  -3   76.85    1.80
   1  -1  -3   81.47    1.84
   1  -1  -3   81.54    1.72
  -1   1   3   80.22    1.82
  -1   1   3   83.58    1.73
  -1   1   3   80.10    1.83
   0  -1  -3    4.99    0.37
   0  -1  -3    4.79    0.37
   0  -1  -3    5.50    0.40
   0   1   3    4.76    0.35
   0   1   3    4.87    0.37
   0   1   3    4.30    0.36
  -1  -1  -3   15.61    0.51
  -1  -1  -3   14.60    0.55
   1   1   3   15.30    0.56
   1   1   3   15.36    0.47
  -2  -1  -3  444.88    8.54
  -2  -1  -3  479.21    8.64
   2   1   3  466.79    8.64
  -3  -1  -3  194.12    3.89
  -3  -1  -3  190.77    3.79
   3   1   3  195.88    3.80
   3   1   3  181.98    3.87
  -4  -1  -3   27.82    1.07
   4   1   3   27.91    0.97
  -5  -1  -3  139.18    3.21
  -5  -1  -3  140.08    3.12
   5   1   3  138.50    3.09
  -6  -1  -3    0.08    0.30
  -6  -1  -3    0.58    0.38
  -6  -1  -3    0.33    0.45
   6   1   3    0.38    0.42
   6   1   3    0.19    0.28
  -7  -1  -3   70.54    2.18
  -7  -1  -3   69.51    2.16
  -7  -1  -3   74.12    2.31
  -7  -1  -3   70.77    1.81
   7   1   3   70.22    1.82
   7   1   3   73.59    2.17
  -8  -1  -3    0.16    0.42
  -8  -1  -3    0.31    0.64
  -8  -1  -3   -0.01    0.55
  -8  -1  -3    0.09    0.51
   8   1   3   -0.10    0.61
   8   1   3    0.39    0.45
  -9  -1  -3    1.50    0.70
  -9  -1  -3    1.45    0.89
  -9  -1  -3    1.82    0.79
  -9  -1  -3    1.19    0.59
   9   1   3    2.03    0.86
   9   1   3    2.29    0.59
 -10  -1  -3    9.07    1.61
 -10  -1  -3    8.68    1.29
 -10  -1  -3    7.06    1.10
 -10  -1  -3    9.20    1.21
  10   1   3    8.84    1.21
 -11  -1  -3    0.39    0.97
 -11  -1  -3    1.39    1.12
  11   1   3    0.66    0.83
 -12  -1  -3   22.20    2.50
  10  -2  -3   14.18    2.12
 -10   2   3   13.26    2.04
 -10   2   3   10.78    1.54
   9  -2  -3   47.44    2.40
  -9   2   3   45.55    2.38
  -9   2   3   48.06    2.42
  -9   2   3   44.36    2.66
   8  -2  -3    1.19    1.01
   8  -2  -3    1.18    0.76
  -8   2   3    1.85    0.98
  -8   2   3    1.28    0.78
  -8   2   3    1.72    0.87
   7  -2  -3    1.02    0.75
   7  -2  -3    1.91    0.74
  -7   2   3    1.40    0.65
  -7   2   3    0.89    0.72
  -7   2   3    1.18    1.19
   6  -2  -3   86.65    2.53
   6  -2  -3   80.53    2.60
  -6   2   3   83.19    2.51
  -6   2   3   83.87    2.40
  -6   2   3   89.48    2.60
   5  -2  -3   14.28    0.97
   5  -2  -3   13.75    1.15
   5  -2  -3   16.48    1.11
  -5   2   3   13.62    1.02
  -5   2   3   13.69    0.95
  -5   2   3   15.41    1.15
   4  -2  -3  133.97    3.20
   4  -2  -3  134.31    3.03
   4  -2  -3  133.07    3.10
  -4   2   3  135.03    3.04
  -4   2   3  130.37    3.10
  -4   2   3  138.30    3.18
   3  -2  -3   20.28    0.85
   3  -2  -3   20.97    1.14
   3  -2  -3   19.61    0.91
  -3   2   3   19.13    0.90
  -3   2   3   20.56    0.89
  -3   2   3   21.56    1.03
   2  -2  -3   93.28    2.17
   2  -2  -3   96.59    2.30
   2  -2  -3   92.13    2.13
  -2   2   3   96.33    2.15
  -2   2   3   91.68    2.16
  -2   2   3   98.89    2.27
   1  -2  -3   19.26    0.79
   1  -2  -3   19.21    0.70
   1  -2  -3   18.74    0.70
  -1   2   3   17.98    0.71
  -1   2   3   20.25    0.74
  -1   2   3   19.40    0.75
   0  -2  -3  435.71    7.96
   0  -2  -3  421.07    7.94
   0  -2  -3  452.57    7.99
   0   2   3  432.53    7.97
   0   2   3  411.95    7.94
   0   2   3  425.54    7.95
  -1  -2  -3   24.65    0.78
  -1  -2  -3   23.96    0.72
  -1  -2  -3   25.58    0.78
   1   2   3   26.59    0.66
   1   2   3   24.12    0.76
  -2  -2  -3   73.36    1.61
  -2  -2  -3   74.83    1.69
   2   2   3   72.28    1.69
  -3  -2  -3   64.03    1.61
   3   2   3   64.42    1.62
   3   2   3   64.76    1.53
  -4  -2  -3  178.58    3.74
  -4  -2  -3  176.97    3.67
   4   2   3  174.07    3.74
   4   2   3  179.36    3.67
  -5  -2  -3  104.65    2.55
  -5  -2  -3  104.65    2.48
   5   2   3  103.23    2.46
  -6  -2  -3   18.88    1.09
  -6  -2  -3   19.50    1.03
   6   2   3   20.39    1.05
  -7  -2  -3   31.38    1.44
  -7  -2  -3   32.49    1.49
   7   2   3   32.45    1.42
  -8  -2  -3    2.82    0.72
  -8  -2  -3    3.21    0.74
  -8  -2  -3    3.40    0.50
  -8  -2  -3    2.96    0.68
   8   2   3    2.93    0.50
   8   2   3    3.91    0.70
  -9  -2  -3    6.70    0.96
  -9  -2  -3    5.19    0.97
  -9  -2  -3    5.38    0.65
  -9  -2  -3    6.73    0.95
   9   2   3    5.15    0.70
   9   2   3    7.08    1.06
 -10  -2  -3    2.89    0.93
 -10  -2  -3    3.38    0.70
 -10  -2  -3    2.75    0.95
 -10  -2  -3    2.15    1.11
  10   2   3    2.73    0.69
 -11  -2  -3   -1.16    1.01
 -11  -2  -3    2.41    1.02
  11   2   3    1.38    0.80
 -12  -2  -3   13.38    2.21
 -12  -2  -3   16.56    2.43
  10  -3  -3   42.82    2.60
 -10   3   3   36.31    2.69
 -10   3   3   39.12    2.53
   9  -3  -3    2.03    0.97
  -9   3   3    1.33    0.94
  -9   3   3    2.84    1.05
   8  -3  -3    8.10    1.19
   8  -3  -3    8.44    1.18
  -8   3   3    7.47    1.10
  -8   3   3    8.22    1.44
  -8   3   3    7.30    1.17
   7  -3  -3    0.09    0.66
   7  -3  -3    0.52    0.72
  -7   3   3   -0.38    0.72
  -7   3   3   -1.06    0.58
  -7   3   3   -0.63    1.11
   6  -3  -3    8.97    1.05
   6  -3  -3    6.48    0.89
   6  -3  -3    6.55    0.85
  -6   3   3    7.02    1.04
  -6   3   3    7.09    1.05
  -6   3   3    6.90    0.89
   5  -3  -3   33.04    1.53
   5  -3  -3   31.99    1.40
  -5   3   3   34.64    1.56
  -5   3   3   34.41    1.42
  -5   3   3   32.76    1.39
   4  -3  -3   57.08    1.74
   4  -3  -3   56.37    1.89
   4  -3  -3   59.20    1.76
  -4   3   3   58.16    1.73
  -4   3   3   58.93    1.85
  -4   3   3   57.04    1.73
   3  -3  -3   13.32    0.81
   3  -3  -3   11.09    0.91
   3  -3  -3   13.33    0.80
  -3   3   3   12.93    0.82
  -3   3   3   12.83    0.79
  -3   3   3   14.50    0.98
   2  -3  -3   28.12    1.02
   2  -3  -3   26.65    0.97
  -2   3   3   30.13    1.19
  -2   3   3   26.98    0.96
  -2   3   3   30.35    1.08
   1  -3  -3  176.25    3.53
   1  -3  -3  177.18    3.65
   1  -3  -3  179.75    3.63
  -1   3   3  182.80    3.67
  -1   3   3  176.40    3.63
  -1   3   3  173.04    3.54
   0  -3  -3  184.14    3.67
   0  -3  -3  185.29    3.63
   0  -3  -3  175.16    3.54
   0   3   3  184.36    3.62
   0   3   3  189.11    3.68
   0   3   3  177.32    3.54
  -1  -3  -3    1.31    0.27
  -1  -3  -3    1.02    0.19
  -1  -3  -3    0.94    0.20
  -1  -3  -3    1.63    0.25
   1   3   3    1.33    0.27
   1   3   3    1.08    0.21
  -2  -3  -3   46.70    1.24
  -2  -3  -3   47.74    1.14
   2   3   3   46.70    1.25
   2   3   3   48.47    1.03
  -3  -3  -3  167.24    3.48
  -3  -3  -3  169.98    3.39
   3   3   3  164.95    3.47
   3   3   3  169.12    3.37
  -4  -3  -3  438.49    8.44
  -4  -3  -3  452.62    8.52
   4   3   3  449.65    8.44
   4   3   3  443.60    8.53
  -5  -3  -3   11.05    0.79
  -5  -3  -3   11.79    0.77
   5   3   3   11.72    0.76
   5   3   3   11.40    0.78
  -6  -3  -3   56.11    1.75
  -6  -3  -3   54.00    1.72
   6   3   3   55.43    1.71
  -7  -3  -3    5.49    0.72
  -7  -3  -3    5.67    0.98
   7   3   3    7.21    0.95
  -8  -3  -3   31.15    1.66
  -8  -3  -3   29.66    1.70
   8   3   3   30.89    1.61
   8   3   3   32.13    1.20
  -9  -3  -3   11.72    0.98
  -9  -3  -3   13.64    1.43
  -9  -3  -3   10.10    1.38
  -9  -3  -3   10.50    1.57
   9   3   3   10.68    1.53
 -10  -3  -3    2.29    0.90
 -10  -3  -3    2.59    0.94
 -10  -3  -3    4.54    1.18
 -11  -3  -3    3.09    1.12
 -11  -3  -3    4.97    1.15
 -11  -3  -3    1.75    1.76
 -12  -3  -3   14.13    2.38
 -10   4   3    1.06    1.19
 -10   4   3    2.35    1.26
   9  -4  -3   31.59    2.22
  -9   4   3   26.83    2.26
  -9   4   3   25.76    2.17
   8  -4  -3   23.76    2.11
   8  -4  -3   25.00    1.82
  -8   4   3   23.23    1.77
  -8   4   3   27.20    1.89
  -8   4   3   21.59    2.13
   7  -4  -3   13.57    1.53
   7  -4  -3    9.44    1.49
  -7   4   3    9.25    1.59
  -7   4   3   11.02    1.41
  -7   4   3   10.50    1.79
   6  -4  -3    0.71    0.56
   6  -4  -3    1.37    0.68
   6  -4  -3    1.56    0.62
  -6   4   3    1.41    0.71
  -6   4   3    1.84    0.59
  -6   4   3    1.38    0.64
   5  -4  -3  194.60    4.37
   5  -4  -3  190.55    4.23
   5  -4  -3  181.87    4.39
  -5   4   3  192.34    4.43
  -5   4   3  184.50    4.23
  -5   4   3  190.21    4.32
   4  -4  -3    7.12    0.83
   4  -4  -3    6.85    0.78
   4  -4  -3    5.52    0.86
  -4   4   3    5.98    0.74
  -4   4   3    7.15    0.87
  -4   4   3    5.86    1.01
   3  -4  -3  160.61    3.48
   3  -4  -3  167.55    3.65
   3  -4  -3  162.43    3.70
  -3   4   3  165.06    3.65
  -3   4   3  170.28    3.74
  -3   4   3  158.09    3.49
   2  -4  -3    9.62    0.73
   2  -4  -3    7.27    0.74
   2  -4  -3    9.34    0.66
  -2   4   3   10.04    0.80
  -2   4   3    8.88    0.63
  -2   4   3   10.00    0.91
   1  -4  -3  146.74    3.16
   1  -4  -3  147.45    3.16
   1  -4  -3  144.54    2.96
  -1   4   3  141.62    2.96
  -1   4   3  148.07    3.18
   0  -4  -3  193.96    3.83
   0  -4  -3  190.14    3.86
   0  -4  -3  184.44    3.63
   0   4   3  184.12    3.66
   0   4   3  186.47    3.64
   0   4   3  191.70    3.82
  -1  -4  -3   15.68    0.62
  -1  -4  -3   14.00    0.57
  -1  -4  -3   13.97    0.53
  -1  -4  -3   16.20    0.78
   1   4   3   14.12    0.73
   1   4   3   14.08    0.61
   1   4   3   13.79    0.59
  -2  -4  -3   13.96    0.54
  -2  -4  -3   11.52    0.74
  -2  -4  -3   12.66    0.53
  -2  -4  -3   13.88    0.64
   2   4   3   12.46    0.69
   2   4   3   13.54    0.54
  -3  -4  -3   37.80    1.05
  -3  -4  -3   34.67    1.15
   3   4   3   35.66    1.01
   3   4   3   34.16    1.13
  -4  -4  -3    1.40    0.35
  -4  -4  -3    1.42    0.38
   4   4   3    1.12    0.35
   4   4   3    2.08    0.37
  -5  -4  -3   45.65    1.43
  -5  -4  -3   45.53    1.46
   5   4   3   44.04    1.45
   5   4   3   46.02    1.40
  -6  -4  -3    7.81    0.85
  -6  -4  -3    5.60    0.78
   6   4   3    6.62    0.78
  -7  -4  -3   23.68    1.28
  -7  -4  -3   22.41    1.27
   7   4   3   22.32    1.27
  -8  -4  -3    0.31    0.62
  -8  -4  -3    0.80    0.60
   8   4   3    0.42    0.47
   8   4   3    0.74    0.63
  -9  -4  -3   45.58    2.05
  -9  -4  -3   46.61    2.23
  -9  -4  -3   44.70    1.98
   9   4   3   45.93    2.14
 -10  -4  -3    1.85    0.92
 -10  -4  -3    3.54    1.03
 -11  -4  -3    9.74    1.34
 -11  -4  -3   10.81    1.37
 -11  -4  -3   11.36    1.67
  10  -5  -3    6.42    1.31
 -10   5   3    7.35    1.47
   9  -5  -3    6.16    1.28
  -9   5   3    5.91    1.15
  -9   5   3    5.06    1.21
   8  -5  -3    5.38    1.28
   8  -5  -3    6.11    1.15
  -8   5   3    3.75    1.32
  -8   5   3    4.79    1.12
  -8   5   3    3.67    1.05
   7  -5  -3    5.72    0.96
   7  -5  -3    4.93    1.01
   7  -5  -3    4.98    0.91
  -7   5   3    5.52    1.05
  -7   5   3    5.54    1.17
  -7   5   3    4.86    1.01
   6  -5  -3   16.06    1.42
   6  -5  -3   18.96    1.34
   6  -5  -3   16.18    1.50
  -6   5   3   16.69    1.31
  -6   5   3   18.00    1.51
  -6   5   3   16.11    1.59
   5  -5  -3    0.19    0.55
   5  -5  -3   -0.34    0.50
   5  -5  -3    0.21    0.52
  -5   5   3    0.61    0.65
  -5   5   3    0.28    0.56
  -5   5   3   -0.08    0.46
   4  -5  -3   61.11    1.77
   4  -5  -3   59.84    1.98
   4  -5  -3   60.25    1.97
  -4   5   3   63.22    2.08
  -4   5   3   58.60    1.96
  -4   5   3   57.84    1.76
   3  -5  -3  111.05    2.57
   3  -5  -3  116.47    2.85
   3  -5  -3  113.45    2.85
  -3   5   3  110.71    2.59
  -3   5   3  116.19    2.91
  -3   5   3  111.31    2.81
   2  -5  -3   17.14    0.78
   2  -5  -3   17.53    0.95
   2  -5  -3   19.05    0.99
  -2   5   3   18.34    1.05
  -2   5   3   17.57    0.79
  -2   5   3   18.09    1.01
   1  -5  -3   89.56    2.21
   1  -5  -3   87.81    1.92
   1  -5  -3   87.80    2.20
  -1   5   3   88.39    2.21
  -1   5   3   87.86    2.24
  -1   5   3   87.66    2.03
  -1   5   3   84.65    1.92
   0  -5  -3   31.42    1.08
   0  -5  -3   33.22    1.17
   0  -5  -3   30.75    0.85
   0   5   3   29.63    1.08
   0   5   3   31.59    0.99
   0   5   3   32.51    1.22
   0   5   3   30.52    0.83
  -1  -5  -3  306.50    5.68
  -1  -5  -3  306.84    5.93
  -1  -5  -3  303.35    5.85
  -1  -5  -3  315.83    6.02
   1   5   3  302.31    5.90
   1   5   3  298.72    5.86
   1   5   3  304.11    6.00
  -2  -5  -3    9.22    0.48
  -2  -5  -3    9.13    0.56
  -2  -5  -3    9.46    0.84
  -2  -5  -3    9.77    0.63
   2   5   3    7.01    0.72
   2   5   3    8.27    0.55
  -3  -5  -3  119.01    2.72
  -3  -5  -3  122.31    2.55
   3   5   3  120.89    2.53
   3   5   3  119.51    2.72
   3   5   3  120.05    2.53
  -4  -5  -3  115.36    2.65
  -4  -5  -3  115.99    2.56
   4   5   3  112.21    2.42
   4   5   3  114.35    2.66
   4   5   3  117.72    2.55
   4   5   3  114.99    2.45
  -5  -5  -3  159.22    3.49
  -5  -5  -3  155.72    3.45
   5   5   3  155.19    3.23
   5   5   3  160.72    3.43
   5   5   3  157.41    3.50
  -6  -5  -3   22.75    1.14
  -6  -5  -3   24.28    1.20
   6   5   3   26.54    0.96
   6   5   3   24.24    1.16
   6   5   3   25.31    1.17
  -7  -5  -3    5.09    0.89
  -7  -5  -3    6.57    1.01
   7   5   3    6.76    0.98
  -8  -5  -3   11.10    1.24
  -8  -5  -3   10.15    1.24
   8   5   3   10.21    1.21
  -9  -5  -3    8.29    1.41
  -9  -5  -3    5.34    0.95
   9   5   3    7.53    1.09
   9   5   3    6.20    1.11
 -10  -5  -3    0.56    0.81
 -10  -5  -3    1.02    0.90
 -10  -5  -3    2.20    1.03
 -11  -5  -3    1.67    1.03
 -11  -5  -3    4.84    1.43
 -11  -5  -3    3.03    1.09
   9  -6  -3    0.44    1.03
  -9   6   3    1.53    1.28
  -9   6   3    2.76    1.10
   8  -6  -3    6.22    1.35
   8  -6  -3    3.56    1.01
  -8   6   3    4.33    1.02
  -8   6   3    4.73    1.11
   7  -6  -3   37.63    2.23
   7  -6  -3   37.00    2.02
   7  -6  -3   38.67    2.07
  -7   6   3   38.13    2.30
  -7   6   3   37.89    2.14
  -7   6   3   36.06    2.10
   6  -6  -3   13.08    1.69
   6  -6  -3   10.33    1.32
   6  -6  -3   11.53    1.54
  -6   6   3    9.01    1.21
  -6   6   3    9.35    1.62
  -6   6   3   11.72    1.76
   5  -6  -3    5.39    0.73
   5  -6  -3    4.66    0.77
   5  -6  -3    5.46    0.82
  -5   6   3    4.93    0.69
  -5   6   3    5.89    0.98
  -5   6   3    5.32    0.87
   4  -6  -3   69.56    2.25
   4  -6  -3   65.47    2.19
   4  -6  -3   65.48    1.89
  -4   6   3   70.00    2.32
  -4   6   3   66.09    1.93
  -4   6   3   71.83    2.27
   3  -6  -3   16.21    1.11
   3  -6  -3   15.41    1.06
   3  -6  -3   15.63    0.84
  -3   6   3   16.52    1.14
  -3   6   3   17.10    1.18
  -3   6   3   16.32    0.85
   2  -6  -3   36.60    1.41
   2  -6  -3   35.53    1.39
   2  -6  -3   36.60    1.10
  -2   6   3   38.01    1.46
  -2   6   3   35.48    1.10
  -2   6   3   37.26    1.45
   1  -6  -3    2.10    0.43
   1  -6  -3    2.50    0.31
   1  -6  -3    2.39    0.46
  -1   6   3    2.63    0.39
  -1   6   3    2.86    0.40
  -1   6   3    2.05    0.45
  -1   6   3    2.54    0.48
   0  -6  -3   14.87    0.55
   0  -6  -3   15.84    0.92
   0  -6  -3   15.02    0.84
   0   6   3   15.44    0.99
   0   6   3   15.68    0.54
   0   6   3   15.48    0.84
   0   6   3   16.63    0.80
  -1  -6  -3   53.42    1.47
  -1  -6  -3   55.10    1.63
  -1  -6  -3   54.35    1.55
  -1  -6  -3   54.37    1.18
  -1  -6  -3   53.88    1.21
   1   6   3   52.21    1.49
   1   6   3   54.23    1.52
   1   6   3   53.49    1.65
  -2  -6  -3    3.58    0.54
  -2  -6  -3    3.11    0.36
  -2  -6  -3    2.74    0.41
  -2  -6  -3    2.90    0.47
   2   6   3    2.72    0.38
   2   6   3    1.88    0.42
  -3  -6  -3    5.89    0.79
  -3  -6  -3    5.25    0.64
  -3  -6  -3    5.11    0.50
   3   6   3    5.74    0.45
   3   6   3    5.39    0.63
   3   6   3    5.06    0.54
  -4  -6  -3   58.12    1.53
  -4  -6  -3   56.96    1.67
   4   6   3   55.98    1.63
   4   6   3   57.72    1.50
   4   6   3   56.62    1.52
  -5  -6  -3   37.99    1.31
  -5  -6  -3   37.41    1.38
   5   6   3   35.92    1.32
   5   6   3   37.72    1.17
   5   6   3   36.16    1.20
   5   6   3   38.40    1.26
  -6  -6  -3  125.77    3.00
  -6  -6  -3  118.83    2.97
   6   6   3  122.58    2.94
   6   6   3  122.27    2.98
   6   6   3  121.82    2.78
   6   6   3  122.33    2.74
  -7  -6  -3    0.35    0.63
  -7  -6  -3    0.11    0.54
   7   6   3    0.50    0.44
   7   6   3    0.27    0.44
   7   6   3   -0.22    0.49
   7   6   3   -0.06    0.44
  -8  -6  -3   90.01    2.76
  -8  -6  -3   95.60    2.71
   8   6   3   90.79    2.74
   8   6   3   87.18    2.37
  -9  -6  -3    0.72    0.76
  -9  -6  -3    1.09    0.79
   9   6   3    0.00    0.62
 -10  -6  -3   31.97    2.23
 -10  -6  -3   27.43    2.03
 -10  -6  -3   28.54    1.90
 -11  -6  -3   -0.89    1.02
 -11  -6  -3    1.99    1.09
 -11  -6  -3    1.48    1.32
   9  -7  -3    8.30    1.40
  -9   7   3   12.27    2.01
  -9   7   3    6.12    1.56
   8  -7  -3   34.04    2.35
   8  -7  -3   33.23    3.70
  -8   7   3   32.17    2.41
  -8   7   3   35.45    2.17
   7  -7  -3    0.72    0.93
   7  -7  -3   -0.39    0.84
  -7   7   3    1.30    0.81
  -7   7   3   -0.57    1.14
  -7   7   3   -0.72    0.87
   6  -7  -3   25.97    1.80
   6  -7  -3   29.95    1.64
   6  -7  -3   30.14    1.99
  -6   7   3   30.66    1.93
  -6   7   3   28.96    2.05
  -6   7   3   31.72    1.77
   5  -7  -3   36.20    1.88
   5  -7  -3   32.79    1.76
   5  -7  -3   34.03    1.52
  -5   7   3   36.07    1.53
  -5   7   3   34.18    2.00
  -5   7   3   35.93    1.85
   4  -7  -3   31.41    1.28
   4  -7  -3   30.67    1.59
   4  -7  -3   32.15    1.70
  -4   7   3   31.39    1.27
  -4   7   3   33.71    1.69
  -4   7   3   32.58    1.73
   3  -7  -3   36.87    1.61
   3  -7  -3   36.05    1.20
  -3   7   3   34.81    1.60
  -3   7   3   35.10    1.21
  -3   7   3   37.30    1.65
   2  -7  -3  165.33    3.92
   2  -7  -3  170.11    3.91
   2  -7  -3  167.55    3.38
  -2   7   3  167.08    3.91
  -2   7   3  166.46    3.90
  -2   7   3  166.75    3.72
  -2   7   3  163.62    3.41
   1  -7  -3    0.74    0.24
   1  -7  -3    0.25    0.38
   1  -7  -3    0.50    0.45
  -1   7   3    0.32    0.32
  -1   7   3    0.90    0.23
  -1   7   3    0.29    0.37
  -1   7   3    0.78    0.43
   0  -7  -3  138.36    3.21
   0  -7  -3  137.80    3.22
   0   7   3  134.97    3.16
   0   7   3  132.91    3.23
   0   7   3  135.19    3.08
  -1  -7  -3   17.32    0.90
  -1  -7  -3   18.35    0.95
  -1  -7  -3   20.50    1.03
   1   7   3   19.22    1.09
   1   7   3   18.20    0.92
   1   7   3   18.02    0.93
  -2  -7  -3   49.55    1.55
  -2  -7  -3   51.98    1.56
  -2  -7  -3   52.35    1.64
  -2  -7  -3   51.41    1.19
   2   7   3   49.76    1.61
   2   7   3   50.04    1.52
  -3  -7  -3   11.46    0.92
  -3  -7  -3   12.48    0.84
  -3  -7  -3   12.08    0.62
   3   7   3   11.08    0.58
   3   7   3   11.48    0.83
   3   7   3   11.36    0.74
  -4  -7  -3   17.16    0.82
  -4  -7  -3   17.66    1.07
  -4  -7  -3   16.37    1.02
   4   7   3   17.26    0.89
   4   7   3   16.98    0.96
   4   7   3   16.66    0.78
  -5  -7  -3  120.34    2.82
  -5  -7  -3  120.12    2.92
   5   7   3  121.64    2.77
   5   7   3  120.70    2.82
   5   7   3  123.65    2.80
   5   7   3  120.98    2.92
  -6  -7  -3    0.26    0.50
  -6  -7  -3    0.53    0.48
   6   7   3    0.89    0.49
   6   7   3    0.65    0.42
   6   7   3   -0.03    0.40
   6   7   3    0.26    0.45
  -7  -7  -3   31.53    1.55
  -7  -7  -3   31.07    1.55
   7   7   3   28.74    1.36
   7   7   3   29.36    1.40
   7   7   3   28.67    1.30
   7   7   3   30.40    1.44
  -8  -7  -3    2.34    0.82
   8   7   3    3.54    0.81
   8   7   3    3.16    0.66
   8   7   3    4.56    0.75
  -9  -7  -3   11.07    1.59
  -9  -7  -3   10.07    1.58
   9   7   3    8.98    1.09
   9   7   3    8.28    0.94
   9   7   3    8.47    1.39
 -10  -7  -3    7.55    1.27
 -10  -7  -3    6.99    1.28
  10   7   3    5.17    1.15
 -11  -7  -3    0.77    1.15
 -11  -7  -3    3.35    1.21
   9  -8  -3    7.46    1.70
  -9   8   3    6.82    1.32
  -9   8   3    3.08    1.37
   8  -8  -3    6.98    1.29
  -8   8   3    9.63    1.49
  -8   8   3    8.23    1.21
   7  -8  -3   13.53    1.87
   7  -8  -3   16.12    1.84
  -7   8   3   14.87    1.62
  -7   8   3   15.28    1.89
   6  -8  -3    4.59    1.18
   6  -8  -3    3.48    0.79
   6  -8  -3    2.17    0.87
  -6   8   3    2.72    0.95
  -6   8   3    2.84    1.28
  -6   8   3    3.37    0.76
   5  -8  -3   23.15    1.67
   5  -8  -3   23.77    1.83
   5  -8  -3   27.63    1.45
  -5   8   3   27.06    1.79
  -5   8   3   25.94    1.37
  -5   8   3   25.03    1.91
   4  -8  -3    9.64    0.94
   4  -8  -3   10.15    1.41
   4  -8  -3    7.41    1.28
  -4   8   3    9.22    0.90
  -4   8   3    9.59    1.33
  -4   8   3   11.33    1.42
   3  -8  -3   91.27    2.70
   3  -8  -3   86.48    2.09
   3  -8  -3   85.12    2.66
  -3   8   3   86.49    2.72
  -3   8   3   87.52    2.13
  -3   8   3   87.08    2.49
  -3   8   3   90.00    2.72
   2  -8  -3    1.11    0.51
   2  -8  -3    1.84    0.34
   2  -8  -3    1.72    0.57
  -2   8   3    1.43    0.46
  -2   8   3    1.35    0.31
  -2   8   3    1.54    0.53
  -2   8   3    1.35    0.52
   1  -8  -3  117.02    3.03
   1  -8  -3  116.94    3.06
  -1   8   3  118.04    3.02
  -1   8   3  118.03    3.09
  -1   8   3  117.04    2.88
   0  -8  -3    0.24    0.38
   0   8   3    0.20    0.34
   0   8   3    0.92    0.48
   0   8   3   -0.07    0.46
  -1  -8  -3  136.17    3.29
  -1  -8  -3  134.72    3.17
  -1  -8  -3  136.99    3.24
   1   8   3  134.12    3.18
   1   8   3  135.97    3.22
   1   8   3  132.05    3.26
  -2  -8  -3   12.08    0.92
  -2  -8  -3   13.34    0.99
  -2  -8  -3   12.55    1.09
   2   8   3   12.58    0.95
   2   8   3   11.35    0.98
   2   8   3   11.65    0.88
  -3  -8  -3   18.45    1.08
  -3  -8  -3   17.25    0.72
  -3  -8  -3   18.84    1.13
   3   8   3   18.34    1.00
   3   8   3   17.57    1.03
  -4  -8  -3   11.53    0.75
  -4  -8  -3   11.75    1.03
  -4  -8  -3   10.66    1.02
   4   8   3   11.08    0.91
   4   8   3   10.81    0.92
   4   8   3   10.55    0.70
  -5  -8  -3  100.51    2.79
  -5  -8  -3  101.30    2.63
  -5  -8  -3   96.82    2.45
   5   8   3  100.32    2.56
   5   8   3   98.69    2.56
   5   8   3  100.35    2.40
   5   8   3   99.19    2.51
  -6  -8  -3    2.03    0.64
  -6  -8  -3    0.26    0.63
  -6  -8  -3    1.61    0.54
   6   8   3    1.58    0.49
   6   8   3    1.78    0.53
   6   8   3    1.31    0.54
   6   8   3    0.74    0.52
  -7  -8  -3   34.50    1.69
  -7  -8  -3   34.91    1.65
   7   8   3   32.66    1.82
   7   8   3   34.31    1.54
   7   8   3   34.97    1.56
   7   8   3   38.15    1.63
  -8  -8  -3    2.69    0.77
  -8  -8  -3    0.24    1.20
   8   8   3    1.00    0.91
   8   8   3    0.72    0.78
   8   8   3    1.73    0.67
  -9  -8  -3    7.61    1.19
   9   8   3    7.78    0.97
   9   8   3    9.47    1.15
   9   8   3    9.14    1.22
 -10  -8  -3    1.97    1.11
 -10  -8  -3    1.29    1.08
  10   8   3   -0.05    1.17
  10   8   3   -1.10    0.90
 -11  -8  -3    7.76    1.37
 -11  -8  -3    4.72    1.32
  -8   9   3   12.08    1.44
   7  -9  -3   58.28    2.67
  -7   9   3   57.47    2.90
  -7   9   3   63.20    2.50
   6  -9  -3    1.67    0.87
   6  -9  -3    3.46    0.99
  -6   9   3    1.46    0.99
  -6   9   3    2.99    0.81
   5  -9  -3   35.80    2.23
   5  -9  -3   37.89    1.66
   5  -9  -3   36.65    2.25
  -5   9   3   36.38    2.14
  -5   9   3   37.45    2.29
  -5   9   3   38.76    1.62
   4  -9  -3    1.65    0.77
   4  -9  -3    1.29    0.53
   4  -9  -3    1.34    0.83
  -4   9   3    1.71    0.76
  -4   9   3    1.30    0.51
  -4   9   3    0.92    0.64
  -4   9   3    0.72    0.69
   3  -9  -3    5.79    1.02
   3  -9  -3    6.48    1.34
   3  -9  -3    6.98    0.72
  -3   9   3    6.76    0.95
  -3   9   3    7.50    1.30
  -3   9   3    6.72    0.69
  -3   9   3    7.89    1.03
   2  -9  -3   55.15    2.07
   2  -9  -3   53.58    2.08
  -2   9   3   52.86    1.88
  -2   9   3   55.30    2.09
  -2   9   3   54.06    2.15
   1  -9  -3   24.64    1.45
   1  -9  -3   27.12    1.45
  -1   9   3   25.54    1.43
  -1   9   3   26.19    1.31
  -1   9   3   27.38    1.57
   0  -9  -3   38.53    1.63
   0  -9  -3   39.91    1.61
   0   9   3   37.35    1.69
   0   9   3   36.79    1.53
   0   9   3   37.79    1.59
  -1  -9  -3   -0.09    0.39
  -1  -9  -3   -0.05    0.43
  -1  -9  -3   -0.33    0.50
   1   9   3   -0.36    0.51
   1   9   3   -0.27    0.39
   1   9   3    0.42    0.44
  -2  -9  -3   65.24    2.03
  -2  -9  -3   65.52    2.12
   2   9   3   62.62    2.04
   2   9   3   63.91    2.04
   2   9   3   64.47    2.08
  -3  -9  -3    1.42    0.34
  -3  -9  -3    1.17    0.54
  -3  -9  -3    1.13    0.47
   3   9   3    0.46    0.48
  -4  -9  -3   34.67    1.57
  -4  -9  -3   34.68    1.53
  -4  -9  -3   32.28    1.14
   4   9   3   31.54    1.08
   4   9   3   26.81    2.04
   4   9   3   32.26    1.42
  -5  -9  -3    2.11    0.70
  -5  -9  -3    2.68    0.79
  -5  -9  -3    1.93    0.52
   5   9   3    2.61    0.61
   5   9   3    2.60    0.56
   5   9   3    2.74    0.51
  -6  -9  -3   63.41    2.24
  -6  -9  -3   63.21    2.01
  -6  -9  -3   63.35    2.36
   6   9   3   61.63    2.33
   6   9   3   62.50    1.93
   6   9   3   63.33    2.03
   6   9   3   62.83    2.02
  -7  -9  -3   -0.78    0.70
  -7  -9  -3    0.71    0.66
  -7  -9  -3    0.60    0.75
   7   9   3    0.29    0.63
   7   9   3    1.96    0.66
   7   9   3    0.60    0.59
   7   9   3    0.91    0.67
  -8  -9  -3   32.73    1.87
   8   9   3   34.21    1.91
   8   9   3   35.92    1.92
   8   9   3   30.34    1.72
  -9  -9  -3   48.13    2.37
  -9  -9  -3   45.30    2.41
   9   9   3   44.23    2.13
   9   9   3   47.71    2.32
   9   9   3   47.30    2.54
 -10  -9  -3    2.19    1.18
  10   9   3    1.36    1.07
   7 -10  -3    3.64    1.30
   7 -10  -3    6.47    1.27
  -7  10   3    4.58    1.24
  -7  10   3    7.86    1.22
   6 -10  -3   35.62    2.34
   6 -10  -3   40.25    2.03
  -6  10   3   35.87    2.45
  -6  10   3   40.56    1.92
   5 -10  -3    3.28    0.79
   5 -10  -3    5.29    1.11
  -5  10   3    3.42    0.99
  -5  10   3    4.82    0.73
  -5  10   3    3.04    0.92
   4 -10  -3   22.88    1.19
   4 -10  -3   23.62    1.79
   4 -10  -3   21.17    1.96
  -4  10   3   29.17    1.67
  -4  10   3   23.55    1.97
  -4  10   3   25.57    1.90
  -4  10   3   23.57    1.15
   3 -10  -3   -0.33    0.69
   3 -10  -3   -0.35    0.39
   3 -10  -3    0.71    0.66
  -3  10   3    0.25    0.81
  -3  10   3   -0.02    0.62
  -3  10   3    0.45    0.55
   2 -10  -3   56.47    2.31
   2 -10  -3   61.11    2.33
  -2  10   3   60.64    2.29
  -2  10   3   61.35    2.15
  -2  10   3   60.62    2.38
   1 -10  -3    6.36    0.88
   1 -10  -3    5.49    0.89
  -1  10   3    4.39    0.70
  -1  10   3    4.44    0.89
  -1  10   3    3.77    0.76
   0 -10  -3   32.90    1.66
   0 -10  -3   33.37    1.63
   0  10   3   33.57    1.63
   0  10   3   34.13    1.76
   0  10   3   34.44    1.58
  -1 -10  -3   -0.07    0.47
  -1 -10  -3   -0.32    0.52
  -1 -10  -3   -0.24    0.59
   1  10   3   -0.59    0.43
   1  10   3   -0.10    0.46
   1  10   3    0.76    0.65
  -2 -10  -3   29.92    1.53
  -2 -10  -3   32.13    1.55
  -2 -10  -3   28.84    1.54
   2  10   3   29.13    1.54
   2  10   3   27.97    1.57
   2  10   3   32.76    1.55
  -3 -10  -3    1.57    0.68
  -3 -10  -3    1.82    0.65
   3  10   3    1.61    0.63
   3  10   3    1.18    0.56
  -4 -10  -3    8.69    1.17
  -4 -10  -3    9.55    1.24
  -4 -10  -3    7.89    0.76
   4  10   3    8.01    1.04
   4  10   3    7.70    1.08
  -5 -10  -3   14.86    1.45
  -5 -10  -3   16.21    1.08
  -5 -10  -3   14.45    1.40
   5  10   3   15.27    1.37
   5  10   3   15.74    0.96
   5  10   3   15.37    1.14
   5  10   3   13.68    1.27
  -6 -10  -3   37.35    2.05
  -6 -10  -3   37.83    1.85
  -6 -10  -3   39.38    1.65
   6  10   3   36.70    1.53
   6  10   3   39.90    1.75
   6  10   3   40.01    1.67
   6  10   3   39.13    1.85
  -7 -10  -3   28.94    1.82
  -7 -10  -3   27.13    1.66
  -7 -10  -3   27.19    2.69
   7  10   3   27.03    1.59
   7  10   3   27.99    1.78
   7  10   3   27.62    1.65
   7  10   3   27.82    1.54
  -8 -10  -3   10.82    1.86
  -8 -10  -3    9.60    1.41
   8  10   3    9.63    1.68
   8  10   3    8.14    1.34
   8  10   3    8.97    1.12
   8  10   3   11.08    1.21
  -9 -10  -3   -0.29    0.94
  -9 -10  -3    0.87    1.13
   9  10   3    0.04    0.98
   9  10   3    1.27    1.15
   9  10   3   -0.20    1.35
  10  10   3    5.39    1.33
   7 -11  -3    2.60    1.42
  -7  11   3    4.17    1.36
  -7  11   3    2.92    1.98
  -7  11   3    1.53    1.16
   6 -11  -3   24.58    2.12
   6 -11  -3   22.27    2.26
  -6  11   3   26.18    2.38
  -6  11   3   25.23    2.10
  -6  11   3   24.17    1.72
   5 -11  -3    3.09    1.17
  -5  11   3    5.98    0.77
  -5  11   3    5.75    0.98
  -5  11   3    5.07    1.30
   4 -11  -3    0.71    0.90
  -4  11   3    0.59    0.49
  -4  11   3    0.03    0.92
  -4  11   3    0.72    0.67
   3 -11  -3   21.50    1.81
   3 -11  -3   21.97    2.03
  -3  11   3   23.92    1.67
  -3  11   3   23.18    1.89
  -3  11   3   28.35    1.96
   2 -11  -3   -0.20    0.82
   2 -11  -3   -0.51    0.59
  -2  11   3    0.33    0.73
  -2  11   3    1.04    0.89
   1 -11  -3   83.45    2.79
   1 -11  -3   82.99    2.95
  -1  11   3   81.67    2.64
  -1  11   3   83.64    2.78
  -1  11   3   82.81    2.85
   0 -11  -3    8.18    1.11
   0 -11  -3    8.34    1.27
   0  11   3    5.72    0.87
   0  11   3    6.85    0.93
   0  11   3    6.98    1.11
  -1 -11  -3   34.66    1.83
  -1 -11  -3   34.15    1.73
   1  11   3   36.22    1.77
   1  11   3   31.90    1.70
   1  11   3   32.03    1.82
  -2 -11  -3    5.31    0.86
  -2 -11  -3    5.48    0.83
  -2 -11  -3    6.41    0.94
   2  11   3    6.90    1.22
   2  11   3    5.95    0.95
   2  11   3    4.91    0.81
  -3 -11  -3   19.46    1.50
  -3 -11  -3   19.21    1.56
   3  11   3   20.06    1.42
   3  11   3   19.95    1.51
  -4 -11  -3   27.44    1.62
  -4 -11  -3   26.28    1.71
   4  11   3   26.93    1.50
   4  11   3   25.69    1.62
  -5 -11  -3    2.86    0.59
  -5 -11  -3    2.35    0.83
  -5 -11  -3    2.71    0.90
   5  11   3    3.36    0.82
   5  11   3    2.23    0.77
   5  11   3    3.21    0.73
   5  11   3    2.20    0.55
  -6 -11  -3    6.75    1.21
  -6 -11  -3    8.64    1.17
  -6 -11  -3    8.29    1.05
   6  11   3    7.20    1.01
   6  11   3    7.88    1.09
   6  11   3    7.79    1.26
   6  11   3    6.94    1.15
  -7 -11  -3   24.51    1.68
  -7 -11  -3   17.64    1.86
   7  11   3   24.66    1.60
   7  11   3   23.27    1.59
   7  11   3   22.26    1.95
   7  11   3   20.84    1.77
  -8 -11  -3   11.00    1.96
  -8 -11  -3   15.42    1.86
   8  11   3   17.92    1.91
   8  11   3   17.89    2.13
   8  11   3   17.15    1.82
   8  11   3   14.11    1.55
  -9 -11  -3   12.79    2.02
   9  11   3    8.04    1.29
   6 -12  -3    5.13    1.50
  -6  12   3    5.05    1.33
  -6  12   3    4.87    1.17
   5 -12  -3   19.56    2.19
  -5  12   3   14.13    2.21
  -5  12   3   17.83    1.95
   4 -12  -3    1.14    0.95
  -4  12   3    1.70    0.90
  -4  12   3    0.61    0.97
   3 -12  -3    0.06    0.83
  -3  12   3    0.26    1.02
  -3  12   3   -0.18    0.71
   2 -12  -3    8.67    1.37
   2 -12  -3   10.90    1.62
  -2  12   3   10.40    1.84
  -2  12   3    8.55    1.30
  -2  12   3    8.87    1.18
   1 -12  -3   12.24    1.80
   1 -12  -3   10.41    1.59
  -1  12   3   11.38    1.47
  -1  12   3   12.83    1.70
  -1  12   3   10.92    1.72
   0 -12  -3    8.51    1.16
   0 -12  -3    7.08    1.14
   0  12   3   10.19    1.60
   0  12   3    6.95    1.99
   0  12   3    7.73    1.31
  -1 -12  -3   58.01    2.42
  -1 -12  -3   52.23    2.26
   1  12   3   55.19    2.50
   1  12   3   57.26    2.30
   1  12   3   52.69    2.33
  -2 -12  -3    9.14    1.52
  -2 -12  -3   11.20    1.46
   2  12   3   10.40    1.52
   2  12   3   10.53    1.45
   2  12   3   11.87    1.51
  -3 -12  -3   55.54    2.39
  -3 -12  -3   55.07    2.22
   3  12   3   54.80    2.21
   3  12   3   55.10    2.36
  -4 -12  -3   -1.25    0.77
  -4 -12  -3    0.42    0.77
   4  12   3    1.52    0.80
   4  12   3    0.79    0.70
  -5 -12  -3   22.35    1.79
   5  12   3   24.78    1.88
   5  12   3   23.59    1.76
   5  12   3   22.74    1.57
  -6 -12  -3   11.45    1.71
  -6 -12  -3   17.07    1.32
   6  12   3   13.16    1.99
   6  12   3   15.18    1.56
   6  12   3   14.72    1.48
   6  12   3   15.24    1.90
  -7 -12  -3    7.02    1.02
  -7 -12  -3    4.02    1.13
   7  12   3    6.92    0.95
   7  12   3    5.63    1.36
   7  12   3    7.55    1.04
  -8 -12  -3   -0.30    1.00
   8  12   3    2.57    1.14
   8  12   3    0.80    1.39
   8  12   3    2.79    1.13
   8  12   3    1.30    0.89
  -9 -12  -3   21.22    2.38
   9  12   3   14.85    2.36
   5 -13  -3    4.58    1.45
  -5  13   3    3.48    1.45
  -5  13   3    6.98    1.28
   4 -13  -3    7.67    1.31
  -4  13   3    8.10    1.16
  -4  13   3   10.00    1.59
   3 -13  -3    1.29    1.01
  -3  13   3   -0.37    1.04
  -3  13   3   -1.17    0.93
   2 -13  -3   22.50    2.13
  -2  13   3   23.93    2.15
  -2  13   3   22.33    1.87
   1 -13  -3    1.47    1.17
   1 -13  -3    1.09    0.99
  -1  13   3    1.23    0.89
  -1  13   3    1.83    1.07
   0 -13  -3   43.66    2.46
   0 -13  -3   44.33    2.45
   0  13   3   45.26    2.21
   0  13   3   48.34    2.48
  -1 -13  -3   44.01    2.35
  -1 -13  -3   43.29    2.35
   1  13   3   43.58    2.24
   1  13   3   43.02    2.26
   1  13   3   41.27    2.32
  -2 -13  -3    8.62    1.23
  -2 -13  -3    8.04    1.15
   2  13   3    5.99    1.16
   2  13   3    8.05    1.82
  -3 -13  -3    8.63    1.19
   3  13   3   10.37    1.82
   3  13   3   11.37    1.69
  -4 -13  -3    3.14    0.98
   4  13   3    3.71    1.17
   4  13   3    4.59    0.98
  -5 -13  -3   14.57    2.00
   5  13   3   20.49    2.24
   5  13   3   21.09    1.70
   5  13   3   17.85    1.91
  -6 -13  -3    7.49    1.31
  -6 -13  -3    8.96    1.26
   6  13   3    8.06    1.11
   6  13   3    5.13    1.18
   6  13   3   12.56    2.23
  -7 -13  -3    0.18    0.92
   7  13   3   -1.09    0.84
   7  13   3   -0.41    1.04
   7  13   3    0.27    1.41
  -8 -13  -3   12.87    1.55
   8  13   3   13.55    1.60
   4 -14  -3   16.32    2.59
  -4  14   3   13.31    1.90
  -4  14   3   15.73    2.17
   3 -14  -3    0.47    1.26
  -3  14   3    0.52    1.22
  -3  14   3   -1.14    0.89
   2 -14  -3    8.27    1.56
  -2  14   3    8.68    1.48
   1 -14  -3   21.65    2.24
  -1  14   3   15.19    2.27
  -1  14   3   20.58    1.94
   0 -14  -3   74.59    3.21
   0  14   3   72.68    3.13
   0  14   3   70.33    2.91
  -1 -14  -3    0.76    1.10
  -1 -14  -3    0.88    1.22
   1  14   3   -0.77    0.91
   1  14   3   -0.63    0.86
  -2 -14  -3   37.41    2.53
   2  14   3   36.03    2.20
  -3 -14  -3    2.15    1.24
   3  14   3    4.02    1.04
  -4 -14  -3   25.38    2.34
   4  14   3   27.99    2.35
  -5 -14  -3    1.59    1.21
   5  14   3    0.36    1.08
   5  14   3   -0.49    1.10
   6  14   3    0.44    0.96
   6  14   3    2.22    1.14
   7  14   3    2.40    1.30
   2 -15  -3   -0.52    1.38
  -2  15   3    1.93    1.07
  -2  15   3   -0.29    1.20
   1 -15  -3   22.73    2.44
  -1  15   3   14.71    2.08
  -1  15   3   18.73    2.37
   0 -15  -3    4.46    1.34
   0  15   3    3.87    1.32
   0  15   3    6.72    1.34
   1  15   3   15.16    2.03
   1  15   3   18.92    2.22
   2  15   3    2.61    1.09
  -3 -15  -3   19.21    2.72
   3  15   3   21.97    2.03
  -4 -15  -3    2.52    1.44
   4  15   3    5.62    1.20
   5  15   3   11.24    1.59
   5  15   3   11.47    1.98
   0 -16  -3    5.42    1.73
   0  16   3    6.33    1.55
   0  16   3    6.48    1.41
   1  16   3   22.84    2.55
   1  16   3   27.73    2.54
   2  16   3    0.96    1.19
   3  16   3    5.15    1.26
   2  13  -4    6.70    1.62
   1  13  -4   37.61    2.71
   0  13  -4    0.44    1.09
   0  13  -4    2.21    1.13
  -1  13  -4   27.37    2.46
  -1  13  -4   24.86    2.67
  -2  13  -4    0.37    1.18
   4  12  -4    1.26    1.27
   3  12  -4    2.26    1.19
   2  12  -4    2.40    1.11
   1  12  -4    1.21    1.04
   1  12  -4   -1.81    0.84
   0  12  -4   59.65    2.49
   0  12  -4   58.48    2.78
  -1  12  -4    1.68    1.84
  -1  12  -4    0.45    0.93
  -2  12  -4   33.87    2.28
  -2  12  -4   35.41    2.34
  -3  12  -4   -1.13    1.09
  -3  12  -4    3.49    1.15
  -4  12  -4   32.29    2.51
  -4  12  -4   32.40    2.50
  -5  12  -4    1.54    1.46
   5  11  -4   -1.18    1.08
  -5 -11   4    1.37    1.02
   4  11  -4    9.57    1.46
  -4 -11   4   11.73    1.56
   3  11  -4    3.03    1.12
   3  11  -4    1.78    0.88
  -3 -11   4    3.05    0.72
   2  11  -4    7.89    1.20
   1  11  -4   12.70    1.79
   1  11  -4   13.41    1.82
   0  11  -4   32.64    1.85
   0  11  -4   36.78    2.20
  -1  11  -4   15.63    1.72
  -1  11  -4   16.67    1.77
  -2  11  -4   30.83    2.08
  -2  11  -4   29.79    2.06
  -3  11  -4    3.75    0.99
  -3  11  -4    6.79    1.23
  -4  11  -4   20.95    2.23
  -4  11  -4   18.43    2.15
  -5  11  -4    8.17    1.33
  -5  11  -4    6.49    1.32
  -6  11  -4    5.11    1.31
  -6  11  -4    5.00    1.57
   6  10  -4    3.50    1.15
  -6 -10   4    4.83    1.21
   5  10  -4   26.84    2.03
   5  10  -4   24.51    2.21
  -5 -10   4   28.33    2.00
   4  10  -4    1.88    0.81
   4  10  -4    0.64    1.01
  -4 -10   4    1.70    0.79
   3  10  -4   29.78    2.02
   3  10  -4   28.98    1.45
  -3 -10   4   29.21    1.45
   2  10  -4   -0.75    0.67
  -2 -10   4    0.21    0.60
   1  10  -4  106.41    3.34
   1  10  -4  102.22    3.36
   0  10  -4   18.36    2.33
   0  10  -4   16.96    1.42
   0  10  -4   17.25    1.66
  -1  10  -4   72.78    3.23
  -1  10  -4   68.53    2.39
  -1  10  -4   72.81    2.69
  -2  10  -4    8.35    1.45
  -2  10  -4   10.67    1.53
  -3  10  -4   20.96    1.82
  -3  10  -4   22.97    1.82
  -4  10  -4   -0.82    0.93
  -4  10  -4    1.95    1.03
  -5  10  -4    2.57    1.03
  -5  10  -4    0.92    0.95
   5 -10   4   -1.31    1.02
  -6  10  -4    7.81    1.27
  -6  10  -4    8.21    1.33
  -6  10  -4    6.79    1.09
   6 -10   4    7.14    1.39
  -7  10  -4   -0.74    1.08
  -7  10  -4    1.18    1.24
   7 -10   4   -0.84    1.18
   7   9  -4   11.71    1.49
  -7  -9   4   12.04    1.55
   6   9  -4    1.44    1.16
   6   9  -4    2.31    1.11
  -6  -9   4    0.90    0.95
   5   9  -4   19.99    2.06
   5   9  -4   20.96    1.89
  -5  -9   4   24.34    1.86
   4   9  -4   13.92    1.69
   4   9  -4   13.25    1.43
   4   9  -4   14.33    2.60
  -4  -9   4   10.44    2.15
  -4  -9   4   13.45    1.40
   3   9  -4   36.77    2.48
   3   9  -4   40.35    2.12
   3   9  -4   36.19    1.89
  -3  -9   4   41.31    2.25
  -3  -9   4   38.83    1.59
   2   9  -4   -0.06    0.65
   2   9  -4    0.82    0.52
   2   9  -4    0.24    0.92
  -2  -9   4   -0.32    0.70
  -2  -9   4    0.61    0.52
   1   9  -4   16.71    1.77
   1   9  -4   15.62    1.50
   1   9  -4   14.01    0.91
   1   9  -4   15.29    1.46
   1   9  -4   14.92    1.09
  -1  -9   4   15.70    1.68
   0   9  -4   62.16    2.32
   0   9  -4   57.72    1.94
   0   9  -4   60.67    2.56
  -1   9  -4   12.26    1.64
  -1   9  -4   11.53    1.34
  -1   9  -4   10.37    1.19
  -2   9  -4   12.70    1.64
  -2   9  -4   10.51    1.40
  -2   9  -4   13.55    1.32
  -3   9  -4   44.95    2.06
  -3   9  -4   45.41    2.09
  -3   9  -4   45.10    2.33
  -4   9  -4    4.71    0.55
  -4   9  -4    3.96    0.94
  -4   9  -4    4.29    1.17
  -4   9  -4    4.25    0.94
  -5   9  -4    8.98    1.10
  -5   9  -4   10.02    1.58
  -5   9  -4    8.56    1.02
  -5   9  -4   12.68    2.26
  -5   9  -4    8.13    1.23
   5  -9   4    9.98    1.79
  -6   9  -4   -0.96    0.64
  -6   9  -4    2.04    0.92
  -6   9  -4    0.57    1.05
   6  -9   4   -0.54    0.89
  -7   9  -4   13.70    1.57
  -7   9  -4   15.03    1.97
  -7   9  -4   13.21    2.09
   7  -9   4    9.93    1.56
  -8   9  -4   10.56    1.63
  -8   9  -4   13.05    1.74
  -8   9  -4   12.36    1.84
   8  -9   4   14.28    1.82
   8   8  -4   18.52    2.51
   7   8  -4   -0.20    0.95
  -7  -8   4    0.45    0.99
   6   8  -4   77.67    3.01
   6   8  -4   76.65    2.86
  -6  -8   4   79.71    2.87
   5   8  -4    1.65    0.90
   5   8  -4    0.89    1.27
   5   8  -4    0.86    1.08
  -5  -8   4   -0.84    0.74
  -5  -8   4   -0.12    0.90
   4   8  -4   78.93    2.39
   4   8  -4   78.28    3.12
   4   8  -4   80.74    2.83
  -4  -8   4   80.43    2.75
  -4  -8   4   78.67    2.82
   3   8  -4    2.86    0.92
   3   8  -4    3.51    1.13
   3   8  -4    4.00    0.81
  -3  -8   4    5.08    0.73
  -3  -8   4    4.39    0.87
   2   8  -4   43.39    1.48
   2   8  -4   41.09    2.13
  -2  -8   4   44.19    1.98
  -2  -8   4   44.83    1.52
   1   8  -4    7.09    1.21
   1   8  -4    8.76    0.83
   1   8  -4    8.62    1.20
   1   8  -4    8.28    1.43
  -1  -8   4    8.77    1.25
  -1  -8   4    9.33    0.81
   0   8  -4   59.78    2.36
   0   8  -4   59.06    1.56
   0   8  -4   58.29    1.84
   0   8  -4   63.07    2.23
  -1   8  -4    0.59    0.66
  -1   8  -4    0.03    0.55
  -1   8  -4    0.45    0.52
  -2   8  -4    6.50    1.07
  -2   8  -4    6.01    0.88
  -2   8  -4    5.72    0.78
  -2   8  -4    6.93    0.68
  -3   8  -4   20.96    2.23
  -3   8  -4   22.57    0.99
  -3   8  -4   21.99    1.46
  -3   8  -4   21.04    0.88
  -3   8  -4   21.15    1.65
  -4   8  -4    4.77    0.73
  -4   8  -4    4.75    0.56
  -4   8  -4    4.83    0.89
  -4   8  -4    4.38    0.58
  -4   8  -4    5.14    0.89
   4  -8   4    4.42    0.94
  -5   8  -4    0.11    0.83
  -5   8  -4    0.53    0.81
  -5   8  -4   -0.95    0.63
  -5   8  -4   -0.50    0.48
  -5   8  -4    0.06    0.55
   5  -8   4   -0.77    0.70
  -6   8  -4   10.37    1.14
  -6   8  -4   11.07    1.60
  -6   8  -4   10.75    1.40
   6  -8   4    8.99    1.26
  -7   8  -4    0.37    0.81
  -7   8  -4    1.90    1.06
   7  -8   4    2.06    1.12
  -8   8  -4    5.96    1.10
  -8   8  -4    3.66    1.14
   8  -8   4    4.72    1.38
  -9   8  -4   14.04    2.47
  -9   8  -4   15.67    2.12
   9  -8   4   13.92    1.85
   8   7  -4    0.36    1.22
  -8  -7   4    4.41    1.18
   7   7  -4   35.93    2.33
   7   7  -4   41.47    3.15
  -7  -7   4   43.63    2.35
   6   7  -4   45.45    2.35
   6   7  -4   47.51    2.26
  -6  -7   4   47.15    2.50
  -6  -7   4   49.40    2.23
   5   7  -4   19.28    1.72
   5   7  -4   20.80    1.52
  -5  -7   4   19.64    1.77
  -5  -7   4   20.07    1.59
   4   7  -4   48.97    1.87
  -4  -7   4   51.68    2.12
  -4  -7   4   51.80    2.10
   3   7  -4   10.81    1.27
   3   7  -4   11.07    1.48
   3   7  -4   11.80    1.22
  -3  -7   4   11.82    1.03
  -3  -7   4   12.10    1.28
   2   7  -4   72.04    2.00
   2   7  -4   76.68    2.61
   2   7  -4   72.59    2.43
  -2  -7   4   75.02    2.05
  -2  -7   4   78.16    2.41
   1   7  -4    1.52    0.66
   1   7  -4    1.51    0.45
   1   7  -4    2.51    0.61
   1   7  -4    1.61    0.64
  -1  -7   4    1.96    0.59
  -1  -7   4    1.90    0.41
   0   7  -4    0.86    0.36
   0   7  -4    1.09    0.39
   0   7  -4   -0.01    0.46
   0   7  -4    0.15    0.60
  -1   7  -4    3.21    0.53
  -1   7  -4    3.85    0.71
  -1   7  -4    3.87    0.52
  -1   7  -4    3.51    0.44
  -1   7  -4    3.48    0.64
  -2   7  -4   19.12    1.40
  -2   7  -4   18.05    0.86
  -2   7  -4   18.12    1.25
  -2   7  -4   19.16    1.16
  -2   7  -4   18.75    0.76
  -3   7  -4   50.56    1.93
  -3   7  -4   48.89    1.44
  -3   7  -4   51.61    1.93
  -3   7  -4   53.00    2.06
  -3   7  -4   47.59    1.36
  -4   7  -4   52.25    1.61
  -4   7  -4   53.96    2.14
  -4   7  -4   53.42    1.54
  -4   7  -4   54.32    2.07
  -4   7  -4   54.09    2.08
   4  -7   4   54.17    2.21
  -5   7  -4   12.62    1.36
  -5   7  -4   10.44    0.95
  -5   7  -4   11.02    1.35
   5  -7   4   12.72    1.44
  -6   7  -4   11.10    1.11
  -6   7  -4   11.18    1.54
  -6   7  -4   11.81    1.55
   6  -7   4    8.00    1.43
  -7   7  -4   10.21    1.31
  -7   7  -4   12.78    1.76
  -7   7  -4    8.00    1.17
   7  -7   4    8.72    1.23
  -8   7  -4    7.60    1.44
  -8   7  -4    5.33    1.25
  -8   7  -4    4.09    0.98
   8  -7   4    5.92    1.30
  -9   7  -4   14.81    2.32
  -9   7  -4   18.94    2.00
   9  -7   4   17.80    2.49
   9   6  -4   13.43    1.87
  -9  -6   4   12.79    1.59
   8   6  -4   -2.02    1.05
  -8  -6   4    1.25    1.00
   7   6  -4   37.60    2.28
   7   6  -4   35.98    2.36
  -7  -6   4   41.11    2.19
   6   6  -4   -0.70    0.84
   6   6  -4    0.43    0.88
  -6  -6   4   -0.28    0.84
  -6  -6   4    0.75    0.85
   5   6  -4   58.75    2.98
   5   6  -4   63.16    2.24
  -5  -6   4   67.22    2.27
  -5  -6   4   62.17    2.35
   4   6  -4   13.35    1.20
   4   6  -4   12.28    1.29
  -4  -6   4   12.22    1.37
  -4  -6   4   12.02    1.22
   3   6  -4    5.93    0.93
   3   6  -4    7.21    1.09
  -3  -6   4    5.67    0.87
  -3  -6   4    5.80    0.75
   2   6  -4   27.73    1.42
   2   6  -4   28.95    1.19
  -2  -6   4   28.86    1.40
  -2  -6   4   28.03    1.20
   1   6  -4    0.68    0.35
   1   6  -4    0.70    0.51
   1   6  -4    0.31    0.51
   1   6  -4    1.33    0.47
  -1  -6   4    0.75    0.44
  -1  -6   4    0.18    0.36
   0   6  -4    6.15    1.00
   0   6  -4    6.47    0.82
   0   6  -4    6.66    0.60
   0   6  -4    6.51    0.66
   0  -6   4    5.99    0.60
   0  -6   4    5.45    0.90
  -1   6  -4   10.52    0.68
  -1   6  -4    9.51    0.91
  -1   6  -4   10.17    1.05
  -1   6  -4    8.70    0.78
  -2   6  -4   17.66    1.11
  -2   6  -4   18.96    1.05
  -2   6  -4   19.14    1.24
  -2   6  -4   18.95    0.82
  -2   6  -4   18.62    0.75
  -3   6  -4  135.32    3.44
  -3   6  -4  131.84    2.91
  -3   6  -4  131.64    3.34
  -3   6  -4  131.26    2.84
  -3   6  -4  134.62    3.30
  -4   6  -4    5.00    0.75
  -4   6  -4    6.11    0.69
  -4   6  -4    5.18    0.76
  -4   6  -4    6.46    1.04
   4  -6   4    5.99    1.03
  -5   6  -4  100.64    2.97
  -5   6  -4   94.35    2.82
  -5   6  -4   97.69    2.43
   5  -6   4   95.99    2.91
  -6   6  -4   10.46    1.32
  -6   6  -4    8.12    1.02
  -6   6  -4    8.98    1.39
   6  -6   4    8.25    1.39
  -7   6  -4   96.60    3.02
  -7   6  -4   94.05    2.70
  -7   6  -4   95.72    3.24
   7  -6   4   92.32    3.07
  -8   6  -4    4.89    1.11
  -8   6  -4    5.58    1.04
   8  -6   4    4.99    1.07
   8  -6   4    4.85    1.11
  -9   6  -4   31.97    2.14
  -9   6  -4   26.82    2.54
  -9   6  -4   34.22    2.39
   9  -6   4   34.31    2.42
   9  -6   4   36.33    3.03
 -10   6  -4    4.69    1.19
 -10   6  -4    6.00    1.76
  10  -6   4    5.71    1.46
   9   5  -4    2.84    1.31
  -9  -5   4    4.70    1.25
   8   5  -4   11.72    2.01
  -8  -5   4   14.70    1.90
   7   5  -4   12.82    1.43
   7   5  -4    9.36    1.69
  -7  -5   4   12.88    1.64
  -7  -5   4   10.49    1.35
   6   5  -4   49.81    2.10
   6   5  -4   40.33    3.29
  -6  -5   4   43.36    2.09
   5   5  -4   94.34    2.94
   5   5  -4   98.09    2.82
  -5  -5   4   95.84    2.81
  -5  -5   4  101.66    3.40
   4   5  -4    1.01    0.60
   4   5  -4    1.22    0.54
  -4  -5   4    1.04    0.55
  -4  -5   4   -0.01    0.48
   3   5  -4  118.30    3.14
   3   5  -4  120.46    2.90
  -3  -5   4  123.75    3.05
  -3  -5   4  119.15    2.95
   2   5  -4    9.55    0.81
   2   5  -4    8.87    0.93
  -2  -5   4    7.92    0.78
  -2  -5   4    9.28    0.91
   1   5  -4   85.34    2.40
   1   5  -4   91.97    2.37
   1   5  -4   91.00    2.15
  -1  -5   4   85.22    2.12
  -1  -5   4   85.86    2.33
   0   5  -4   11.72    0.70
   0   5  -4   12.60    0.94
   0   5  -4   11.92    0.65
   0   5  -4   13.59    0.89
   0   5  -4   11.50    0.99
   0  -5   4   12.81    0.70
   0  -5   4   12.19    0.90
  -1   5  -4   -0.01    0.28
  -1   5  -4    0.14    0.31
  -1   5  -4    0.08    0.26
  -2   5  -4  127.54    2.73
  -2   5  -4  123.01    3.02
  -2   5  -4  127.66    2.94
  -2   5  -4  125.57    2.67
  -3   5  -4   16.23    0.75
  -3   5  -4   16.06    0.80
  -3   5  -4   16.60    1.05
  -3   5  -4   17.45    1.05
  -3   5  -4   17.44    1.09
   3  -5   4   16.27    1.12
  -4   5  -4   61.89    2.01
  -4   5  -4   59.83    1.97
  -4   5  -4   57.71    1.63
   4  -5   4   61.54    2.03
  -5   5  -4   25.59    1.13
  -5   5  -4   25.09    1.33
  -5   5  -4   26.49    1.47
   5  -5   4   27.54    1.46
  -6   5  -4   15.07    1.10
  -6   5  -4   15.38    1.44
  -6   5  -4   16.03    1.29
   6  -5   4   14.94    1.18
   6  -5   4   15.09    1.35
  -7   5  -4    0.98    0.81
  -7   5  -4    1.61    0.68
  -7   5  -4    1.69    0.61
   7  -5   4    0.75    0.71
   7  -5   4    0.84    0.79
  -8   5  -4   15.82    2.39
  -8   5  -4   19.35    1.88
  -8   5  -4   19.78    1.78
   8  -5   4   18.26    1.75
   8  -5   4   22.17    1.82
  -9   5  -4    2.12    0.95
  -9   5  -4    0.97    0.95
  -9   5  -4    0.00    1.10
   9  -5   4    1.30    1.15
   9  -5   4    2.94    1.03
 -10   5  -4    4.70    1.51
 -10   5  -4    3.81    1.16
 -10   5  -4    7.22    1.19
  10  -5   4    3.71    1.32
   9   4  -4   -0.63    1.23
  -9  -4   4    2.47    1.15
   8   4  -4    5.14    1.17
  -8  -4   4    4.84    1.18
  -8  -4   4    4.01    1.01
   7   4  -4   -0.42    0.98
   7   4  -4    1.89    0.87
  -7  -4   4    1.50    0.82
  -7  -4   4    2.89    0.94
   6   4  -4    0.64    0.80
   6   4  -4    1.40    0.73
  -6  -4   4   -0.15    0.59
  -6  -4   4    0.77    0.71
   5   4  -4    2.91    0.71
   5   4  -4    3.21    0.75
  -5  -4   4    3.24    0.71
  -5  -4   4    2.19    0.67
  -5  -4   4    2.28    0.61
   4   4  -4   33.92    1.57
   4   4  -4   33.44    1.49
  -4  -4   4   33.57    1.57
  -4  -4   4   34.83    1.49
  -4  -4   4   34.30    1.48
   3   4  -4   15.01    1.00
   3   4  -4   12.65    1.02
  -3  -4   4   13.10    0.97
   2   4  -4   26.97    1.25
   2   4  -4   28.79    1.13
  -2  -4   4   28.42    1.17
  -2  -4   4   27.70    1.11
   1   4  -4    6.79    0.65
   1   4  -4    7.05    0.71
   1   4  -4    6.61    0.72
  -1  -4   4    7.46    0.63
  -1  -4   4    7.05    0.71
   0   4  -4  119.30    2.93
   0   4  -4  111.79    2.43
   0   4  -4  118.49    2.73
   0   4  -4  115.63    2.81
   0   4  -4  118.07    2.58
   0  -4   4  116.33    2.57
   0  -4   4  121.00    2.74
  -1   4  -4    0.85    0.30
  -1   4  -4    0.73    0.27
  -1   4  -4    0.99    0.41
  -1   4  -4    0.82    0.29
  -2   4  -4  197.51    4.05
  -2   4  -4  201.16    4.21
  -2   4  -4  202.76    4.02
  -2   4  -4  198.86    4.28
  -2   4  -4  207.10    4.41
  -3   4  -4   84.33    1.96
  -3   4  -4   84.75    2.27
  -3   4  -4   85.05    2.24
   3  -4   4   81.12    2.28
  -4   4  -4  382.61    7.75
  -4   4  -4  394.75    7.86
  -4   4  -4  390.96    7.51
   4  -4   4  389.82    7.81
  -5   4  -4    2.58    0.45
  -5   4  -4    2.43    0.60
  -5   4  -4    1.97    0.54
   5  -4   4    2.21    0.56
  -6   4  -4   81.08    2.26
  -6   4  -4   82.49    2.37
  -6   4  -4   82.95    2.60
   6  -4   4   80.01    2.42
   6  -4   4   83.15    2.31
  -7   4  -4    4.28    0.70
  -7   4  -4    3.18    0.82
   7  -4   4    3.16    0.76
   7  -4   4    3.61    0.75
  -8   4  -4   27.55    2.09
  -8   4  -4   26.94    1.80
  -8   4  -4   21.86    2.42
  -8   4  -4   25.75    1.73
   8  -4   4   26.13    1.71
   8  -4   4   27.93    1.78
  -9   4  -4    0.04    0.90
  -9   4  -4    0.84    0.89
  -9   4  -4   -0.49    0.98
   9  -4   4   -0.47    1.10
   9  -4   4    0.21    0.93
 -10   4  -4    0.36    1.06
 -10   4  -4    0.74    0.98
 -10   4  -4    0.49    1.21
  10  -4   4   -0.61    1.17
 -11   4  -4    4.70    1.41
 -11   4  -4    4.88    1.35
  11  -4   4    4.13    1.41
  10   3  -4   10.83    1.75
 -10  -3   4   10.99    2.21
  -9  -3   4   -0.14    0.90
   8   3  -4   25.53    2.11
  -8  -3   4   27.01    1.92
  -8  -3   4   22.24    2.09
   7   3  -4    0.03    0.93
   7   3  -4    0.49    0.85
  -7  -3   4    0.41    0.74
  -7  -3   4    0.37    0.76
   6   3  -4    1.04    0.74
   6   3  -4    1.69    0.71
  -6  -3   4    2.24    0.71
  -6  -3   4    1.04    0.61
   5   3  -4   16.40    1.34
   5   3  -4   18.74    1.36
  -5  -3   4   18.95    1.30
  -5  -3   4   18.63    1.27
   4   3  -4  207.39    4.65
   4   3  -4  205.21    4.53
  -4  -3   4  208.72    4.62
  -4  -3   4  199.69    4.53
   3   3  -4   26.28    1.23
   3   3  -4   24.30    1.15
  -3  -3   4   26.38    1.33
  -3  -3   4   24.59    1.14
  -3  -3   4   26.17    1.12
   2   3  -4   10.99    0.78
   2   3  -4   10.93    0.85
  -2  -3   4    9.66    0.74
  -2  -3   4   10.76    0.74
   1   3  -4  120.83    2.91
   1   3  -4  128.39    2.79
  -1  -3   4  124.83    2.78
  -1  -3   4  127.21    2.79
   0   3  -4    9.46    0.50
   0   3  -4    9.80    0.66
   0   3  -4    9.33    0.74
   0   3  -4    9.43    0.62
   0   3  -4    9.24    0.49
   0  -3   4    9.49    0.60
   0  -3   4    9.99    0.65
  -1   3  -4  342.55    6.74
  -1   3  -4  357.69    6.96
  -1   3  -4  340.55    6.64
  -1   3  -4  354.94    6.67
  -2   3  -4  114.26    2.63
  -2   3  -4  119.21    2.51
  -2   3  -4  115.19    2.74
  -2   3  -4  115.79    2.66
  -2   3  -4  119.69    2.55
  -3   3  -4  273.68    5.58
  -3   3  -4  273.14    5.61
  -3   3  -4  279.27    5.39
   3  -3   4  278.45    5.63
  -4   3  -4   16.31    0.80
  -4   3  -4   14.64    0.94
  -4   3  -4   15.90    0.86
   4  -3   4   15.87    0.93
  -5   3  -4   46.75    1.46
  -5   3  -4   44.78    1.50
   5  -3   4   45.65    1.57
   5  -3   4   45.71    1.48
  -6   3  -4   48.97    1.89
  -6   3  -4   48.62    1.67
  -6   3  -4   48.83    1.65
   6  -3   4   49.16    1.69
   6  -3   4   49.31    1.69
  -7   3  -4    8.49    1.02
  -7   3  -4    7.03    0.98
  -7   3  -4    9.32    1.28
   7  -3   4    7.36    0.86
   7  -3   4    8.23    1.02
  -8   3  -4    3.12    0.78
  -8   3  -4    4.56    0.88
  -8   3  -4    3.31    0.95
  -8   3  -4    3.57    0.89
   8  -3   4    2.11    0.84
   8  -3   4    3.35    0.75
  -9   3  -4    6.30    1.03
  -9   3  -4    5.51    1.07
  -9   3  -4    6.22    1.18
   9  -3   4    5.62    0.96
   9  -3   4    8.07    1.24
 -10   3  -4    0.79    1.02
 -10   3  -4    0.25    0.99
 -10   3  -4    1.43    1.05
  10  -3   4    0.34    1.00
 -11   3  -4    6.62    1.46
 -11   3  -4    7.34    1.34
  11  -3   4    5.60    1.37
  10   2  -4    0.67    1.36
 -10  -2   4   -0.28    1.22
   9   2  -4   19.76    2.33
  -9  -2   4   19.93    1.99
   8   2  -4    1.75    1.01
  -8  -2   4    3.23    1.02
  -8  -2   4    3.50    0.93
   7   2  -4    1.76    0.92
   7   2  -4    2.07    0.86
  -7  -2   4    0.51    0.78
  -7  -2   4    1.36    0.74
   6   2  -4   21.29    1.62
   6   2  -4   23.98    1.55
  -6  -2   4   23.20    1.46
  -6  -2   4   21.82    1.45
   5   2  -4  104.43    2.85
   5   2  -4  103.42    2.91
  -5  -2   4   99.09    2.78
  -5  -2   4  105.04    2.84
   4   2  -4   34.70    1.49
   4   2  -4   31.74    1.41
  -4  -2   4   32.70    1.40
  -4  -2   4   34.58    1.43
   3   2  -4  347.23    6.82
   3   2  -4  337.12    6.90
  -3  -2   4  338.24    6.81
  -3  -2   4  342.26    6.87
   2   2  -4    1.16    0.37
   2   2  -4    1.76    0.42
  -2  -2   4    1.11    0.31
  -2  -2   4    1.01    0.35
  -2  -2   4    1.35    0.37
   1   2  -4  273.04    5.37
   1   2  -4  259.81    5.44
  -1  -2   4  277.42    5.29
  -1  -2   4  268.98    5.45
  -1  -2   4  276.16    5.39
   0   2  -4    3.11    0.48
   0   2  -4    2.92    0.36
   0   2  -4    4.09    0.48
   0   2  -4    3.60    0.55
   0  -2   4    4.16    0.46
   0  -2   4    2.97    0.48
  -1   2  -4   48.97    1.40
  -1   2  -4   48.73    1.28
  -1   2  -4   53.09    1.34
  -1   2  -4   49.47    1.31
   1  -2   4   50.62    1.33
  -2   2  -4    7.43    0.61
  -2   2  -4    7.50    0.59
  -2   2  -4    7.72    0.54
  -3   2  -4   14.58    0.81
  -3   2  -4   14.04    0.66
  -3   2  -4   14.30    0.73
  -3   2  -4   14.12    0.80
  -4   2  -4   60.54    1.61
  -4   2  -4   61.07    1.81
  -4   2  -4   61.16    1.63
   4  -2   4   58.77    1.64
   4  -2   4   62.96    1.65
  -5   2  -4   71.49    2.13
  -5   2  -4   73.30    1.95
  -5   2  -4   74.74    2.21
  -5   2  -4   72.79    1.90
   5  -2   4   72.40    1.93
   5  -2   4   74.37    1.96
  -6   2  -4    0.20    0.43
  -6   2  -4    0.62    0.47
  -6   2  -4    0.36    0.41
  -6   2  -4    0.11    0.46
   6  -2   4    0.19    0.40
   6  -2   4    0.22    0.37
  -7   2  -4   -0.65    0.43
  -7   2  -4    0.82    0.61
  -7   2  -4   -0.36    0.53
  -7   2  -4   -0.56    0.52
   7  -2   4    0.12    0.50
   7  -2   4    0.03    0.42
  -8   2  -4   14.21    1.54
  -8   2  -4   17.33    1.49
  -8   2  -4   18.12    1.63
  -8   2  -4   17.03    1.33
   8  -2   4   18.05    1.41
   8  -2   4   16.13    1.57
  -9   2  -4    1.97    0.80
  -9   2  -4    1.14    0.78
  -9   2  -4    0.68    0.76
  -9   2  -4    2.83    1.21
   9  -2   4    2.10    0.89
   9  -2   4    1.41    0.70
 -10   2  -4    3.21    0.99
 -10   2  -4   -0.10    0.92
 -10   2  -4    1.36    0.96
  10  -2   4    1.91    0.87
 -11   2  -4    6.66    1.26
  11  -2   4    7.03    1.22
  10   1  -4    1.53    1.29
 -10  -1   4   -0.41    1.15
 -10  -1   4    3.32    1.23
   9   1  -4   26.93    2.38
  -9  -1   4   21.48    1.68
  -9  -1   4   25.84    2.15
  -9  -1   4   22.87    1.96
   8   1  -4    1.98    1.03
  -8  -1   4    2.55    1.10
  -8  -1   4    2.49    0.89
  -8  -1   4    1.61    0.68
   7   1  -4    1.49    0.94
   7   1  -4    0.95    0.83
  -7  -1   4    2.93    0.83
  -7  -1   4    0.83    0.75
  -7  -1   4    1.08    0.61
  -7  -1   4    0.93    0.59
   6   1  -4    1.52    0.70
   6   1  -4    2.52    0.81
  -6  -1   4    2.50    0.50
  -6  -1   4    2.22    0.70
  -6  -1   4    1.96    0.46
  -6  -1   4    2.53    0.71
   5   1  -4    3.70    0.74
   5   1  -4    3.80    0.75
  -5  -1   4    2.62    0.63
  -5  -1   4    3.48    0.65
   4   1  -4  280.96    5.79
   4   1  -4  278.88    5.86
  -4  -1   4  274.54    5.78
  -4  -1   4  274.98    5.87
   3   1  -4    0.42    0.36
   3   1  -4    0.85    0.46
  -3  -1   4    0.87    0.38
  -3  -1   4    0.23    0.34
   2   1  -4  508.83    9.87
   2   1  -4  534.78    9.84
  -2  -1   4  512.40    9.81
  -2  -1   4  510.93    9.83
   1   1  -4    8.69    0.65
   1   1  -4    8.85    0.70
  -1  -1   4    8.14    0.63
  -1  -1   4    8.94    0.53
  -1  -1   4    7.65    0.61
   0   1  -4  298.84    5.73
   0   1  -4  298.69    5.98
   0   1  -4  322.22    5.98
   0   1  -4  309.52    5.80
   0  -1   4  298.33    5.74
   0  -1   4  309.84    5.99
   0  -1   4  315.29    5.97
   0  -1   4  318.17    5.82
  -1   1  -4   57.73    1.48
  -1   1  -4   61.19    1.39
  -1   1  -4   58.03    1.42
  -1   1  -4   61.52    1.48
   1  -1   4   60.19    1.48
  -2   1  -4   54.27    1.37
  -2   1  -4   50.48    1.39
  -2   1  -4   50.94    1.36
  -3   1  -4   10.62    0.58
  -3   1  -4   11.51    0.73
  -3   1  -4   11.86    0.62
  -4   1  -4  210.35    4.32
  -4   1  -4  215.60    4.53
  -4   1  -4  214.89    4.22
   4  -1   4  212.99    4.33
   4  -1   4  205.32    4.22
  -5   1  -4  139.17    3.34
  -5   1  -4  143.63    3.51
  -5   1  -4  146.25    3.04
  -5   1  -4  143.73    3.20
   5  -1   4  144.47    3.20
   5  -1   4  138.41    3.04
  -6   1  -4    1.70    0.55
  -6   1  -4    1.46    0.45
  -6   1  -4    1.53    0.52
  -6   1  -4    1.72    0.43
   6  -1   4    2.31    0.49
   6  -1   4    1.56    0.38
  -7   1  -4   39.08    1.58
  -7   1  -4   40.10    1.50
  -7   1  -4   43.14    1.75
  -7   1  -4   40.90    1.81
   7  -1   4   39.44    1.60
   7  -1   4   38.25    1.38
  -8   1  -4   20.95    1.30
  -8   1  -4   21.10    1.42
  -8   1  -4   16.43    1.59
  -8   1  -4   17.24    1.40
   8  -1   4   16.91    1.38
   8  -1   4   18.28    1.15
  -9   1  -4   12.11    1.41
  -9   1  -4   10.30    1.29
  -9   1  -4   12.07    1.51
  -9   1  -4    9.07    1.42
   9  -1   4   10.96    1.21
   9  -1   4   10.92    1.28
 -10   1  -4    3.81    0.97
 -10   1  -4    1.25    0.87
 -10   1  -4    4.23    1.01
  10  -1   4    2.72    0.83
 -11   1  -4    3.24    1.14
 -11   1  -4    3.88    1.28
  11  -1   4    3.09    0.99
  10   0  -4   17.30    2.39
 -10   0   4   15.30    2.29
   9   0  -4    5.77    1.23
  -9   0   4    4.16    1.14
  -9   0   4    5.81    1.08
  -9   0   4    5.69    1.10
   8   0  -4   47.06    2.44
  -8   0   4   45.03    1.97
  -8   0   4   49.64    2.01
  -8   0   4   50.06    2.43
  -8   0   4   48.31    2.39
   7   0  -4    3.78    0.89
   7   0  -4    4.57    1.03
  -7   0   4    2.98    0.81
  -7   0   4    4.75    0.76
  -7   0   4    3.92    0.85
   6   0  -4    3.95    0.85
   6   0  -4    3.59    0.95
  -6   0   4    3.56    0.59
  -6   0   4    3.31    0.73
  -6   0   4    2.37    0.65
   5   0  -4   33.14    1.65
   5   0  -4   36.70    1.57
  -5   0   4   33.81    1.50
  -5   0   4   34.62    1.21
  -5   0   4   35.69    1.54
   4   0  -4  303.76    5.85
   4   0  -4  314.17    6.28
   4   0  -4  310.32    6.40
  -4   0   4  295.54    5.85
  -4   0   4  297.59    6.23
   3   0  -4   16.05    0.94
   3   0  -4   15.04    0.62
   3   0  -4   16.01    1.01
  -3   0   4   15.56    0.90
  -3   0   4   15.28    0.89
  -3   0   4   15.92    0.69
   2   0  -4   80.84    2.08
   2   0  -4   81.13    2.02
  -2   0   4   77.38    1.99
  -2   0   4   76.26    1.99
   1   0  -4    3.69    0.56
   1   0  -4    3.01    0.40
  -1   0   4    3.91    0.52
  -1   0   4    2.97    0.40
  -1   0   4    4.65    0.40
   0   0  -4   10.38    0.58
   0   0  -4    9.17    0.45
   0   0  -4    9.73    0.58
   0   0   4   10.04    0.57
   0   0   4    9.01    0.46
   0   0   4   10.21    0.57
   0   0   4   10.28    0.40
  -1   0  -4   34.81    0.96
  -1   0  -4   36.78    1.02
  -1   0  -4   34.47    0.98
   1   0   4   34.44    0.97
   1   0   4   34.79    0.97
   1   0   4   36.87    1.04
  -2   0  -4   14.04    0.66
  -2   0  -4   14.18    0.55
   2   0   4   14.57    0.67
  -3   0  -4  152.42    3.03
  -3   0  -4  156.11    3.32
  -3   0  -4  152.85    3.18
  -4   0  -4    0.00    0.30
  -4   0  -4    0.48    0.32
   4   0   4    0.43    0.27
   4   0   4    0.39    0.22
  -5   0  -4  108.03    2.70
  -5   0  -4  107.43    2.54
   5   0   4  108.69    2.53
   5   0   4   98.63    2.25
  -6   0  -4  101.99    2.75
  -6   0  -4  101.99    2.31
  -6   0  -4  101.43    2.56
   6   0   4   99.43    2.26
   6   0   4  100.53    2.56
  -7   0  -4   11.99    0.90
  -7   0  -4   11.37    1.03
  -7   0  -4   10.91    1.22
  -7   0  -4   11.70    1.05
   7   0   4   10.74    1.03
   7   0   4   10.13    0.75
  -8   0  -4   33.50    1.72
  -8   0  -4   33.14    1.60
  -8   0  -4   31.59    1.79
  -8   0  -4   32.90    1.32
   8   0   4   30.80    1.59
   8   0   4   31.14    1.26
  -9   0  -4   22.95    1.62
  -9   0  -4   21.69    1.63
  -9   0  -4   22.68    1.29
  -9   0  -4   24.25    1.97
   9   0   4   22.34    1.28
   9   0   4   22.46    1.71
 -10   0  -4   13.25    2.08
 -10   0  -4   17.15    1.75
 -10   0  -4   15.92    1.83
  10   0   4   16.96    1.35
 -11   0  -4   10.87    1.48
 -11   0  -4   15.78    2.03
  11   0   4   12.92    1.57
 -12   0  -4   14.65    2.36
 -12   0  -4   13.25    2.03
  10  -1  -4    8.67    1.42
 -10   1   4    8.60    1.48
 -10   1   4    7.95    1.42
   9  -1  -4   24.59    2.16
  -9   1   4   25.88    2.15
  -9   1   4   21.62    2.12
  -9   1   4   21.73    2.22
   8  -1  -4   12.47    1.71
  -8   1   4   12.00    1.83
  -8   1   4   14.01    1.66
  -8   1   4   11.27    1.54
   7  -1  -4   38.16    2.07
   7  -1  -4   38.55    2.09
  -7   1   4   37.34    1.71
  -7   1   4   39.84    1.92
  -7   1   4   42.44    1.99
   6  -1  -4    1.62    0.74
   6  -1  -4    0.96    0.74
  -6   1   4   -0.05    0.59
  -6   1   4    0.58    0.49
  -6   1   4    0.77    0.56
   5  -1  -4   44.58    1.85
   5  -1  -4   45.35    1.72
   5  -1  -4   42.31    1.41
  -5   1   4   43.95    1.70
  -5   1   4   44.26    1.72
  -5   1   4   43.14    1.47
   4  -1  -4    1.47    0.31
   4  -1  -4    0.96    0.44
   4  -1  -4    0.63    0.54
  -4   1   4    0.49    0.38
  -4   1   4    0.87    0.34
   3  -1  -4  204.09    4.13
   3  -1  -4  207.95    4.38
   3  -1  -4  207.59    4.45
  -3   1   4  204.90    4.38
  -3   1   4  213.01    4.42
  -3   1   4  204.86    4.13
   2  -1  -4   25.38    0.85
   2  -1  -4   24.48    1.01
   2  -1  -4   26.63    1.15
  -2   1   4   27.19    0.91
  -2   1   4   26.95    1.05
  -2   1   4   23.35    0.99
   1  -1  -4   76.06    1.66
   1  -1  -4   71.72    1.79
   1  -1  -4   73.04    1.81
  -1   1   4   72.45    1.78
  -1   1   4   74.26    1.66
  -1   1   4   70.03    1.78
   0  -1  -4  160.06    3.12
   0  -1  -4  156.03    3.22
   0  -1  -4  157.54    3.19
   0   1   4  158.87    3.11
   0   1   4  151.58    3.21
   0   1   4  158.50    3.19
  -1  -1  -4    2.00    0.31
  -1  -1  -4    1.37    0.24
  -1  -1  -4    1.11    0.23
   1   1   4    1.36    0.22
   1   1   4    1.16    0.25
   1   1   4    1.20    0.24
  -2  -1  -4  398.17    7.41
   2   1   4  385.09    7.41
  -3  -1  -4    0.01    0.21
  -3  -1  -4   -0.17    0.26
   3   1   4    0.01    0.23
  -4  -1  -4   10.66    0.74
   4   1   4   11.06    0.67
  -5  -1  -4  175.69    3.84
  -5  -1  -4  180.40    4.00
   5   1   4  183.62    3.85
  -6  -1  -4    9.84    0.83
  -6  -1  -4    9.51    0.94
   6   1   4    8.72    0.83
  -7  -1  -4   91.16    2.54
  -7  -1  -4   92.92    2.70
   7   1   4   93.97    2.56
  -8  -1  -4    1.61    0.61
  -8  -1  -4    0.97    0.43
  -8  -1  -4    1.66    0.62
  -8  -1  -4    2.30    0.78
   8   1   4    1.73    0.70
  -9  -1  -4   69.44    2.89
  -9  -1  -4   72.06    2.69
  -9  -1  -4   74.56    2.53
   9   1   4   72.48    2.03
   9   1   4   71.98    2.60
 -10  -1  -4    0.19    1.15
 -10  -1  -4    0.11    0.83
 -10  -1  -4   -1.09    0.82
 -11  -1  -4    1.43    1.06
 -11  -1  -4    2.91    1.12
 -12  -1  -4    2.64    1.34
 -12  -1  -4    0.88    1.25
 -10   2   4   -2.09    1.21
 -10   2   4   -2.34    1.10
   9  -2  -4   21.41    2.10
  -9   2   4   21.46    2.08
  -9   2   4   22.11    2.04
   8  -2  -4    1.52    0.89
  -8   2   4    0.89    0.89
  -8   2   4    0.64    0.77
  -8   2   4    0.58    0.94
   7  -2  -4   10.04    1.56
   7  -2  -4    9.82    1.59
  -7   2   4   11.49    1.42
  -7   2   4    8.27    1.47
  -7   2   4   10.39    1.32
   6  -2  -4    1.06    0.70
   6  -2  -4    2.40    0.71
  -6   2   4    2.33    0.75
  -6   2   4    2.28    0.70
  -6   2   4    2.83    0.59
   5  -2  -4    0.71    0.44
   5  -2  -4    1.15    0.59
   5  -2  -4    1.74    0.66
  -5   2   4    1.41    0.52
  -5   2   4    0.92    0.51
  -5   2   4    0.70    0.57
   4  -2  -4  156.41    3.56
   4  -2  -4  147.68    3.57
   4  -2  -4  151.98    3.32
  -4   2   4  146.28    3.45
  -4   2   4  150.63    3.31
  -4   2   4  139.01    3.84
   3  -2  -4  318.52    6.48
   3  -2  -4  318.22    6.38
   3  -2  -4  323.58    6.25
  -3   2   4  310.71    6.37
  -3   2   4  327.35    6.45
  -3   2   4  321.26    6.25
   2  -2  -4   30.88    1.03
   2  -2  -4   31.57    1.27
   2  -2  -4   29.51    1.11
  -2   2   4   32.75    1.11
  -2   2   4   33.60    1.20
  -2   2   4   30.18    1.11
   1  -2  -4  179.48    3.51
   1  -2  -4  167.78    3.56
   1  -2  -4  173.96    3.62
  -1   2   4  164.34    3.55
  -1   2   4  178.72    3.53
  -1   2   4  171.45    3.58
   0  -2  -4    2.90    0.48
   0  -2  -4    2.86    0.48
   0  -2  -4    2.69    0.41
   0   2   4    2.29    0.32
   0   2   4    2.24    0.31
   0   2   4    2.76    0.43
  -1  -2  -4  344.39    6.71
  -1  -2  -4  374.76    6.75
  -1  -2  -4  357.27    6.61
   1   2   4  343.64    6.71
   1   2   4  359.61    6.61
   1   2   4  356.68    6.74
  -3  -2  -4   28.10    0.92
  -3  -2  -4   29.81    1.03
   3   2   4   28.66    1.02
  -4  -2  -4   40.03    1.31
   4   2   4   39.59    1.21
   4   2   4   39.75    1.32
  -5  -2  -4   22.87    1.07
  -5  -2  -4   21.53    0.96
   5   2   4   21.59    0.94
  -6  -2  -4   47.69    2.49
  -6  -2  -4   52.55    1.66
   6   2   4   53.30    1.66
  -7  -2  -4  102.02    2.77
  -7  -2  -4  108.88    2.93
   7   2   4  108.08    2.82
  -8  -2  -4    4.18    0.74
  -8  -2  -4    4.59    0.86
   8   2   4    5.08    0.79
  -9  -2  -4   18.03    1.66
  -9  -2  -4   18.70    1.60
  -9  -2  -4   18.15    1.47
   9   2   4   17.03    1.62
 -10  -2  -4   21.91    1.81
 -10  -2  -4   25.34    1.92
 -10  -2  -4   25.86    2.20
 -11  -2  -4   -1.36    0.90
 -11  -2  -4   -0.68    0.94
 -12  -2  -4    2.12    1.21
 -12  -2  -4    2.82    1.35
  10  -3  -4   43.12    2.64
 -10   3   4   42.23    2.78
 -10   3   4   37.96    2.76
   9  -3  -4   11.60    1.93
  -9   3   4   12.70    1.95
   8  -3  -4   12.66    1.68
  -8   3   4   12.35    1.68
  -8   3   4   12.38    2.13
  -8   3   4   14.35    1.97
   7  -3  -4    5.00    1.20
   7  -3  -4    5.29    1.02
  -7   3   4    5.70    0.94
  -7   3   4    6.01    0.96
  -7   3   4    6.03    1.07
   6  -3  -4    7.26    1.02
   6  -3  -4   10.43    1.26
   6  -3  -4    7.78    1.13
  -6   3   4    6.64    0.87
  -6   3   4    8.17    1.31
  -6   3   4    8.73    1.22
   5  -3  -4    0.71    0.77
   5  -3  -4   -0.10    0.60
   5  -3  -4    1.11    0.57
  -5   3   4    0.91    0.53
  -5   3   4    0.78    0.62
  -5   3   4    0.80    0.53
   4  -3  -4    3.28    0.51
   4  -3  -4    3.01    0.62
   4  -3  -4    2.47    0.62
  -4   3   4    2.58    0.59
  -4   3   4    3.02    0.55
  -4   3   4    2.66    0.52
   3  -3  -4   16.83    0.91
   3  -3  -4   17.71    1.11
   3  -3  -4   19.17    1.00
  -3   3   4   20.21    1.00
  -3   3   4   17.38    0.93
  -3   3   4   18.86    1.09
   2  -3  -4   77.39    1.94
   2  -3  -4   76.11    1.94
   2  -3  -4   77.54    2.09
  -2   3   4   78.50    1.97
  -2   3   4   76.84    2.03
  -2   3   4   75.31    1.93
   1  -3  -4  127.56    2.82
   1  -3  -4  125.61    2.74
   1  -3  -4  119.83    2.68
  -1   3   4  121.96    2.69
  -1   3   4  127.43    2.79
  -1   3   4  123.44    2.75
   0  -3  -4   38.72    1.16
   0  -3  -4   41.24    1.20
   0  -3  -4   36.60    1.08
   0   3   4   36.45    1.09
   0   3   4   37.36    1.17
   0   3   4   39.88    1.16
  -1  -3  -4  251.31    4.71
  -1  -3  -4  254.40    4.93
  -1  -3  -4  260.35    4.89
  -1  -3  -4  263.42    5.02
   1   3   4  263.68    4.89
   1   3   4  250.63    4.92
   1   3   4  247.91    5.00
  -2  -3  -4   73.10    1.68
  -2  -3  -4   76.11    1.81
   2   3   4   76.57    1.56
   2   3   4   72.17    1.79
  -3  -3  -4    5.19    0.48
  -3  -3  -4    4.68    0.60
   3   3   4    4.38    0.55
  -4  -3  -4  223.01    4.56
  -4  -3  -4  230.53    4.67
   4   3   4  225.63    4.69
   4   3   4  227.41    4.56
  -5  -3  -4   20.31    1.01
  -5  -3  -4   19.44    0.92
   5   3   4   18.84    0.99
   5   3   4   20.28    0.91
  -6  -3  -4  305.72    6.31
  -6  -3  -4  316.17    6.43
   6   3   4  311.70    6.32
  -7  -3  -4    1.36    0.60
  -7  -3  -4    0.64    0.47
   7   3   4    0.77    0.47
  -8  -3  -4   83.56    2.60
  -8  -3  -4   89.36    2.73
   8   3   4   89.11    2.63
  -9  -3  -4    7.61    1.26
  -9  -3  -4    7.08    1.11
  -9  -3  -4    6.14    0.98
   9   3   4    8.05    0.99
 -10  -3  -4    7.86    1.09
 -10  -3  -4    5.39    1.18
 -10  -3  -4    5.00    1.00
 -11  -3  -4    2.08    0.94
 -11  -3  -4    1.33    0.94
 -12  -3  -4   -0.18    1.22
 -12  -3  -4    0.50    1.26
   9  -4  -4   21.12    2.05
  -9   4   4   15.81    2.12
  -9   4   4   15.86    2.09
   8  -4  -4   12.75    1.67
  -8   4   4   15.54    1.78
  -8   4   4   10.88    1.52
  -8   4   4   14.27    1.84
   7  -4  -4    9.10    1.48
   7  -4  -4    8.56    1.19
   7  -4  -4    8.60    1.16
  -7   4   4    8.74    1.10
  -7   4   4    7.76    1.18
  -7   4   4    8.62    1.35
   6  -4  -4   68.98    2.35
   6  -4  -4   69.95    2.36
   6  -4  -4   66.24    2.52
  -6   4   4   70.37    2.37
  -6   4   4   69.29    2.36
  -6   4   4   68.52    2.49
   5  -4  -4    3.88    0.70
   5  -4  -4    2.45    0.65
   5  -4  -4    2.33    0.60
  -5   4   4    3.07    0.64
  -5   4   4    2.74    0.59
  -5   4   4    3.06    0.72
   4  -4  -4   52.19    2.04
   4  -4  -4   50.29    2.02
   4  -4  -4   52.13    1.85
  -4   4   4   56.14    1.90
  -4   4   4   53.35    1.71
  -4   4   4   53.98    1.77
   3  -4  -4   -0.55    0.35
   3  -4  -4    0.16    0.35
   3  -4  -4    0.26    0.38
  -3   4   4   -0.24    0.30
  -3   4   4   -0.23    0.34
  -3   4   4    0.35    0.43
   2  -4  -4  287.40    5.75
   2  -4  -4  283.20    5.81
   2  -4  -4  287.38    5.64
  -2   4   4  283.03    5.75
  -2   4   4  293.34    5.83
  -2   4   4  278.07    5.64
   1  -4  -4   16.62    0.88
   1  -4  -4   14.84    0.77
   1  -4  -4   13.33    0.91
  -1   4   4   15.51    0.94
  -1   4   4   14.39    0.72
  -1   4   4   16.54    1.01
   0  -4  -4   76.88    1.88
   0  -4  -4   76.81    1.94
   0  -4  -4   74.76    1.75
   0   4   4   74.28    1.62
   0   4   4   76.60    1.95
   0   4   4   75.37    1.75
   0   4   4   76.84    1.90
  -1  -4  -4    0.41    0.25
  -1  -4  -4    1.01    0.24
  -1  -4  -4    0.71    0.38
  -1  -4  -4    0.85    0.19
   1   4   4    0.37    0.29
   1   4   4    0.43    0.32
  -2  -4  -4    5.45    0.41
  -2  -4  -4    5.77    0.46
  -2  -4  -4    4.23    0.66
   2   4   4    3.83    0.46
   2   4   4    4.23    0.58
  -3  -4  -4    1.61    0.31
  -3  -4  -4    0.92    0.40
   3   4   4    1.06    0.33
  -4  -4  -4    4.33    0.67
  -4  -4  -4    5.46    0.57
   4   4   4    4.90    0.64
   4   4   4    5.45    0.55
  -5  -4  -4   95.29    2.35
  -5  -4  -4   97.22    2.44
   5   4   4   97.15    2.34
   5   4   4   95.06    2.44
  -6  -4  -4    3.43    0.55
  -6  -4  -4    3.55    0.57
   6   4   4    3.55    0.57
   6   4   4    2.22    0.46
  -7  -4  -4   72.77    2.21
  -7  -4  -4   75.11    2.28
   7   4   4   74.39    2.23
  -8  -4  -4   48.00    1.91
  -8  -4  -4   44.27    1.82
   8   4   4   46.12    1.86
  -9  -4  -4   20.72    1.54
  -9  -4  -4   22.70    1.69
   9   4   4   21.81    1.68
 -10  -4  -4    8.12    1.22
 -10  -4  -4    6.48    1.11
 -10  -4  -4    7.31    1.15
 -11  -4  -4   -1.28    0.87
 -11  -4  -4    1.91    2.34
 -11  -4  -4   -1.53    0.95
 -12  -4  -4    7.71    1.66
   9  -5  -4   27.38    2.28
  -9   5   4   24.01    2.15
   8  -5  -4    4.11    1.03
  -8   5   4    2.53    1.00
  -8   5   4    4.06    1.04
   7  -5  -4    6.71    1.14
   7  -5  -4    5.69    1.03
   7  -5  -4    4.99    0.95
  -7   5   4    4.71    1.11
  -7   5   4    4.92    0.94
  -7   5   4    6.84    1.00
   6  -5  -4   20.25    1.55
   6  -5  -4   22.08    1.59
   6  -5  -4   23.78    1.63
  -6   5   4   19.88    1.75
  -6   5   4   24.97    1.54
  -6   5   4   23.65    1.63
   5  -5  -4    2.14    0.67
   5  -5  -4    1.21    0.58
   5  -5  -4    1.07    0.65
  -5   5   4    1.17    0.55
  -5   5   4    1.68    0.69
  -5   5   4    1.35    0.60
   4  -5  -4    4.20    0.70
   4  -5  -4    2.96    0.60
   4  -5  -4    4.47    1.02
  -4   5   4    4.59    0.81
  -4   5   4    3.77    0.71
  -4   5   4    3.81    0.57
   3  -5  -4   94.09    2.57
   3  -5  -4   91.11    2.51
   3  -5  -4   93.08    2.31
  -3   5   4   92.80    2.50
  -3   5   4   87.93    2.29
  -3   5   4   96.27    2.59
   2  -5  -4    4.27    0.72
   2  -5  -4    6.23    0.75
   2  -5  -4    5.52    0.66
  -2   5   4    7.60    0.86
  -2   5   4    5.48    0.61
  -2   5   4    6.96    0.92
   1  -5  -4  364.09    7.35
   1  -5  -4  372.14    7.11
   1  -5  -4  374.68    7.36
  -1   5   4  385.29    7.38
  -1   5   4  376.13    7.10
  -1   5   4  377.22    7.14
  -1   5   4  374.85    7.39
   0  -5  -4   78.40    1.83
   0  -5  -4   81.57    2.02
   0  -5  -4   81.03    2.08
   0   5   4   80.21    1.82
   0   5   4   78.99    1.82
   0   5   4   81.49    2.14
   0   5   4   81.60    2.05
  -1  -5  -4  130.89    2.75
  -1  -5  -4  133.76    2.74
  -1  -5  -4  136.26    2.89
  -1  -5  -4  143.65    3.06
   1   5   4  131.61    2.87
   1   5   4  127.01    2.99
   1   5   4  133.22    2.78
  -2  -5  -4    2.28    0.50
  -2  -5  -4    2.36    0.34
  -2  -5  -4    2.36    0.32
  -2  -5  -4    2.52    0.32
   2   5   4    2.18    0.35
   2   5   4    1.63    0.42
  -3  -5  -4  192.27    3.83
  -3  -5  -4  198.90    4.13
  -3  -5  -4  198.95    3.93
   3   5   4  194.17    4.13
   3   5   4  197.49    3.83
  -4  -5  -4   20.91    0.87
  -4  -5  -4   20.56    0.99
   4   5   4   20.88    0.97
   4   5   4   20.81    0.86
  -5  -5  -4   74.78    1.98
  -5  -5  -4   74.14    2.06
   5   5   4   74.02    2.05
   5   5   4   75.25    1.94
  -6  -5  -4   82.75    2.31
  -6  -5  -4   80.99    2.22
   6   5   4   83.87    2.22
   6   5   4   82.03    2.29
  -7  -5  -4   52.91    1.88
  -7  -5  -4   53.81    1.90
   7   5   4   55.56    1.89
  -8  -5  -4    1.32    0.64
  -8  -5  -4   -0.03    0.54
   8   5   4    0.73    0.65
  -9  -5  -4   16.89    1.61
  -9  -5  -4   14.95    1.55
   9   5   4   14.02    1.58
 -10  -5  -4    1.81    0.88
 -10  -5  -4    3.55    1.09
 -10  -5  -4    1.99    0.83
 -11  -5  -4    0.82    1.05
 -11  -5  -4    0.22    1.06
 -11  -5  -4    0.28    1.37
 -12  -5  -4    0.20    1.63
   9  -6  -4   29.43    2.28
  -9   6   4   21.80    2.42
  -9   6   4   20.48    2.09
   8  -6  -4    1.76    0.94
  -8   6   4    1.57    0.98
  -8   6   4    1.19    0.99
   7  -6  -4   67.33    2.74
   7  -6  -4   68.28    2.91
   7  -6  -4   69.96    2.71
  -7   6   4   67.32    2.98
  -7   6   4   71.25    2.78
  -7   6   4   73.94    2.61
   6  -6  -4    0.96    0.77
   6  -6  -4    0.55    0.72
   6  -6  -4    0.71    0.75
  -6   6   4    0.12    0.80
  -6   6   4    0.53    0.65
   5  -6  -4   45.68    1.76
   5  -6  -4   44.05    1.95
   5  -6  -4   42.81    1.95
  -5   6   4   46.35    2.14
  -5   6   4   41.54    1.96
  -5   6   4   44.63    1.72
   4  -6  -4   11.41    1.14
   4  -6  -4    7.30    1.27
   4  -6  -4   11.76    1.18
  -4   6   4   11.41    0.97
  -4   6   4   11.91    1.33
  -4   6   4   11.71    1.18
   3  -6  -4    1.82    0.44
   3  -6  -4    1.06    0.46
   3  -6  -4    0.85    0.50
  -3   6   4    1.58    0.62
  -3   6   4    1.41    0.51
  -3   6   4    1.65    0.44
   2  -6  -4   47.50    1.91
   2  -6  -4   52.71    1.46
   2  -6  -4   52.44    1.73
  -2   6   4   50.29    1.44
  -2   6   4   44.21    2.46
  -2   6   4   52.12    1.77
   1  -6  -4    0.15    0.30
   1  -6  -4    0.60    0.36
   1  -6  -4   -0.10    0.25
  -1   6   4   -0.13    0.24
  -1   6   4    0.14    0.43
  -1   6   4   -0.09    0.36
  -1   6   4    0.22    0.24
   0  -6  -4   78.16    2.06
   0  -6  -4   80.32    2.12
   0  -6  -4   76.18    1.75
   0   6   4   77.73    1.88
   0   6   4   78.39    2.05
   0   6   4   77.63    1.75
   0   6   4   76.18    2.14
  -1  -6  -4    0.45    0.39
  -1  -6  -4    0.38    0.25
  -1  -6  -4    0.41    0.28
  -1  -6  -4    0.62    0.23
   1   6   4    0.53    0.41
   1   6   4    0.84    0.30
   1   6   4   -0.19    0.29
  -2  -6  -4  120.23    2.66
  -2  -6  -4  120.89    2.66
  -2  -6  -4  122.89    2.84
  -2  -6  -4  120.68    2.48
  -2  -6  -4  120.64    2.51
   2   6   4  116.53    2.63
   2   6   4  117.08    2.82
  -3  -6  -4    4.91    0.77
  -3  -6  -4    5.57    0.52
  -3  -6  -4    3.96    0.48
  -3  -6  -4    4.82    0.62
   3   6   4    3.83    0.50
   3   6   4    3.73    0.54
  -4  -6  -4   55.59    1.50
  -4  -6  -4   54.46    1.68
   4   6   4   54.58    1.39
   4   6   4   53.07    1.65
   4   6   4   54.55    1.47
  -5  -6  -4    0.69    0.44
  -5  -6  -4    1.11    0.38
   5   6   4    1.10    0.43
   5   6   4    1.34    0.38
  -6  -6  -4   50.27    1.86
  -6  -6  -4   50.03    1.68
   6   6   4   50.97    1.64
   6   6   4   50.61    1.75
  -7  -6  -4   14.66    1.15
  -7  -6  -4   17.22    1.28
   7   6   4   16.37    1.16
   7   6   4   16.58    1.17
  -8  -6  -4   46.03    1.91
  -8  -6  -4   43.87    1.91
   8   6   4   44.98    1.92
  -9  -6  -4   39.05    2.02
  -9  -6  -4   36.00    1.96
   9   6   4   38.57    2.04
 -10  -6  -4    5.03    1.18
 -10  -6  -4    3.07    1.00
 -11  -6  -4   12.23    1.97
 -11  -6  -4    7.82    1.28
 -11  -6  -4   11.34    1.73
   9  -7  -4    0.25    1.16
  -9   7   4    0.02    1.19
   8  -7  -4    7.50    1.25
  -8   7   4   10.85    1.76
  -8   7   4    7.19    1.34
   7  -7  -4   11.61    1.67
   7  -7  -4   11.57    1.91
  -7   7   4    9.42    1.29
  -7   7   4   11.82    1.58
   6  -7  -4   31.66    1.76
   6  -7  -4   29.85    1.86
   6  -7  -4   31.46    2.04
  -6   7   4   30.12    1.95
  -6   7   4   26.90    2.18
  -6   7   4   31.98    1.75
   5  -7  -4    3.08    0.84
   5  -7  -4    4.51    0.76
  -5   7   4    5.20    0.76
  -5   7   4    4.34    0.93
  -5   7   4    4.74    0.93
   4  -7  -4   23.87    1.48
   4  -7  -4   26.65    1.57
  -4   7   4   25.71    1.78
  -4   7   4   26.49    1.29
  -4   7   4   24.42    1.56
   3  -7  -4    9.76    1.12
   3  -7  -4   10.08    1.06
   3  -7  -4   10.66    0.87
  -3   7   4   10.69    1.14
  -3   7   4   10.69    0.83
  -3   7   4   10.22    1.23
   2  -7  -4  137.22    3.39
   2  -7  -4  136.78    3.40
   2  -7  -4  134.61    2.94
  -2   7   4  134.47    2.97
  -2   7   4  137.63    3.14
  -2   7   4  134.38    3.39
  -2   7   4  142.04    3.44
   1  -7  -4   98.54    2.18
   1  -7  -4   98.35    2.62
  -1   7   4   99.32    2.40
  -1   7   4   97.78    2.19
  -1   7   4   98.69    2.68
  -1   7   4  100.08    2.89
   0  -7  -4  325.61    6.21
   0  -7  -4  338.19    6.74
   0  -7  -4  327.55    6.70
   0   7   4  333.53    6.77
   0   7   4  329.08    6.52
   0   7   4  327.04    6.21
   0   7   4  337.49    6.69
  -1  -7  -4    0.08    0.30
  -1  -7  -4   -0.08    0.24
  -1  -7  -4    0.32    0.41
  -1  -7  -4   -0.11    0.23
   1   7   4   -0.22    0.38
   1   7   4   -0.10    0.31
   1   7   4   -0.28    0.30
  -2  -7  -4   97.14    2.06
  -2  -7  -4   98.65    2.36
  -2  -7  -4   98.04    2.38
  -2  -7  -4   99.37    2.52
  -2  -7  -4   97.30    2.10
   2   7   4   94.10    2.46
   2   7   4   95.21    2.33
  -3  -7  -4    3.56    0.48
  -3  -7  -4    4.18    0.60
  -3  -7  -4    4.85    0.58
  -3  -7  -4    4.50    0.65
   3   7   4    3.47    0.56
   3   7   4    3.14    0.51
  -4  -7  -4   57.22    1.54
  -4  -7  -4   59.51    1.85
  -4  -7  -4   57.52    1.79
   4   7   4   54.46    1.54
   4   7   4   55.67    1.51
   4   7   4   54.16    1.73
  -5  -7  -4    2.52    0.56
  -5  -7  -4    2.93    0.49
   5   7   4    3.32    0.47
   5   7   4    2.46    0.55
   5   7   4    3.05    0.42
   5   7   4    2.70    0.44
  -6  -7  -4    0.60    0.48
  -6  -7  -4   -0.40    0.61
   6   7   4    0.24    0.36
   6   7   4    0.08    0.35
   6   7   4    0.20    0.41
   6   7   4   -0.25    0.41
  -7  -7  -4    1.18    0.60
  -7  -7  -4    0.44    0.53
   7   7   4    0.74    0.54
   7   7   4    0.79    0.51
  -8  -7  -4   28.62    1.67
  -8  -7  -4   26.72    1.67
   8   7   4   25.12    1.54
  -9  -7  -4    3.23    0.97
  -9  -7  -4    3.50    0.85
   9   7   4    3.16    0.96
 -10  -7  -4   11.60    1.86
 -11  -7  -4   -1.32    1.06
 -11  -7  -4    0.60    1.05
 -11  -7  -4    1.02    1.44
   8  -8  -4   37.74    2.53
  -8   8   4   34.22    2.55
  -8   8   4   40.76    2.42
   7  -8  -4    1.38    1.02
   7  -8  -4    2.11    1.08
  -7   8   4   -0.12    0.85
  -7   8   4   -0.64    0.95
   6  -8  -4   11.38    1.62
   6  -8  -4   11.17    1.89
   6  -8  -4   10.10    1.54
  -6   8   4   10.38    1.70
  -6   8   4    9.16    1.58
   5  -8  -4   11.54    1.24
   5  -8  -4   10.16    1.22
   5  -8  -4   12.00    1.42
  -5   8   4   11.86    1.53
  -5   8   4   13.52    1.24
  -5   8   4   11.47    1.79
   4  -8  -4    5.35    0.97
   4  -8  -4    3.86    0.88
   4  -8  -4    3.96    0.77
  -4   8   4    4.66    0.85
  -4   8   4    4.85    0.99
  -4   8   4    4.78    0.65
   3  -8  -4   17.37    1.38
   3  -8  -4   15.33    1.25
   3  -8  -4   16.36    0.94
  -3   8   4   16.31    0.97
  -3   8   4   17.52    1.43
  -3   8   4   15.57    1.35
  -3   8   4   16.30    1.15
   2  -8  -4   24.22    0.98
   2  -8  -4   25.10    1.45
   2  -8  -4   24.42    1.34
  -2   8   4   25.15    1.21
  -2   8   4   25.43    0.96
  -2   8   4   25.04    1.48
  -2   8   4   26.20    1.45
   1  -8  -4  150.11    3.09
   1  -8  -4  154.99    3.73
   1  -8  -4  156.87    3.73
  -1   8   4  150.74    3.75
  -1   8   4  150.62    3.11
  -1   8   4  153.11    3.48
  -1   8   4  154.00    3.69
   0  -8  -4   22.60    0.75
   0  -8  -4   23.25    1.19
   0  -8  -4   22.96    1.29
   0   8   4   23.32    1.11
   0   8   4   20.93    1.30
   0   8   4   22.14    1.46
  -1  -8  -4   43.38    2.00
  -1  -8  -4   45.34    1.49
  -1  -8  -4   45.69    1.60
   1   8   4   46.63    1.73
   1   8   4   45.03    1.55
   1   8   4   46.55    1.54
  -2  -8  -4   99.67    2.48
  -2  -8  -4   98.87    2.61
  -2  -8  -4   99.25    2.53
  -2  -8  -4   96.52    2.05
  -2  -8  -4   97.18    2.09
   2   8   4   98.18    2.48
   2   8   4   97.01    2.61
  -3  -8  -4   20.77    1.22
  -3  -8  -4   18.96    0.77
  -3  -8  -4   21.37    1.04
   3   8   4   19.77    1.00
   3   8   4   18.45    1.09
  -4  -8  -4   51.83    1.81
  -4  -8  -4   49.74    1.44
  -4  -8  -4   50.73    1.73
   4   8   4   48.89    1.56
   4   8   4   49.99    1.72
  -5  -8  -4    7.76    1.30
  -5  -8  -4   11.63    0.90
  -5  -8  -4   10.14    1.10
   5   8   4   10.42    0.84
   5   8   4   10.28    0.84
   5   8   4    9.63    0.93
   5   8   4    9.43    0.82
  -6  -8  -4   24.24    1.27
  -6  -8  -4   28.99    1.56
  -6  -8  -4   24.66    1.49
   6   8   4   25.96    1.19
   6   8   4   24.49    1.14
   6   8   4   24.83    1.23
   6   8   4   27.21    1.36
  -7  -8  -4   73.34    2.32
  -7  -8  -4   68.18    2.24
   7   8   4   72.05    2.30
   7   8   4   68.67    2.00
   7   8   4   71.00    2.00
   7   8   4   70.67    2.19
  -8  -8  -4   12.40    1.40
  -8  -8  -4   14.25    1.50
   8   8   4    9.45    1.12
   8   8   4   11.25    1.37
   8   8   4   10.16    1.25
  -9  -8  -4   45.46    2.27
  -9  -8  -4   44.50    2.23
   9   8   4   40.68    2.21
 -10  -8  -4   10.37    1.44
 -10  -8  -4    6.62    1.20
 -11  -8  -4   13.56    2.24
 -11  -8  -4   15.33    2.25
   8  -9  -4    3.22    1.42
  -8   9   4    1.85    1.38
  -8   9   4    4.82    1.25
   7  -9  -4    6.17    1.17
   7  -9  -4    5.23    1.31
  -7   9   4    7.48    1.15
  -7   9   4    4.94    1.35
   6  -9  -4    4.37    1.02
   6  -9  -4    3.52    1.05
  -6   9   4    2.87    1.04
  -6   9   4    6.41    0.98
   5  -9  -4   51.23    1.99
   5  -9  -4   52.58    2.43
   5  -9  -4   51.76    2.61
  -5   9   4   56.10    2.02
  -5   9   4   53.32    2.70
  -5   9   4   56.84    2.54
   4  -9  -4   -0.08    0.55
   4  -9  -4    0.03    0.74
   4  -9  -4    0.14    0.77
  -4   9   4    0.69    0.53
  -4   9   4    1.02    0.74
  -4   9   4    0.59    0.62
  -4   9   4   -1.10    0.75
   3  -9  -4   13.88    1.30
   3  -9  -4   12.23    1.42
   3  -9  -4   13.05    0.92
  -3   9   4   14.88    1.48
  -3   9   4   17.02    1.55
  -3   9   4   15.37    1.17
  -3   9   4   12.93    0.87
   2  -9  -4   31.16    1.63
   2  -9  -4   28.82    1.03
   2  -9  -4   30.04    1.61
  -2   9   4   29.35    1.42
  -2   9   4   28.37    1.00
  -2   9   4   31.90    1.65
  -2   9   4   30.28    1.73
   1  -9  -4   90.06    2.70
   1  -9  -4   93.29    2.72
  -1   9   4   91.22    2.77
  -1   9   4   90.12    2.50
  -1   9   4   91.98    2.67
   0  -9  -4    8.92    0.99
   0  -9  -4   10.36    1.13
   0   9   4    8.71    1.18
   0   9   4    9.69    0.95
   0   9   4    9.55    1.01
  -1  -9  -4  130.28    3.31
  -1  -9  -4  132.80    3.31
  -1  -9  -4  130.73    3.18
   1   9   4  129.25    3.34
   1   9   4  130.29    3.24
   1   9   4  130.07    3.19
  -2  -9  -4   17.76    1.12
  -2  -9  -4   17.98    1.28
  -2  -9  -4   17.16    1.09
   2   9   4   16.43    1.21
  -3  -9  -4   10.40    1.00
  -3  -9  -4   10.03    0.64
  -3  -9  -4    9.66    1.16
  -3  -9  -4   10.12    0.94
   3   9   4    9.70    0.91
   3   9   4    8.57    0.99
  -4  -9  -4    4.66    0.75
  -4  -9  -4    5.24    0.77
  -4  -9  -4    4.78    0.67
   4   9   4    5.34    0.92
   4   9   4    4.64    0.64
  -5  -9  -4   24.85    1.46
  -5  -9  -4   23.96    1.14
  -5  -9  -4   25.08    1.52
   5   9   4   23.91    1.10
   5   9   4   24.64    1.24
   5   9   4   24.11    1.29
  -6  -9  -4   18.40    1.23
  -6  -9  -4   18.50    1.51
  -6  -9  -4   21.70    1.53
   6   9   4   22.21    1.27
   6   9   4   20.69    1.20
   6   9   4   21.88    1.19
   6   9   4   20.47    1.31
  -7  -9  -4    0.39    0.71
  -7  -9  -4    0.70    0.66
  -7  -9  -4   -0.54    0.65
   7   9   4    0.64    0.62
   7   9   4    0.49    0.55
   7   9   4   -0.09    0.60
   7   9   4   -0.03    0.58
  -8  -9  -4   28.58    2.25
  -8  -9  -4   34.57    3.48
  -8  -9  -4   33.02    1.99
   8   9   4   32.34    1.61
   8   9   4   29.80    1.59
   8   9   4   30.61    1.74
   8   9   4   31.79    1.71
  -9  -9  -4   37.02    2.11
  -9  -9  -4   33.81    2.21
   9   9   4   33.19    2.17
   9   9   4   29.71    1.68
 -10  -9  -4   13.85    2.23
 -11  -9  -4   23.14    2.54
   7 -10  -4    9.67    1.52
   7 -10  -4   12.18    2.10
  -7  10   4    8.41    1.41
  -7  10   4   12.07    1.88
   6 -10  -4   15.70    1.93
   6 -10  -4   13.82    1.97
  -6  10   4   15.36    1.64
  -6  10   4   15.76    2.05
   5 -10  -4   23.22    1.96
   5 -10  -4   23.15    1.55
  -5  10   4   21.28    2.03
  -5  10   4   21.52    1.74
  -5  10   4   22.50    1.49
   4 -10  -4   10.53    1.85
   4 -10  -4   15.62    1.64
   4 -10  -4   14.38    1.15
  -4  10   4   14.77    1.76
  -4  10   4   16.14    1.92
  -4  10   4   15.62    1.07
  -4  10   4   13.61    2.19
   3 -10  -4   22.27    1.64
   3 -10  -4   21.64    1.05
   3 -10  -4   21.59    1.80
  -3  10   4   21.41    1.73
  -3  10   4   23.35    1.81
  -3  10   4   20.94    1.00
  -3  10   4   20.82    1.47
   2 -10  -4    8.69    1.38
   2 -10  -4    8.51    1.27
  -2  10   4    7.37    1.02
  -2  10   4    9.99    1.16
  -2  10   4    8.81    1.36
   1 -10  -4   12.38    1.34
   1 -10  -4   10.01    1.25
  -1  10   4   10.07    1.23
  -1  10   4   10.65    1.43
  -1  10   4   10.91    1.14
   0 -10  -4   29.95    1.56
   0 -10  -4   29.36    1.57
   0  10   4   27.41    1.72
   0  10   4   29.23    1.55
   0  10   4   30.23    1.48
  -1 -10  -4  143.39    3.71
  -1 -10  -4  146.42    3.57
  -1 -10  -4  146.32    3.69
   1  10   4  145.88    3.64
   1  10   4  143.69    3.74
   1  10   4  143.81    3.59
  -2 -10  -4    3.43    0.73
  -2 -10  -4    3.14    0.60
  -2 -10  -4    2.38    0.65
   2  10   4    3.98    0.69
   2  10   4    3.58    0.80
   2  10   4    3.29    0.75
  -3 -10  -4   71.61    2.26
  -3 -10  -4   71.56    2.28
  -3 -10  -4   70.38    2.27
  -3 -10  -4   67.97    1.62
   3  10   4   67.41    2.26
   3  10   4   69.51    2.21
  -4 -10  -4    5.13    0.83
  -4 -10  -4    7.83    1.13
  -4 -10  -4    5.11    0.74
   4  10   4    5.36    0.78
   4  10   4    4.06    0.70
  -5 -10  -4   32.02    1.72
  -5 -10  -4   32.91    1.35
  -5 -10  -4   34.85    1.75
   5  10   4   34.91    1.59
   5  10   4   34.83    1.58
  -6 -10  -4   34.55    1.82
  -6 -10  -4   36.31    1.54
  -6 -10  -4   34.87    1.90
   6  10   4   35.12    1.47
   6  10   4   34.64    1.58
   6  10   4   34.59    1.64
   6  10   4   34.75    1.66
  -7 -10  -4   23.32    1.57
  -7 -10  -4   24.56    1.98
  -7 -10  -4   23.36    1.80
   7  10   4   23.35    1.60
   7  10   4   24.15    1.53
   7  10   4   21.49    1.44
   7  10   4   26.00    1.49
  -8 -10  -4   78.09    2.84
  -8 -10  -4   71.45    3.97
   8  10   4   77.40    2.50
   8  10   4   83.18    2.69
   8  10   4   80.77    2.68
   8  10   4   83.14    2.65
  -9 -10  -4   -0.17    1.05
  -9 -10  -4   -1.16    0.93
   9  10   4    0.50    1.00
   9  10   4    1.70    1.04
   9  10   4   -0.65    0.82
 -10 -10  -4   25.53    2.38
   7 -11  -4   -0.14    1.25
  -7  11   4   -1.32    1.14
  -7  11   4    1.31    1.06
  -7  11   4   -0.87    1.22
   6 -11  -4   10.94    1.83
   6 -11  -4    7.71    1.28
  -6  11   4    5.93    1.30
  -6  11   4    7.77    1.12
  -6  11   4    8.33    1.22
   5 -11  -4   -0.08    0.85
   5 -11  -4    1.02    0.91
  -5  11   4    1.13    0.78
  -5  11   4    1.48    0.66
  -5  11   4   -0.11    1.02
   4 -11  -4   37.06    2.23
   4 -11  -4   37.89    1.56
  -4  11   4   41.21    1.48
  -4  11   4   38.20    2.37
  -4  11   4   39.52    2.00
   3 -11  -4   -1.22    0.99
   3 -11  -4    0.37    0.87
  -3  11   4    0.09    0.83
  -3  11   4    0.55    0.66
  -3  11   4    0.63    0.84
   2 -11  -4    7.70    1.12
   2 -11  -4    5.81    1.06
  -2  11   4    7.05    1.06
  -2  11   4    8.13    1.27
   1 -11  -4    9.15    1.48
   1 -11  -4    9.86    1.56
  -1  11   4    9.98    1.37
  -1  11   4   10.33    1.26
   0 -11  -4   29.84    1.73
   0 -11  -4   32.44    1.73
   0  11   4   28.83    1.91
   0  11   4   29.37    1.66
   0  11   4   31.09    1.63
  -1 -11  -4    0.80    0.66
  -1 -11  -4    0.41    0.63
   1  11   4    0.43    0.70
   1  11   4    0.53    0.65
   1  11   4   -0.30    0.61
  -2 -11  -4   77.46    2.46
  -2 -11  -4   75.96    2.51
  -2 -11  -4   75.84    2.54
   2  11   4   74.13    2.49
   2  11   4   72.26    2.51
   2  11   4   74.46    2.47
  -3 -11  -4    0.36    0.67
  -3 -11  -4    1.27    0.65
   3  11   4    1.24    0.71
   3  11   4    1.13    0.64
  -4 -11  -4   19.31    1.52
  -4 -11  -4   20.30    1.54
  -4 -11  -4   18.12    0.92
   4  11   4   19.43    1.43
   4  11   4   18.85    1.37
  -5 -11  -4    0.13    0.53
  -5 -11  -4    0.34    0.67
  -5 -11  -4    1.52    0.76
   5  11   4    0.55    0.68
   5  11   4    0.40    0.58
  -6 -11  -4   36.27    2.16
  -6 -11  -4   40.48    2.07
  -6 -11  -4   40.61    1.67
   6  11   4   37.70    1.59
   6  11   4   43.27    1.94
   6  11   4   41.77    1.86
   6  11   4   42.23    1.88
  -7 -11  -4   17.89    1.88
  -7 -11  -4   18.87    1.57
   7  11   4   20.58    1.59
   7  11   4   22.01    1.60
   7  11   4   21.22    1.50
   7  11   4   21.53    1.70
  -8 -11  -4    4.16    1.75
  -8 -11  -4    1.93    1.32
   8  11   4    3.59    0.95
   8  11   4    4.17    1.09
   8  11   4    5.43    1.08
   8  11   4    5.16    0.99
  -9 -11  -4    9.14    1.35
  -9 -11  -4    8.75    1.55
   9  11   4   11.60    1.49
   9  11   4    8.75    1.20
 -10 -11  -4   27.81    2.53
   6 -12  -4   20.42    2.54
  -6  12   4   23.24    2.72
  -6  12   4   26.67    2.61
   5 -12  -4    6.31    1.26
  -5  12   4    5.76    1.11
  -5  12   4    4.96    1.32
  -5  12   4    6.23    0.85
   4 -12  -4   22.67    2.11
  -4  12   4   26.00    1.92
  -4  12   4   26.79    2.34
   3 -12  -4    2.60    1.00
  -3  12   4    1.23    0.77
  -3  12   4    3.34    1.07
   2 -12  -4   20.24    2.14
   2 -12  -4   20.29    1.87
  -2  12   4   22.32    1.68
  -2  12   4   22.78    2.00
  -2  12   4   25.43    2.31
   1 -12  -4    1.29    0.94
   1 -12  -4    1.05    0.75
  -1  12   4    2.62    0.99
  -1  12   4    1.76    0.72
   0 -12  -4    1.92    0.77
   0 -12  -4    2.37    0.96
   0  12   4    1.86    0.88
   0  12   4    1.91    0.93
  -1 -12  -4   20.13    1.97
  -1 -12  -4   23.08    1.74
   1  12   4   21.44    1.68
   1  12   4   22.29    1.80
  -2 -12  -4    7.01    1.11
  -2 -12  -4    7.46    0.99
  -2 -12  -4    9.87    1.44
   2  12   4    6.51    1.02
   2  12   4    7.36    1.28
  -3 -12  -4   33.61    1.94
  -3 -12  -4   33.37    1.94
   3  12   4   34.43    1.88
   3  12   4   35.39    1.89
  -4 -12  -4   -0.13    0.78
  -4 -12  -4    1.99    0.81
   4  12   4    0.16    0.75
   4  12   4    1.74    0.77
  -5 -12  -4   42.21    2.30
  -5 -12  -4   41.35    2.12
  -5 -12  -4   43.85    1.48
   5  12   4   42.19    2.10
   5  12   4   43.53    1.99
  -6 -12  -4    7.64    1.21
  -6 -12  -4    5.25    1.06
   6  12   4    4.02    0.93
   6  12   4    5.17    1.07
   6  12   4    4.67    0.95
  -7 -12  -4   20.58    2.15
  -7 -12  -4   22.88    1.73
   7  12   4   20.60    1.90
   7  12   4   23.43    1.63
   7  12   4   27.32    2.05
   7  12   4   28.15    1.87
  -8 -12  -4   11.15    1.54
   8  12   4   11.20    1.88
   8  12   4   16.37    1.89
   8  12   4   13.34    1.89
   8  12   4   12.08    2.09
  -9 -12  -4   14.91    2.23
   9  12   4   13.81    2.06
   9  12   4   14.04    1.73
   5 -13  -4   34.48    2.79
  -5  13   4   41.23    2.51
  -5  13   4   39.46    3.00
   4 -13  -4   -0.05    1.00
  -4  13   4   -0.07    1.35
  -4  13   4    1.33    0.96
   3 -13  -4   30.45    2.33
  -3  13   4   32.02    2.07
  -3  13   4   30.04    2.49
   2 -13  -4    0.26    0.82
  -2  13   4   -0.13    0.76
  -2  13   4    0.17    1.06
   1 -13  -4    0.80    0.93
  -1  13   4    2.00    1.04
  -1  13   4    2.15    0.81
   0 -13  -4    9.00    1.37
   0 -13  -4    8.50    1.30
   0  13   4   10.73    1.80
   0  13   4    7.82    1.16
   0  13   4   10.74    1.84
  -1 -13  -4   51.20    2.55
  -1 -13  -4   54.79    2.55
   1  13   4   50.23    2.44
   1  13   4   55.14    2.42
   1  13   4   53.21    2.53
  -2 -13  -4   14.90    1.79
  -2 -13  -4   13.50    1.82
  -2 -13  -4   15.13    1.85
   2  13   4   15.76    1.71
   2  13   4   16.94    1.81
  -3 -13  -4   45.07    2.35
  -3 -13  -4   45.55    2.37
   3  13   4   43.64    2.24
   3  13   4   41.00    3.28
  -4 -13  -4    2.04    1.00
   4  13   4    2.95    0.86
   4  13   4    3.07    1.03
  -5 -13  -4   21.20    2.01
   5  13   4   21.82    1.79
   5  13   4   22.43    2.09
  -6 -13  -4    5.77    1.26
  -6 -13  -4    6.65    0.85
   6  13   4    6.19    1.11
   6  13   4    4.32    1.34
   6  13   4    5.63    1.03
  -7 -13  -4    1.85    1.29
  -7 -13  -4    3.32    0.92
   7  13   4    3.33    1.16
   7  13   4    5.17    1.11
   7  13   4    3.57    1.35
   8  13   4    5.49    1.33
   8  13   4    8.29    2.04
   4 -14  -4    6.86    1.47
  -4  14   4    5.29    1.16
  -4  14   4    5.67    1.57
   3 -14  -4    0.82    1.20
  -3  14   4    2.62    1.10
  -3  14   4    0.44    1.17
   2 -14  -4    5.74    1.24
  -2  14   4    7.89    1.25
  -2  14   4    4.38    1.44
   1 -14  -4    0.68    1.00
  -1  14   4    0.39    0.82
  -1  14   4    0.59    1.22
   0 -14  -4   22.34    2.20
   0  14   4   21.20    1.95
   0  14   4   20.80    2.27
  -1 -14  -4    4.63    1.44
  -1 -14  -4    7.94    1.40
   1  14   4    6.71    1.29
  -2 -14  -4   74.79    3.21
  -2 -14  -4   81.50    3.26
   2  14   4   79.26    3.02
  -3 -14  -4    1.79    1.22
   3  14   4    3.42    1.95
   3  14   4    4.90    1.11
  -4 -14  -4   38.03    2.55
   4  14   4   39.77    2.23
   4  14   4   40.35    2.67
  -5 -14  -4   -1.08    1.32
   5  14   4    0.64    1.31
   5  14   4    1.90    0.97
  -6 -14  -4   11.33    1.58
   6  14   4   14.70    2.63
   6  14   4   11.45    1.39
   6  14   4   14.73    2.08
   7  14   4    1.25    1.89
   7  14   4    3.47    1.14
   7  14   4    2.26    1.25
  -3  15   4   -0.33    1.50
   2 -15  -4    7.10    1.54
  -2  15   4    7.56    1.20
  -2  15   4    2.88    1.58
   1 -15  -4    1.72    1.17
  -1  15   4    0.95    1.21
  -1  15   4    1.18    0.99
   0 -15  -4    6.29    1.34
   0  15   4    5.17    1.27
   0  15   4    4.85    1.23
  -1 -15  -4    4.31    1.29
   1  15   4    6.77    1.39
   1  15   4    4.45    1.22
   2  15   4    5.87    1.24
   3  15   4   19.01    2.06
  -4 -15  -4   22.69    2.79
   4  15   4   27.50    2.21
  -5 -15  -4    1.99    1.56
   5  15   4    3.33    1.16
   6  15   4   11.53    1.65
   6  15   4   10.31    1.41
   0 -16  -4   -0.54    1.35
   0  16   4    2.36    1.26
   0  16   4   -2.08    1.28
   1  16   4    7.92    1.36
   1  16   4    7.05    1.41
   2  16   4   -0.70    1.10
   3  16   4   40.64    2.56
   4  16   4   14.45    2.24
   3  12  -5    7.40    1.53
   2  12  -5    0.50    1.21
   1  12  -5   10.24    1.39
   0  12  -5    1.67    1.08
   0  12  -5    0.83    1.03
   0  12  -5    3.03    1.04
  -1  12  -5   -0.82    2.04
  -1  12  -5   -0.74    1.03
  -2  12  -5    7.68    1.37
  -2  12  -5    9.86    1.43
  -3  12  -5    2.98    1.28
  -3  12  -5    2.21    1.30
  -4  12  -5   20.14    2.41
   4  11  -5   17.86    2.38
  -4 -11   5   16.84    1.80
   3  11  -5    1.72    1.09
  -3 -11   5    2.80    0.90
   2  11  -5    0.78    1.06
   1  11  -5   20.01    2.02
   0  11  -5    2.86    0.86
   0  11  -5    3.42    1.10
   0  11  -5    1.76    0.95
  -1  11  -5   -0.86    0.86
  -1  11  -5    0.85    0.92
  -2  11  -5    7.48    1.23
  -2  11  -5   11.76    1.81
  -3  11  -5    3.75    1.16
  -3  11  -5    5.30    1.02
  -4  11  -5   20.26    2.09
  -4  11  -5   20.65    2.27
  -5  11  -5    0.18    1.29
  -5  11  -5    1.23    1.07
   6  10  -5   12.42    1.72
  -6 -10   5   17.68    2.34
   5  10  -5   14.75    2.17
  -5 -10   5   14.26    2.05
   4  10  -5    8.05    1.10
   4  10  -5    6.23    1.30
  -4 -10   5    8.88    1.14
   3  10  -5   -0.36    0.85
   3  10  -5   -0.32    0.79
  -3 -10   5    0.68    0.71
   2  10  -5    2.83    1.07
   2  10  -5    3.92    0.78
  -2 -10   5    3.85    0.69
   1  10  -5    4.74    0.94
   1  10  -5    5.70    1.06
   1  10  -5    5.31    0.69
   0  10  -5   11.06    1.36
   0  10  -5   10.50    1.66
   0  10  -5   13.95    1.74
  -1  10  -5   34.98    1.82
  -1  10  -5   36.58    2.06
  -2  10  -5    6.47    1.02
  -2  10  -5    8.64    1.16
  -3  10  -5   47.01    2.41
  -3  10  -5   50.33    2.37
  -4  10  -5   42.90    2.41
  -4  10  -5   43.49    2.40
  -5  10  -5   15.34    1.92
  -5  10  -5   11.76    1.92
  -6  10  -5   36.40    2.53
  -6  10  -5   32.29    2.41
  -7  10  -5   10.74    1.81
   6   9  -5   -1.45    1.12
   6   9  -5    0.52    1.30
  -6  -9   5   -0.32    1.08
   5   9  -5   18.20    1.99
   5   9  -5   15.00    2.05
  -5  -9   5   14.66    2.23
   4   9  -5    2.77    1.02
   4   9  -5    3.04    1.06
  -4  -9   5    1.75    0.90
   3   9  -5    0.33    0.72
   3   9  -5   -0.05    0.81
  -3  -9   5   -0.19    0.71
  -3  -9   5   -1.68    1.26
   2   9  -5    9.84    1.16
   2   9  -5   10.42    1.58
   2   9  -5    9.81    2.44
  -2  -9   5   12.46    1.88
  -2  -9   5    9.75    1.15
   1   9  -5   45.32    2.16
   1   9  -5   42.16    2.50
   1   9  -5   41.67    1.48
   1   9  -5   42.80    2.14
  -1  -9   5   42.97    2.39
   0   9  -5   -0.11    0.67
   0   9  -5    0.27    0.96
   0   9  -5   -0.49    0.64
   0   9  -5   -1.04    0.57
   0   9  -5    0.93    0.47
  -1   9  -5   14.76    1.30
  -1   9  -5   14.79    1.48
  -1   9  -5   15.80    1.87
  -2   9  -5   12.75    1.40
  -2   9  -5   11.22    1.47
  -2   9  -5   11.08    1.87
  -3   9  -5   70.18    2.64
  -3   9  -5   72.34    2.58
  -3   9  -5   74.15    3.00
  -4   9  -5    1.81    0.59
  -4   9  -5    2.06    0.83
  -4   9  -5    0.48    0.48
  -4   9  -5    2.33    1.45
  -4   9  -5    1.84    0.83
  -5   9  -5   55.40    2.60
  -5   9  -5   52.15    1.86
  -5   9  -5   53.67    1.74
  -5   9  -5   52.73    2.49
  -6   9  -5   -0.04    0.98
  -6   9  -5    1.77    0.69
  -6   9  -5   -0.53    0.87
  -6   9  -5    1.24    0.85
  -7   9  -5   12.92    1.96
  -7   9  -5   14.43    2.13
  -7   9  -5   11.61    1.58
   7  -9   5   13.00    1.73
  -8   9  -5   -1.61    1.01
   8  -9   5    1.92    1.48
   7   8  -5    0.96    1.25
  -7  -8   5    2.29    1.16
   6   8  -5    8.94    1.28
   6   8  -5    9.62    1.42
  -6  -8   5    9.38    1.28
   5   8  -5   31.72    2.07
   5   8  -5   35.45    2.23
   4   8  -5   10.64    1.47
   4   8  -5   11.66    1.65
  -4  -8   5   14.82    1.92
  -4  -8   5   10.91    1.49
   3   8  -5   56.53    2.79
   3   8  -5   57.53    2.01
   3   8  -5   56.02    2.47
  -3  -8   5   56.59    2.06
  -3  -8   5   60.92    2.50
   2   8  -5   10.69    1.36
   2   8  -5    8.46    1.21
   2   8  -5    9.00    1.06
  -2  -8   5    8.44    1.04
  -2  -8   5   10.98    1.49
   1   8  -5   19.71    1.95
   1   8  -5   19.73    1.12
   1   8  -5   20.11    1.85
   1   8  -5   17.85    1.47
  -1  -8   5   19.56    1.13
  -1  -8   5   18.14    1.64
   0   8  -5   11.91    1.58
   0   8  -5   11.88    1.27
   0   8  -5   10.09    0.89
   0   8  -5   11.28    1.02
   0   8  -5   11.44    1.32
  -1   8  -5   10.27    0.83
  -1   8  -5    9.93    1.46
  -1   8  -5   10.63    0.75
  -1   8  -5   12.03    1.10
  -1   8  -5   11.01    1.53
  -2   8  -5   13.80    1.19
  -2   8  -5   12.37    0.92
  -2   8  -5    8.79    1.48
  -2   8  -5   11.34    0.77
  -2   8  -5   13.94    1.62
  -3   8  -5   16.38    1.42
  -3   8  -5   16.38    1.03
  -3   8  -5   16.18    1.63
  -3   8  -5   15.67    1.38
  -3   8  -5   15.50    0.88
  -4   8  -5   39.95    1.37
  -4   8  -5   39.45    1.47
  -4   8  -5   39.09    1.97
  -4   8  -5   39.88    2.20
  -4   8  -5   39.21    2.48
  -5   8  -5   36.39    1.43
  -5   8  -5   40.93    2.21
  -5   8  -5   37.93    2.21
  -5   8  -5   36.37    2.02
  -6   8  -5    4.37    1.05
  -6   8  -5    6.07    1.37
  -6   8  -5    6.71    0.93
  -6   8  -5    4.22    0.93
  -6   8  -5    5.09    0.79
   6  -8   5    4.38    1.11
  -7   8  -5   12.66    1.89
  -7   8  -5   12.24    1.50
  -7   8  -5    9.70    1.39
   7  -8   5   11.24    1.57
  -8   8  -5    6.96    1.37
  -8   8  -5    9.57    1.19
   8  -8   5    7.41    1.42
   8   7  -5   -2.36    1.15
  -8  -7   5   -2.24    1.20
   7   7  -5    1.48    1.11
  -7  -7   5    1.98    1.16
   6   7  -5    5.34    1.14
   6   7  -5    7.16    1.26
  -6  -7   5    5.02    1.12
   5   7  -5    0.85    0.85
   5   7  -5    0.53    0.87
  -5  -7   5    0.11    0.76
  -5  -7   5   -0.51    0.98
   4   7  -5   55.97    2.12
   4   7  -5   57.35    2.37
  -4  -7   5   60.25    2.17
  -4  -7   5   54.73    2.39
   3   7  -5    8.61    1.18
   3   7  -5   10.60    1.39
  -3  -7   5    8.01    1.37
  -3  -7   5    7.38    1.15
   2   7  -5   83.10    2.87
   2   7  -5   72.22    3.55
   2   7  -5   82.18    2.27
  -2  -7   5   84.45    2.64
  -2  -7   5   84.58    2.31
   1   7  -5    4.06    0.80
   1   7  -5    4.66    1.00
   1   7  -5    3.39    0.75
   1   7  -5    4.07    0.57
  -1  -7   5    3.38    0.59
  -1  -7   5    3.80    0.75
   0   7  -5  342.18    7.30
   0   7  -5  338.20    6.69
   0   7  -5  343.10    7.44
   0   7  -5  340.28    6.68
   0   7  -5  345.61    7.20
  -1   7  -5    2.41    0.74
  -1   7  -5    1.68    0.49
  -1   7  -5    2.02    0.63
  -1   7  -5    2.08    0.49
  -2   7  -5   70.28    1.80
  -2   7  -5   74.20    2.18
  -2   7  -5   71.51    2.34
  -2   7  -5   71.10    1.89
  -2   7  -5   72.75    2.56
  -3   7  -5   12.21    1.34
  -3   7  -5   10.81    1.20
  -3   7  -5   11.08    0.80
  -3   7  -5   11.57    0.90
  -3   7  -5   10.38    1.18
  -4   7  -5  106.10    3.07
  -4   7  -5   95.85    3.60
  -4   7  -5  105.47    2.57
  -4   7  -5  106.41    2.52
  -4   7  -5  106.08    3.19
  -5   7  -5    4.91    0.89
  -5   7  -5    5.11    1.20
  -5   7  -5    5.03    0.91
  -5   7  -5    3.90    0.77
  -5   7  -5    3.65    0.63
  -6   7  -5   28.73    1.98
  -6   7  -5   28.48    1.98
  -6   7  -5   28.18    1.46
   6  -7   5   27.28    1.92
  -7   7  -5    0.97    0.87
  -7   7  -5    1.67    0.75
  -7   7  -5    1.72    0.95
   7  -7   5    0.48    0.91
  -8   7  -5    1.23    0.99
  -8   7  -5    2.64    0.92
   8  -7   5    1.01    1.10
  -9   7  -5    2.78    1.30
   9  -7   5    4.27    1.44
   8   6  -5   13.75    2.28
   7   6  -5    0.33    1.09
  -7  -6   5    1.33    0.99
   6   6  -5   13.62    1.81
   6   6  -5   13.28    1.76
  -6  -6   5   10.38    1.37
  -6  -6   5   11.92    1.64
   5   6  -5    9.10    1.51
   5   6  -5   10.43    1.51
  -5  -6   5   11.44    1.57
  -5  -6   5    8.68    1.07
   4   6  -5   27.76    1.60
   4   6  -5   28.58    1.78
  -4  -6   5   25.90    1.63
  -4  -6   5   26.28    1.51
   3   6  -5    7.46    0.99
   3   6  -5    6.76    0.82
  -3  -6   5    6.22    0.82
  -3  -6   5    6.77    1.16
   2   6  -5   17.83    1.14
   2   6  -5   17.41    1.36
  -2  -6   5   19.00    1.32
  -2  -6   5   18.28    1.09
   1   6  -5    5.60    0.99
   1   6  -5    8.75    1.19
   1   6  -5    7.93    1.01
   1   6  -5    9.70    0.86
  -1  -6   5    7.18    0.81
  -1  -6   5    8.13    1.03
   0   6  -5    0.51    0.35
   0   6  -5    1.66    0.42
   0   6  -5    0.63    0.55
   0   6  -5    1.47    0.54
   0   6  -5    1.24    0.58
   0  -6   5    1.23    0.39
  -1   6  -5   12.05    0.88
  -1   6  -5   14.10    1.06
  -1   6  -5   12.29    0.84
  -1   6  -5   11.64    1.20
  -2   6  -5    0.10    0.44
  -2   6  -5    0.57    0.38
  -2   6  -5   -0.05    0.32
  -2   6  -5    0.06    0.48
  -2   6  -5   -0.67    0.48
  -3   6  -5   46.91    1.41
  -3   6  -5   47.48    1.47
  -3   6  -5   47.89    1.74
  -3   6  -5   45.39    1.75
  -3   6  -5   47.47    1.93
  -4   6  -5   11.62    0.96
  -4   6  -5   11.80    1.22
  -4   6  -5   10.76    1.23
  -4   6  -5   11.91    1.16
  -4   6  -5   11.01    0.84
  -5   6  -5   88.22    2.76
  -5   6  -5   86.51    2.30
  -5   6  -5   87.83    2.80
   5  -6   5   88.08    2.82
  -6   6  -5   23.41    1.31
  -6   6  -5   24.90    1.75
  -6   6  -5   22.94    1.65
   6  -6   5   19.10    1.66
  -7   6  -5   17.75    1.45
  -7   6  -5   21.34    1.71
  -7   6  -5   19.52    1.85
   7  -6   5   15.38    2.05
  -8   6  -5    5.28    0.98
  -8   6  -5    7.48    1.29
   8  -6   5    5.26    1.18
  -9   6  -5   17.64    2.16
  -9   6  -5   19.15    1.99
  -9   6  -5   19.92    2.44
   9  -6   5   18.67    2.27
 -10   6  -5    8.15    1.34
 -10   6  -5    9.52    2.45
  10  -6   5    7.12    1.60
   9   5  -5    8.06    1.67
   8   5  -5    7.70    1.37
   7   5  -5   12.97    1.91
  -7  -5   5   18.49    1.86
   6   5  -5    0.22    0.82
   6   5  -5   -0.61    0.95
  -6  -5   5   -0.02    0.74
  -6  -5   5    0.29    0.81
   5   5  -5   63.26    2.47
   5   5  -5   63.74    2.35
  -5  -5   5   64.52    2.34
  -5  -5   5   61.99    2.30
   4   5  -5    6.04    0.86
   4   5  -5    5.62    1.08
  -4  -5   5    5.07    0.81
  -4  -5   5    5.55    0.75
   3   5  -5  237.55    5.07
   3   5  -5  229.60    5.31
  -3  -5   5  233.46    5.08
  -3  -5   5  234.59    5.14
   2   5  -5    4.54    0.62
   2   5  -5    3.25    0.62
  -2  -5   5    3.95    0.60
  -2  -5   5    4.45    0.67
   1   5  -5  103.42    2.68
   1   5  -5  104.78    2.50
   1   5  -5  102.06    2.78
  -1  -5   5  101.08    2.67
  -1  -5   5  100.83    2.51
   0   5  -5    5.99    0.56
   0   5  -5    6.76    0.96
   0   5  -5    5.71    0.70
   0   5  -5    6.35    0.58
   0   5  -5    5.10    0.79
   0   5  -5    6.29    0.90
   0  -5   5    5.95    0.88
   0  -5   5    6.97    0.70
  -1   5  -5  136.70    2.97
  -1   5  -5  131.71    3.19
  -1   5  -5  135.46    3.41
  -1   5  -5  130.59    2.94
  -2   5  -5    0.65    0.37
  -2   5  -5    0.05    0.32
  -2   5  -5    0.96    0.53
  -2   5  -5   -0.01    0.40
  -2   5  -5    0.88    0.31
  -3   5  -5    3.63    0.53
  -3   5  -5    3.74    0.61
  -3   5  -5    4.88    0.67
  -3   5  -5    4.85    0.61
  -3   5  -5    4.38    0.69
  -4   5  -5   17.77    0.94
  -4   5  -5   16.73    1.23
  -4   5  -5   17.95    0.97
  -4   5  -5   15.21    1.17
  -5   5  -5   25.20    1.43
  -5   5  -5   24.21    1.52
  -5   5  -5   25.68    1.18
   5  -5   5   26.44    1.50
  -6   5  -5    2.72    0.70
  -6   5  -5    2.17    0.60
  -6   5  -5    2.88    1.39
   6  -5   5    2.01    0.68
  -7   5  -5   11.05    1.36
  -7   5  -5   11.91    1.22
   7  -5   5   10.31    1.46
  -8   5  -5    1.59    0.82
  -8   5  -5   -0.06    0.86
  -8   5  -5    1.67    0.80
   8  -5   5    0.04    0.96
  -9   5  -5    7.71    1.15
  -9   5  -5    8.69    1.39
  -9   5  -5   12.01    1.99
   9  -5   5    7.49    1.30
   9  -5   5    7.62    1.42
 -10   5  -5    5.74    1.43
 -10   5  -5    4.68    1.25
 -10   5  -5    2.86    1.72
  10  -5   5    4.00    1.39
   9   4  -5    7.03    1.55
  -9  -4   5    9.70    1.63
   8   4  -5    4.93    1.21
  -8  -4   5    7.73    1.24
   7   4  -5    9.25    1.33
  -7  -4   5    7.76    1.28
  -7  -4   5    8.14    1.16
  -7  -4   5    8.34    1.19
   6   4  -5   18.41    1.74
   6   4  -5   22.70    1.78
  -6  -4   5   19.96    1.78
  -6  -4   5   19.48    1.62
  -6  -4   5   21.19    1.66
   5   4  -5    6.93    0.94
   5   4  -5    7.96    1.33
  -5  -4   5    5.78    0.93
  -5  -4   5    5.60    0.81
  -5  -4   5    5.56    0.85
   4   4  -5   81.57    2.44
   4   4  -5   83.02    2.60
  -4  -4   5   83.74    2.43
  -4  -4   5   80.89    2.47
   3   4  -5    6.08    0.74
   3   4  -5    7.32    1.01
  -3  -4   5    6.53    0.91
  -3  -4   5    6.12    0.78
   2   4  -5   44.53    1.53
   2   4  -5   45.60    1.71
  -2  -4   5   46.14    1.57
  -2  -4   5   44.02    1.56
   1   4  -5   28.92    1.20
   1   4  -5   29.93    1.17
   1   4  -5   29.26    1.31
  -1  -4   5   29.22    1.17
  -1  -4   5   31.35    1.21
   0   4  -5   96.45    2.40
   0   4  -5   91.90    2.09
   0   4  -5   95.10    2.29
   0   4  -5   94.24    2.52
   0  -4   5   99.90    2.43
   0  -4   5   95.99    2.32
  -1   4  -5   22.50    0.91
  -1   4  -5   23.56    1.12
  -1   4  -5   23.56    0.93
  -1   4  -5   23.75    1.05
  -1   4  -5   23.76    0.96
  -1   4  -5   22.45    1.20
  -2   4  -5   52.57    1.56
  -2   4  -5   50.72    1.60
  -2   4  -5   51.22    1.47
  -2   4  -5   50.94    1.74
  -3   4  -5    2.17    0.46
  -3   4  -5    2.16    0.37
  -3   4  -5    2.02    0.41
  -3   4  -5    1.56    0.65
  -3   4  -5    2.04    0.40
  -4   4  -5   18.45    1.13
  -4   4  -5   17.64    1.20
  -4   4  -5   18.21    0.91
  -5   4  -5    9.01    1.01
  -5   4  -5    9.19    0.82
  -5   4  -5    8.89    1.06
   5  -4   5    8.52    0.99
  -6   4  -5   80.14    2.60
  -6   4  -5   78.61    2.34
  -6   4  -5   75.62    2.21
   6  -4   5   76.10    2.38
  -7   4  -5   20.94    1.38
  -7   4  -5   22.68    1.43
  -7   4  -5   22.56    1.77
  -7   4  -5   23.16    1.63
   7  -4   5   20.95    1.43
   7  -4   5   21.87    1.92
  -8   4  -5   40.97    2.23
  -8   4  -5   34.63    2.57
  -8   4  -5   43.77    1.99
  -8   4  -5   41.16    2.45
   8  -4   5   40.85    2.02
   8  -4   5   40.60    2.04
  -9   4  -5    0.27    0.86
  -9   4  -5    0.04    1.29
  -9   4  -5   -0.55    0.83
   9  -4   5    1.61    1.15
   9  -4   5    0.15    0.94
 -10   4  -5    6.47    1.41
 -10   4  -5    5.52    1.13
 -10   4  -5    6.70    1.17
 -11   4  -5    0.95    1.32
   9   3  -5    0.37    1.27
  -9  -3   5    1.55    1.25
   8   3  -5   51.53    2.73
  -8  -3   5   57.26    2.66
   7   3  -5    3.43    1.12
   7   3  -5    5.80    1.29
  -7  -3   5    5.75    1.06
  -7  -3   5    4.58    1.05
   6   3  -5    3.86    0.96
   6   3  -5    4.55    1.16
  -6  -3   5    4.78    0.86
  -6  -3   5    5.70    0.91
   5   3  -5   19.71    1.54
   5   3  -5   18.19    1.42
  -5  -3   5   19.08    1.42
  -5  -3   5   20.51    1.41
   4   3  -5   65.39    2.23
   4   3  -5   66.81    2.17
  -4  -3   5   68.95    2.07
  -4  -3   5   67.21    2.22
  -4  -3   5   66.17    2.15
   3   3  -5   55.06    1.83
   3   3  -5   54.19    1.89
  -3  -3   5   56.57    1.90
  -3  -3   5   54.49    1.82
  -3  -3   5   55.60    1.71
   2   3  -5  146.96    3.53
   2   3  -5  151.49    3.42
  -2  -3   5  143.66    3.43
  -2  -3   5  151.38    3.56
  -2  -3   5  154.76    3.35
   1   3  -5    3.19    0.50
   1   3  -5    4.06    0.50
  -1  -3   5    3.26    0.48
  -1  -3   5    3.18    0.42
   0   3  -5   42.17    1.46
   0   3  -5   44.79    1.37
   0   3  -5   44.51    1.34
   0  -3   5   42.84    1.34
   0  -3   5   43.78    1.34
  -1   3  -5    1.66    0.32
  -1   3  -5    1.48    0.34
  -1   3  -5    1.37    0.33
  -1   3  -5    1.56    0.32
  -1   3  -5    1.62    0.37
  -1   3  -5    1.33    0.42
   1  -3   5    1.52    0.34
  -2   3  -5    0.27    0.30
  -2   3  -5    1.15    0.33
  -2   3  -5    0.34    0.35
  -2   3  -5    0.41    0.28
  -2   3  -5    0.00    0.31
  -3   3  -5    8.18    0.77
  -3   3  -5    8.17    0.75
  -3   3  -5    9.83    0.67
  -3   3  -5    8.84    0.64
  -3   3  -5    8.95    0.76
  -4   3  -5    6.22    0.70
  -4   3  -5    5.75    0.63
  -4   3  -5    5.74    0.80
  -5   3  -5   22.77    1.07
  -5   3  -5   24.06    1.33
  -5   3  -5   21.97    1.11
  -5   3  -5   24.08    1.27
   5  -3   5   23.27    1.18
  -6   3  -5   66.77    2.02
  -6   3  -5   67.02    2.01
  -6   3  -5   69.05    2.38
  -6   3  -5   67.68    2.30
   6  -3   5   67.34    2.06
   6  -3   5   70.43    2.08
  -7   3  -5    2.46    0.69
  -7   3  -5    2.18    0.64
  -7   3  -5    1.86    0.75
  -7   3  -5    1.52    0.87
   7  -3   5    2.22    0.64
   7  -3   5    1.64    0.64
  -8   3  -5   37.11    1.96
  -8   3  -5   32.81    1.71
  -8   3  -5   29.96    2.08
   8  -3   5   32.27    1.65
   8  -3   5   28.09    1.79
  -9   3  -5    5.72    1.12
  -9   3  -5    4.82    0.97
  -9   3  -5    3.92    0.97
   9  -3   5    4.06    1.06
   9  -3   5    5.41    0.92
 -10   3  -5   11.93    1.96
 -10   3  -5   12.89    1.89
 -10   3  -5   18.77    2.06
  10  -3   5   14.80    2.23
 -11   3  -5   13.47    2.37
 -11   3  -5   10.21    1.40
  11  -3   5   12.19    2.16
   9   2  -5   21.24    2.52
  -9  -2   5   26.12    2.30
   8   2  -5    9.71    1.49
  -8  -2   5    8.91    1.33
   7   2  -5   39.67    2.28
   7   2  -5   38.70    2.22
  -7  -2   5   39.39    2.09
  -7  -2   5   39.62    2.18
   6   2  -5    1.57    0.83
   6   2  -5    0.85    0.77
  -6  -2   5    0.08    0.72
  -6  -2   5    0.56    0.67
   5   2  -5   14.31    1.37
   5   2  -5   14.02    1.39
  -5  -2   5   12.33    1.23
  -5  -2   5   13.50    1.26
   4   2  -5   16.41    1.23
   4   2  -5   17.59    1.27
  -4  -2   5   18.80    1.20
  -4  -2   5   17.97    1.20
   3   2  -5   91.99    2.55
   3   2  -5   92.21    2.54
  -3  -2   5   91.24    2.51
  -3  -2   5   96.03    2.33
  -3  -2   5   91.43    2.48
   2   2  -5   58.79    1.83
   2   2  -5   59.68    1.77
  -2  -2   5   57.68    1.73
  -2  -2   5   59.94    1.62
  -2  -2   5   56.98    1.85
   1   2  -5   11.91    0.84
   1   2  -5   11.52    0.79
  -1  -2   5   11.38    0.77
  -1  -2   5   10.85    0.67
  -1  -2   5   11.04    0.84
   0   2  -5  105.60    2.46
   0   2  -5  107.09    2.36
   0   2  -5  103.87    2.54
   0  -2   5  107.69    2.37
   0  -2   5  105.49    2.46
  -1   2  -5  115.60    2.73
  -1   2  -5  118.68    2.56
  -1   2  -5  119.51    2.66
  -1   2  -5  119.78    2.59
   1  -2   5  120.64    2.67
  -2   2  -5   11.76    0.67
  -2   2  -5   12.05    0.77
  -2   2  -5   11.50    0.67
  -2   2  -5   12.15    0.72
  -3   2  -5   52.11    1.44
  -3   2  -5   51.11    1.51
  -3   2  -5   51.10    1.58
  -4   2  -5    1.63    0.36
  -4   2  -5    1.74    0.36
  -4   2  -5    2.25    0.49
  -4   2  -5    1.59    0.46
  -5   2  -5   95.34    2.33
  -5   2  -5   95.96    2.62
  -5   2  -5   97.78    2.68
  -5   2  -5   97.33    2.41
   5  -2   5   94.54    2.38
  -6   2  -5    0.77    0.62
  -6   2  -5    1.12    0.43
  -6   2  -5    1.20    0.43
  -6   2  -5    0.33    0.48
   6  -2   5    0.83    0.44
   6  -2   5    0.29    0.45
  -7   2  -5  117.70    2.91
  -7   2  -5  116.25    3.35
  -7   2  -5  117.22    3.05
  -7   2  -5  122.55    3.40
   7  -2   5  120.35    3.08
   7  -2   5  115.24    2.90
  -8   2  -5    4.64    1.05
  -8   2  -5    6.20    0.84
  -8   2  -5    4.40    0.88
  -8   2  -5    5.36    0.82
   8  -2   5    4.50    0.88
   8  -2   5    7.40    1.08
  -9   2  -5   17.19    1.62
  -9   2  -5   23.17    1.80
  -9   2  -5   22.54    3.33
  -9   2  -5   21.80    1.68
   9  -2   5   24.08    1.92
   9  -2   5   23.18    1.48
 -10   2  -5    1.52    0.93
 -10   2  -5   -0.25    0.89
  10  -2   5    0.38    0.81
 -11   2  -5   15.77    2.23
 -11   2  -5   12.46    1.58
  11  -2   5   13.36    1.98
   9   1  -5   31.26    2.68
  -9  -1   5   34.08    2.40
   8   1  -5    4.85    1.16
   7   1  -5   21.87    2.00
   7   1  -5   23.77    2.02
  -7  -1   5   24.87    1.78
  -7  -1   5   23.13    1.87
   6   1  -5   39.45    2.03
   6   1  -5   41.48    2.03
  -6  -1   5   36.95    1.89
  -6  -1   5   39.47    2.02
   5   1  -5   43.21    1.86
   5   1  -5   43.23    1.94
  -5  -1   5   42.11    1.79
  -5  -1   5   41.13    1.80
   4   1  -5    1.70    0.61
   4   1  -5    0.63    0.53
  -4  -1   5    0.93    0.50
  -4  -1   5    1.02    0.52
   3   1  -5   42.81    1.59
  -3  -1   5   40.35    1.53
  -3  -1   5   40.47    1.49
   2   1  -5   17.70    0.99
   2   1  -5   17.48    0.98
  -2  -1   5   17.65    0.80
  -2  -1   5   16.79    0.92
  -2  -1   5   17.42    0.97
   1   1  -5  242.32    5.13
   1   1  -5  257.87    5.12
  -1  -1   5  244.65    5.08
  -1  -1   5  246.15    5.12
  -1  -1   5  260.23    4.87
   0   1  -5   47.11    1.38
   0   1  -5   45.57    1.15
   0   1  -5   46.69    1.43
   0   1  -5   48.65    1.21
   0  -1   5   48.37    1.40
   0  -1   5   47.79    1.21
   0  -1   5   44.23    1.15
   0  -1   5   47.07    1.41
  -1   1  -5   13.14    0.60
  -1   1  -5   13.17    0.72
  -1   1  -5   11.80    0.64
  -1   1  -5   13.99    0.72
   1  -1   5   13.91    0.73
  -2   1  -5   29.74    1.00
  -2   1  -5   28.87    1.01
  -2   1  -5   27.67    0.97
  -3   1  -5    5.93    0.55
  -3   1  -5    5.30    0.64
  -3   1  -5    5.50    0.54
  -4   1  -5    1.06    0.27
  -4   1  -5    0.81    0.33
  -4   1  -5    0.05    0.34
  -5   1  -5   92.69    2.53
  -5   1  -5   90.47    2.12
  -5   1  -5   90.62    2.29
   5  -1   5   92.71    2.31
   5  -1   5   86.52    2.14
  -6   1  -5   60.07    1.83
  -6   1  -5   58.53    1.97
  -6   1  -5   61.25    2.07
  -6   1  -5   59.83    1.63
   6  -1   5   57.83    1.63
   6  -1   5   59.04    1.86
  -7   1  -5   77.09    2.46
  -7   1  -5   75.35    2.49
  -7   1  -5   70.53    2.01
  -7   1  -5   71.53    2.23
   7  -1   5   72.64    1.98
   7  -1   5   74.57    2.26
  -8   1  -5   57.10    1.87
  -8   1  -5   56.83    2.08
  -8   1  -5   56.68    2.39
  -8   1  -5   53.62    3.06
   8  -1   5   57.96    2.13
   8  -1   5   57.54    1.81
  -9   1  -5   43.22    2.01
  -9   1  -5   42.91    1.74
  -9   1  -5   44.06    2.14
  -9   1  -5   41.03    2.47
   9  -1   5   42.17    1.67
   9  -1   5   40.77    2.14
 -10   1  -5    7.29    1.09
 -10   1  -5    7.10    1.14
 -10   1  -5    7.11    1.15
  10  -1   5    5.93    0.87
 -11   1  -5   11.18    1.42
 -11   1  -5   15.31    2.15
   9   0  -5   19.55    2.36
  -9   0   5   15.98    2.03
  -9   0   5   16.42    1.82
   8   0  -5   27.68    2.32
  -8   0   5   27.32    1.68
  -8   0   5   30.39    1.82
  -8   0   5   32.02    2.70
  -8   0   5   26.66    2.01
   7   0  -5   26.55    2.05
   7   0  -5   32.26    2.08
  -7   0   5   26.82    1.45
  -7   0   5   29.54    1.94
  -7   0   5   26.48    1.76
   6   0  -5    0.22    0.79
   6   0  -5   -0.22    0.69
  -6   0   5   -0.28    0.57
  -6   0   5   -1.16    1.08
  -6   0   5   -0.10    0.47
   5   0  -5   69.86    2.31
   5   0  -5   69.20    2.43
  -5   0   5   68.99    1.84
  -5   0   5   67.41    2.25
  -5   0   5   72.09    2.29
   4   0  -5   15.87    1.18
   4   0  -5   14.07    0.72
   4   0  -5   15.78    1.24
  -4   0   5   14.61    1.06
  -4   0   5   15.15    1.09
   3   0  -5    5.10    0.87
   3   0  -5    3.10    0.92
  -3   0   5    3.64    0.53
   2   0  -5   93.11    2.41
   2   0  -5   96.67    2.39
  -2   0   5   91.96    2.35
   1   0  -5   83.53    2.11
   1   0  -5   83.42    2.08
   1   0  -5   81.82    1.80
  -1   0   5   81.85    2.08
  -1   0   5   79.61    1.77
  -1   0   5   85.74    1.79
  -1   0   5   81.41    2.07
   0   0  -5   68.64    1.77
   0   0  -5   69.27    1.77
   0   0  -5   67.74    1.58
   0   0   5   69.69    1.79
   0   0   5   69.10    1.58
   0   0   5   70.62    1.76
   0   0   5   69.04    1.49
  -1   0  -5    0.51    0.26
  -1   0  -5    0.68    0.18
  -1   0  -5    0.83    0.29
  -1   0  -5    0.91    0.28
   1   0   5    0.65    0.28
   1   0   5    0.87    0.28
   1   0   5    0.64    0.27
  -2   0  -5  160.37    3.37
  -2   0  -5  158.23    3.25
  -2   0  -5  166.47    3.40
   2   0   5  157.44    3.38
  -3   0  -5    7.92    0.52
  -3   0  -5    7.05    0.64
  -3   0  -5    7.59    0.59
  -3   0  -5    6.94    0.50
  -4   0  -5  294.96    5.80
  -4   0  -5  309.32    6.22
  -4   0  -5  315.54    6.07
  -5   0  -5   20.80    0.97
  -5   0  -5   21.23    1.22
   5   0   5   21.07    1.00
  -6   0  -5  155.25    3.73
  -6   0  -5  147.91    3.14
  -6   0  -5  151.46    3.49
   6   0   5  149.89    3.49
  -7   0  -5    3.38    0.61
  -7   0  -5    2.48    0.61
  -7   0  -5    2.05    0.67
   7   0   5    3.47    0.66
  -8   0  -5  103.94    2.91
  -8   0  -5  102.23    2.47
  -8   0  -5  105.90    3.09
  -8   0  -5  101.94    3.19
   8   0   5  100.45    2.92
   8   0   5  100.49    2.45
  -9   0  -5   43.72    2.35
  -9   0  -5   45.49    2.02
  -9   0  -5   45.15    2.09
   9   0   5   42.17    2.10
 -10   0  -5    7.38    1.21
 -10   0  -5    5.37    0.97
 -11   0  -5    0.48    0.97
 -11   0  -5   -0.18    0.97
 -12   0  -5    8.03    1.54
 -12   0  -5    9.52    1.60
   9  -1  -5    5.76    1.28
  -9   1   5    4.56    1.19
  -9   1   5    6.76    1.31
  -9   1   5    5.88    1.27
   8  -1  -5   27.42    2.25
  -8   1   5   30.73    1.85
  -8   1   5   30.68    2.05
  -8   1   5   32.68    3.07
   7  -1  -5   -0.03    0.90
   7  -1  -5    0.27    0.87
  -7   1   5   -0.10    0.87
  -7   1   5    0.85    0.71
  -7   1   5    0.41    0.64
   6  -1  -5   28.07    1.91
   6  -1  -5   29.06    1.78
  -6   1   5   28.57    1.39
  -6   1   5   28.95    1.70
   5  -1  -5    6.40    0.78
   5  -1  -5    5.90    0.94
   5  -1  -5    5.97    0.86
  -5   1   5    6.26    1.08
  -5   1   5    6.62    0.88
  -5   1   5    6.48    1.06
   4  -1  -5   66.27    2.05
   4  -1  -5   64.28    1.69
   4  -1  -5   61.09    2.10
  -4   1   5   62.16    1.71
  -4   1   5   61.21    1.97
  -4   1   5   63.02    2.01
   3  -1  -5   -0.23    0.29
   3  -1  -5   -0.32    0.35
   3  -1  -5    0.42    0.42
  -3   1   5    0.28    0.38
  -3   1   5    0.31    0.42
  -3   1   5    0.35    0.33
   2  -1  -5   41.22    1.15
   2  -1  -5   40.73    1.46
   2  -1  -5   42.14    1.40
  -2   1   5   40.62    1.19
  -2   1   5   39.79    1.37
  -2   1   5   39.81    1.37
   1  -1  -5   20.00    0.93
   1  -1  -5   22.84    0.86
   1  -1  -5   22.61    1.04
  -1   1   5   19.79    0.79
  -1   1   5   20.20    0.92
  -1   1   5   20.92    0.94
   0  -1  -5  380.64    7.01
   0  -1  -5  365.37    7.12
   0  -1  -5  373.18    7.17
   0   1   5  368.54    7.11
   0   1   5  367.45    7.17
   0   1   5  377.19    7.01
  -1  -1  -5    8.96    0.68
  -1  -1  -5    6.23    0.53
  -1  -1  -5    7.26    0.57
   1   1   5    7.24    0.54
   1   1   5    7.55    0.57
   1   1   5    8.14    0.54
  -2  -1  -5  157.89    3.33
  -2  -1  -5  157.66    3.14
  -2  -1  -5  160.01    3.34
   2   1   5  160.32    3.15
   2   1   5  159.84    3.35
  -3  -1  -5   31.00    1.11
  -3  -1  -5   29.44    0.83
  -3  -1  -5   29.88    1.01
   3   1   5   30.25    1.12
  -4  -1  -5  195.24    4.01
  -4  -1  -5  192.35    4.13
   4   1   5  187.40    4.13
  -5  -1  -5    9.71    0.85
  -5  -1  -5    9.57    0.75
   5   1   5    7.80    0.73
  -6  -1  -5   28.20    1.38
  -6  -1  -5   29.09    1.23
   6   1   5   30.26    1.28
  -7  -1  -5   36.10    1.51
  -7  -1  -5   36.07    1.66
   7   1   5   33.23    1.50
  -8  -1  -5   45.30    1.86
  -8  -1  -5   43.84    2.00
  -8  -1  -5   43.94    1.92
   8   1   5   45.02    1.83
  -9  -1  -5   31.13    1.89
  -9  -1  -5   33.59    2.08
  -9  -1  -5   34.00    1.79
   9   1   5   34.41    1.90
 -10  -1  -5    4.73    1.04
 -10  -1  -5    3.16    1.47
 -10  -1  -5    4.57    0.97
 -11  -1  -5    8.71    1.43
 -11  -1  -5   10.21    1.40
 -12  -1  -5    2.32    1.31
 -12  -1  -5    1.18    1.26
   9  -2  -5   24.29    2.18
  -9   2   5   22.82    2.08
  -9   2   5   17.53    2.12
   8  -2  -5   44.97    2.47
  -8   2   5   46.38    2.22
  -8   2   5   46.48    2.34
   7  -2  -5    1.98    0.91
   7  -2  -5    1.41    0.86
  -7   2   5    2.11    0.86
  -7   2   5    1.65    0.76
  -7   2   5    2.62    0.88
   6  -2  -5   26.45    1.72
   6  -2  -5   23.74    1.38
   6  -2  -5   24.19    2.24
  -6   2   5   24.56    1.40
  -6   2   5   26.45    1.68
  -6   2   5   19.81    2.17
   5  -2  -5    0.62    0.74
   5  -2  -5    0.69    0.56
   5  -2  -5    0.52    0.45
  -5   2   5    0.65    0.54
  -5   2   5   -0.13    0.50
  -5   2   5    0.73    0.49
   4  -2  -5    1.82    0.61
   4  -2  -5    3.08    0.49
   4  -2  -5    3.07    0.63
  -4   2   5    2.24    0.47
  -4   2   5    2.59    0.54
  -4   2   5    2.78    0.66
   3  -2  -5   11.59    0.95
   3  -2  -5   12.39    1.04
   3  -2  -5   12.18    0.77
  -3   2   5   13.97    0.86
  -3   2   5   10.73    0.87
  -3   2   5   12.52    0.97
   2  -2  -5   52.74    1.70
   2  -2  -5   52.46    1.45
   2  -2  -5   52.30    1.60
  -2   2   5   51.99    1.47
  -2   2   5   50.89    1.58
   1  -2  -5  413.05    8.02
   1  -2  -5  407.37    7.99
   1  -2  -5  433.77    7.89
  -1   2   5  419.27    7.87
  -1   2   5  406.96    8.01
   0  -2  -5   47.65    1.32
   0  -2  -5   46.88    1.35
   0  -2  -5   43.65    1.31
   0   2   5   45.35    1.29
   0   2   5   43.90    1.27
   0   2   5   44.31    1.32
  -1  -2  -5  380.25    7.46
  -1  -2  -5  391.15    7.35
  -1  -2  -5  415.16    7.47
   1   2   5  372.41    7.45
   1   2   5  391.09    7.44
   1   2   5  401.22    7.35
  -2  -2  -5  108.68    2.18
  -2  -2  -5  105.51    2.41
  -2  -2  -5  106.49    2.38
   2   2   5  103.44    2.40
   2   2   5  107.01    2.17
  -3  -2  -5  224.45    4.57
  -3  -2  -5  235.97    4.68
   3   2   5  226.18    4.69
  -4  -2  -5    2.09    0.39
  -4  -2  -5    1.87    0.39
   4   2   5    2.37    0.42
  -5  -2  -5  148.90    3.46
  -5  -2  -5  145.68    3.31
   5   2   5  151.18    3.33
   5   2   5  150.28    3.49
  -6  -2  -5    0.15    0.35
  -6  -2  -5    0.26    0.45
   6   2   5    0.43    0.38
  -7  -2  -5   40.95    1.63
  -7  -2  -5   42.71    1.77
   7   2   5   42.73    1.61
  -8  -2  -5   23.35    1.43
  -8  -2  -5   24.73    1.57
   8   2   5   23.74    1.42
  -9  -2  -5   58.07    2.25
  -9  -2  -5   59.46    2.50
  -9  -2  -5   57.87    2.52
   9   2   5   57.41    2.29
 -10  -2  -5   13.32    1.72
 -10  -2  -5   10.37    1.60
 -10  -2  -5   11.42    1.47
 -11  -2  -5    0.56    0.94
 -11  -2  -5   -0.28    0.86
 -12  -2  -5   -0.03    1.15
 -12  -2  -5    0.90    1.26
   9  -3  -5   34.55    2.40
  -9   3   5   31.05    2.33
  -9   3   5   30.46    2.31
   8  -3  -5   -1.15    0.88
  -8   3   5   -0.23    0.84
  -8   3   5   -2.19    1.57
   7  -3  -5   22.10    1.96
   7  -3  -5   26.56    1.90
  -7   3   5   27.69    1.80
  -7   3   5   24.38    1.68
  -7   3   5   25.20    1.94
   6  -3  -5    3.39    0.95
   6  -3  -5    2.74    0.74
   6  -3  -5    2.73    0.86
  -6   3   5    3.39    0.73
  -6   3   5    3.79    0.84
  -6   3   5    3.38    0.86
   5  -3  -5    8.08    1.26
   5  -3  -5    9.40    1.04
   5  -3  -5   10.84    1.20
  -5   3   5    8.41    1.22
  -5   3   5    8.16    1.07
  -5   3   5    8.88    1.09
   4  -3  -5    2.27    0.60
   4  -3  -5    2.44    0.65
   4  -3  -5    2.92    0.55
  -4   3   5    3.08    0.61
  -4   3   5    2.64    0.53
  -4   3   5    2.04    0.54
   3  -3  -5   56.46    1.66
   3  -3  -5   54.70    1.89
   3  -3  -5   56.27    1.75
  -3   3   5   54.22    1.72
  -3   3   5   55.42    1.68
   2  -3  -5   42.76    1.42
   2  -3  -5   42.87    1.36
   2  -3  -5   43.44    1.57
  -2   3   5   43.42    1.40
  -2   3   5   44.71    1.49
  -2   3   5   42.35    1.40
   1  -3  -5   90.05    2.31
   1  -3  -5   86.73    2.17
   1  -3  -5   92.05    2.19
  -1   3   5   89.62    2.20
  -1   3   5   90.62    2.25
  -1   3   5   92.79    2.22
   0  -3  -5  207.56    4.31
   0  -3  -5  221.39    4.36
   0  -3  -5  211.11    4.34
   0   3   5  214.57    4.35
   0   3   5  214.14    4.32
   0   3   5  213.36    4.34
  -1  -3  -5  441.26    8.10
  -1  -3  -5  449.00    8.22
  -1  -3  -5  423.66    8.16
   1   3   5  422.06    8.16
   1   3   5  431.34    8.07
   1   3   5  424.10    8.21
  -2  -3  -5   48.39    1.37
  -2  -3  -5   53.23    1.26
  -2  -3  -5   51.23    1.46
   2   3   5   48.51    1.44
   2   3   5   53.09    1.21
  -3  -3  -5   31.52    1.03
  -3  -3  -5   30.97    1.16
   3   3   5   29.58    1.12
  -4  -3  -5    0.25    0.27
  -4  -3  -5    0.36    0.33
   4   3   5    0.38    0.29
  -5  -3  -5   12.40    0.91
  -5  -3  -5   13.54    0.82
   5   3   5   13.24    0.81
   5   3   5   13.37    0.90
  -6  -3  -5    9.51    0.97
  -6  -3  -5   10.42    0.86
   6   3   5    9.34    0.93
   6   3   5    9.24    0.85
  -7  -3  -5    3.69    0.70
  -7  -3  -5    3.54    0.65
   7   3   5    3.93    0.68
  -8  -3  -5   39.32    1.86
  -8  -3  -5   39.18    1.73
   8   3   5   40.73    1.72
  -9  -3  -5   10.75    1.39
  -9  -3  -5   12.35    1.59
   9   3   5   12.61    1.46
 -10  -3  -5   36.36    2.08
 -10  -3  -5   37.94    2.41
 -10  -3  -5   34.77    2.06
 -11  -3  -5   -0.03    0.96
 -11  -3  -5    0.40    1.03
 -12  -3  -5    5.17    1.37
 -12  -3  -5    5.32    1.38
   9  -4  -5    0.91    1.11
  -9   4   5   -0.49    0.99
  -9   4   5    0.85    1.16
   8  -4  -5   17.70    1.89
  -8   4   5   14.01    1.84
  -8   4   5   13.42    1.79
   7  -4  -5   11.35    1.55
   7  -4  -5    8.96    1.19
   7  -4  -5    7.44    1.25
  -7   4   5    8.07    1.09
  -7   4   5    9.92    1.49
  -7   4   5   10.19    1.80
   6  -4  -5   37.43    1.88
   6  -4  -5   34.77    1.80
  -6   4   5   35.90    2.14
  -6   4   5   34.37    1.75
  -6   4   5   36.32    1.99
   5  -4  -5   15.07    1.23
   5  -4  -5   15.75    1.28
   5  -4  -5   15.44    1.40
  -5   4   5   15.58    1.41
  -5   4   5   16.65    1.30
  -5   4   5   15.80    1.23
   4  -4  -5   60.07    2.31
   4  -4  -5   67.93    2.10
   4  -4  -5   65.61    2.20
  -4   4   5   66.37    2.04
  -4   4   5   71.14    2.24
  -4   4   5   66.18    2.05
   3  -4  -5   -0.44    0.41
   3  -4  -5   -0.20    0.34
   3  -4  -5   -0.58    0.40
  -3   4   5    0.23    0.47
  -3   4   5    0.28    0.41
  -3   4   5   -0.39    0.32
   2  -4  -5   95.38    2.50
   2  -4  -5   93.25    2.35
   2  -4  -5   99.03    2.42
  -2   4   5   94.44    2.36
  -2   4   5   96.18    2.48
  -2   4   5   94.75    2.42
   1  -4  -5  132.55    3.00
   1  -4  -5  127.66    2.90
  -1   4   5  136.19    3.04
  -1   4   5  128.02    2.91
  -1   4   5  132.53    3.03
   0  -4  -5  492.67    9.22
   0  -4  -5  477.36    9.27
   0  -4  -5  502.51    9.33
   0   4   5  486.19    9.31
   0   4   5  499.51    9.28
   0   4   5  476.79    9.21
  -1  -4  -5    9.13    0.62
  -1  -4  -5    9.96    0.42
  -1  -4  -5   10.04    0.87
   1   4   5    8.73    0.59
   1   4   5   11.65    0.78
   1   4   5    7.84    0.75
  -2  -4  -5    5.53    0.49
  -2  -4  -5    7.63    0.56
  -2  -4  -5    7.63    0.78
   2   4   5    6.39    0.66
  -3  -4  -5   27.12    0.95
  -3  -4  -5   27.96    1.12
   3   4   5   25.90    1.07
  -4  -4  -5   61.32    1.64
  -4  -4  -5   61.62    1.78
   4   4   5   60.79    1.77
  -5  -4  -5   65.48    1.91
  -5  -4  -5   62.37    1.78
   5   4   5   64.97    1.78
   5   4   5   63.17    1.91
  -6  -4  -5    0.19    0.39
  -6  -4  -5    0.86    0.46
   6   4   5    0.97    0.43
   6   4   5    0.82    0.45
  -7  -4  -5    4.89    0.73
  -7  -4  -5    6.07    0.98
   7   4   5    4.96    0.68
  -8  -4  -5   22.93    1.55
  -8  -4  -5   26.35    1.78
   8   4   5   22.02    1.40
  -9  -4  -5    8.31    1.32
  -9  -4  -5   10.50    1.54
   9   4   5    9.35    1.40
 -10  -4  -5   30.55    2.24
 -10  -4  -5   28.18    1.91
 -11  -4  -5    0.54    1.00
 -11  -4  -5    1.77    0.98
 -12  -4  -5    4.85    1.27
   9  -5  -5   28.80    2.31
  -9   5   5   21.70    2.43
  -9   5   5   24.75    2.27
   8  -5  -5    6.40    1.12
  -8   5   5    6.26    1.22
  -8   5   5    7.76    1.23
   7  -5  -5   10.91    1.58
   7  -5  -5   13.63    1.47
   7  -5  -5   10.93    1.79
  -7   5   5   10.34    1.42
  -7   5   5   11.88    1.61
  -7   5   5   13.39    1.64
   6  -5  -5   14.69    1.55
   6  -5  -5   16.33    1.52
   6  -5  -5   17.62    1.58
  -6   5   5   11.76    1.69
  -6   5   5   16.23    1.54
  -6   5   5   15.63    1.82
   5  -5  -5   27.84    1.66
   5  -5  -5   31.89    1.64
   5  -5  -5   32.81    1.65
  -5   5   5   32.23    1.65
  -5   5   5   31.09    1.56
  -5   5   5   29.91    1.81
   4  -5  -5   15.96    1.21
   4  -5  -5   13.89    1.23
   4  -5  -5   16.46    1.26
  -4   5   5   17.20    1.34
  -4   5   5   17.53    1.25
  -4   5   5   15.89    1.11
   3  -5  -5    1.80    0.52
   3  -5  -5    1.08    0.47
   3  -5  -5    2.13    0.79
  -3   5   5    2.15    0.55
  -3   5   5    1.88    0.50
  -3   5   5    2.93    0.64
   2  -5  -5   19.12    1.10
   2  -5  -5   22.85    1.11
   2  -5  -5   19.99    1.00
  -2   5   5   20.08    0.96
  -2   5   5   21.37    1.24
  -2   5   5   20.46    1.15
   1  -5  -5  187.93    4.07
   1  -5  -5  185.80    3.90
   1  -5  -5  188.50    4.08
  -1   5   5  185.01    4.09
  -1   5   5  182.57    3.89
  -1   5   5  193.29    4.11
  -1   5   5  187.61    3.73
   0  -5  -5   86.13    2.18
   0  -5  -5   92.67    2.30
   0  -5  -5   85.54    2.05
   0   5   5   88.05    1.90
   0   5   5   85.41    2.05
   0   5   5   84.69    2.27
   0   5   5   90.62    2.24
  -1  -5  -5  114.80    2.66
  -1  -5  -5  104.94    2.25
  -1  -5  -5  110.09    2.46
  -1  -5  -5  106.72    2.39
   1   5   5  108.32    2.48
   1   5   5  107.20    2.38
   1   5   5  106.99    2.62
  -2  -5  -5   68.57    1.91
  -2  -5  -5   68.34    1.70
  -2  -5  -5   70.44    1.66
  -2  -5  -5   69.91    1.62
   2   5   5   67.32    1.88
   2   5   5   68.67    1.68
  -3  -5  -5    3.03    0.47
  -3  -5  -5    3.02    0.39
  -3  -5  -5    2.88    0.49
   3   5   5    2.80    0.45
   3   5   5    3.15    0.35
  -4  -5  -5   37.27    1.35
  -4  -5  -5   35.37    1.18
   4   5   5   35.58    1.31
  -5  -5  -5   41.59    1.51
  -5  -5  -5   42.29    1.39
   5   5   5   42.25    1.38
   5   5   5   40.91    1.50
  -6  -5  -5    1.60    0.51
  -6  -5  -5    1.80    0.50
   6   5   5    2.39    0.51
   6   5   5    2.09    0.56
  -7  -5  -5   22.15    1.38
  -7  -5  -5   23.33    1.31
   7   5   5   24.11    1.36
   7   5   5   26.46    1.31
  -8  -5  -5    0.88    0.64
  -8  -5  -5   -0.11    0.54
   8   5   5    0.14    0.55
  -9  -5  -5   77.59    2.72
  -9  -5  -5   78.40    2.63
   9   5   5   77.66    2.65
 -10  -5  -5   23.71    1.88
 -10  -5  -5   25.11    2.20
 -11  -5  -5    3.58    1.08
 -11  -5  -5    1.86    0.97
 -12  -5  -5    6.20    1.47
 -12  -5  -5    6.10    1.33
   9  -6  -5   32.14    2.56
  -9   6   5   29.50    2.51
  -9   6   5   27.40    2.66
   8  -6  -5    2.31    1.05
  -8   6   5    0.44    1.09
  -8   6   5   -1.41    0.98
   7  -6  -5   74.04    2.85
   7  -6  -5   77.80    2.96
   7  -6  -5   70.52    3.12
  -7   6   5   68.95    2.82
  -7   6   5   74.07    2.80
   6  -6  -5    4.61    1.02
   6  -6  -5    4.92    0.97
   6  -6  -5    5.60    0.99
  -6   6   5    4.72    1.24
  -6   6   5    4.56    1.03
  -6   6   5    4.01    1.09
   5  -6  -5   27.62    1.57
   5  -6  -5   26.97    1.67
   5  -6  -5   28.22    1.72
  -5   6   5   29.74    1.73
  -5   6   5   29.20    1.54
  -5   6   5   28.40    1.81
   4  -6  -5    0.30    0.59
   4  -6  -5   -0.29    0.57
   4  -6  -5   -0.21    0.50
  -4   6   5    1.18    0.65
  -4   6   5    1.00    0.77
  -4   6   5    0.85    0.53
   3  -6  -5   59.47    2.04
   3  -6  -5   64.92    1.89
   3  -6  -5   62.59    2.06
  -3   6   5   64.02    2.19
  -3   6   5   64.19    1.90
  -3   6   5   62.42    2.11
   2  -6  -5    5.63    0.73
   2  -6  -5    5.93    0.82
   2  -6  -5    6.54    0.92
  -2   6   5    6.97    0.98
  -2   6   5    7.15    1.02
  -2   6   5    6.32    0.68
   1  -6  -5    2.01    0.39
   1  -6  -5    1.34    0.42
   1  -6  -5    1.31    0.44
  -1   6   5    1.82    0.51
  -1   6   5    1.46    0.48
  -1   6   5    1.50    0.30
  -1   6   5    1.65    0.35
   0  -6  -5    8.39    0.87
   0  -6  -5    6.23    0.59
   0  -6  -5    6.02    0.69
   0   6   5    7.12    0.55
   0   6   5    7.16    0.57
   0   6   5    6.82    0.81
   0   6   5    7.55    0.92
  -1  -6  -5    4.50    0.47
  -1  -6  -5    3.88    0.55
  -1  -6  -5    4.33    0.51
  -1  -6  -5    4.74    0.57
   1   6   5    5.38    0.54
   1   6   5    4.48    0.69
   1   6   5    3.88    0.54
  -2  -6  -5   42.89    1.19
  -2  -6  -5   43.10    1.24
  -2  -6  -5   44.51    1.55
  -2  -6  -5   42.49    1.21
  -2  -6  -5   43.85    1.32
   2   6   5   40.85    1.46
   2   6   5   43.31    1.28
  -3  -6  -5    2.91    0.59
  -3  -6  -5    3.25    0.49
  -3  -6  -5    3.07    0.46
  -3  -6  -5    3.74    0.57
   3   6   5    2.98    0.52
   3   6   5    2.99    0.38
  -4  -6  -5    5.90    0.84
  -4  -6  -5    6.54    0.65
   4   6   5    5.66    0.73
  -5  -6  -5   51.32    1.72
  -5  -6  -5   49.92    1.71
   5   6   5   50.03    1.53
   5   6   5   49.10    1.69
  -6  -6  -5    9.57    0.94
  -6  -6  -5    7.75    1.02
   6   6   5    9.50    1.25
   6   6   5    8.31    0.89
  -7  -6  -5   58.58    2.05
  -7  -6  -5   56.39    1.92
   7   6   5   56.93    1.92
   7   6   5   54.67    2.02
  -8  -6  -5   31.22    1.60
  -8  -6  -5   29.26    1.68
   8   6   5   29.31    1.59
  -9  -6  -5  109.96    3.30
  -9  -6  -5  106.50    3.19
   9   6   5  107.36    3.20
 -10  -6  -5   18.92    2.07
 -10  -6  -5   16.99    1.74
 -11  -6  -5   51.28    2.59
 -11  -6  -5   48.35    2.62
   8  -7  -5   34.39    2.36
  -8   7   5   30.78    2.25
  -8   7   5   26.13    2.43
   7  -7  -5   26.28    2.26
   7  -7  -5   28.04    2.11
  -7   7   5   25.28    2.17
  -7   7   5   30.71    2.04
   6  -7  -5   31.41    1.99
   6  -7  -5   31.71    1.93
   6  -7  -5   35.51    2.22
  -6   7   5   34.72    2.09
  -6   7   5   32.69    2.28
  -6   7   5   27.89    3.03
   5  -7  -5   24.41    1.79
   5  -7  -5   22.47    1.65
   5  -7  -5   28.09    1.59
  -5   7   5   24.39    2.86
  -5   7   5   25.22    1.95
  -5   7   5   27.20    1.52
   4  -7  -5   37.36    1.83
   4  -7  -5   38.82    1.65
   4  -7  -5   38.85    1.89
  -4   7   5   42.12    2.01
  -4   7   5   37.50    1.82
  -4   7   5   39.01    1.59
   3  -7  -5   85.63    2.28
   3  -7  -5   89.73    2.65
   3  -7  -5   82.11    2.58
  -3   7   5   85.43    2.29
  -3   7   5   88.19    2.71
  -3   7   5   82.36    2.59
   2  -7  -5    3.89    0.53
   2  -7  -5    3.82    0.71
   2  -7  -5    5.10    0.76
  -2   7   5    4.04    0.67
  -2   7   5    4.81    0.82
  -2   7   5    3.45    0.71
  -2   7   5    3.59    0.49
   1  -7  -5   27.50    1.37
   1  -7  -5   27.77    1.28
   1  -7  -5   29.19    1.05
  -1   7   5   27.99    1.02
  -1   7   5   28.62    1.44
  -1   7   5   28.36    1.09
  -1   7   5   29.47    1.41
   0  -7  -5   52.26    1.99
   0  -7  -5   53.90    1.72
   0  -7  -5   51.79    1.42
   0   7   5   55.04    1.74
   0   7   5   53.82    1.52
   0   7   5   53.45    1.84
   0   7   5   53.13    1.39
  -1  -7  -5   70.42    1.71
  -1  -7  -5   69.40    1.78
  -1  -7  -5   72.11    2.11
  -1  -7  -5   71.00    1.95
   1   7   5   69.15    1.82
   1   7   5   72.04    1.94
   1   7   5   69.52    2.10
  -2  -7  -5   40.93    1.18
  -2  -7  -5   40.91    1.28
  -2  -7  -5   42.88    1.58
  -2  -7  -5   41.14    1.15
  -2  -7  -5   42.21    1.35
   2   7   5   41.02    1.32
   2   7   5   41.07    1.52
  -3  -7  -5   60.70    1.69
  -3  -7  -5   60.23    1.53
  -3  -7  -5   59.83    1.62
  -3  -7  -5   60.19    1.89
   3   7   5   58.74    1.84
   3   7   5   57.72    1.58
  -4  -7  -5   22.58    1.24
  -4  -7  -5   23.19    1.10
  -4  -7  -5   22.12    0.95
   4   7   5   21.36    0.87
   4   7   5   20.65    1.13
  -5  -7  -5    1.04    0.64
  -5  -7  -5    0.46    0.37
   5   7   5    0.86    0.40
   5   7   5    1.20    0.48
  -6  -7  -5   36.81    1.48
  -6  -7  -5   35.55    1.65
   6   7   5   37.47    1.45
   6   7   5   36.03    1.55
  -7  -7  -5    2.92    0.66
  -7  -7  -5    3.31    0.77
   7   7   5    2.00    0.65
   7   7   5    2.98    0.63
  -8  -7  -5   27.38    1.71
  -8  -7  -5   24.73    1.54
   8   7   5   28.17    1.58
   8   7   5   27.23    1.57
  -9  -7  -5    3.28    0.94
  -9  -7  -5    1.41    0.78
   9   7   5    2.44    0.91
 -10  -7  -5   45.42    2.30
 -10  -7  -5   39.62    2.45
 -11  -7  -5   16.39    2.95
 -11  -7  -5   12.15    1.63
   8  -8  -5   10.07    1.56
  -8   8   5   12.72    2.16
   7  -8  -5    0.34    0.94
   7  -8  -5   -0.92    1.17
  -7   8   5   -0.26    1.03
  -7   8   5   -1.52    0.93
   6  -8  -5   31.52    1.95
   6  -8  -5   29.80    1.99
  -6   8   5   25.71    3.03
  -6   8   5   31.50    2.08
   5  -8  -5    2.68    0.82
   5  -8  -5    3.00    1.06
   5  -8  -5    2.29    0.88
  -5   8   5    2.69    0.74
  -5   8   5    2.42    0.81
  -5   8   5   -0.01    1.01
   4  -8  -5    1.62    1.17
   4  -8  -5    0.55    0.58
   4  -8  -5    0.29    0.84
  -4   8   5    0.29    0.78
  -4   8   5    0.70    0.56
  -4   8   5    0.74    0.78
   3  -8  -5    0.33    0.65
   3  -8  -5    0.91    0.52
   3  -8  -5   -0.02    0.53
  -3   8   5    0.99    0.78
  -3   8   5    1.02    0.75
  -3   8   5    0.93    0.46
   2  -8  -5    2.41    0.48
   2  -8  -5    1.91    0.60
  -2   8   5    2.16    0.45
  -2   8   5    2.19    0.49
  -2   8   5    3.41    0.81
  -2   8   5    1.59    0.62
   1  -8  -5    2.11    0.55
   1  -8  -5    2.44    0.64
   1  -8  -5    2.50    0.43
  -1   8   5    2.38    0.47
  -1   8   5    2.47    0.67
  -1   8   5    2.71    0.39
  -1   8   5    2.77    0.70
   0  -8  -5    1.21    0.49
   0  -8  -5    0.85    0.33
   0  -8  -5    1.65    0.58
   0   8   5    1.35    0.40
   0   8   5    1.49    0.51
   0   8   5    1.63    0.62
   0   8   5    1.48    0.31
  -1  -8  -5   47.61    1.63
  -1  -8  -5   48.48    1.50
  -1  -8  -5   49.10    1.77
  -1  -8  -5   48.25    1.28
   1   8   5   47.34    1.53
   1   8   5   46.80    1.77
   1   8   5   49.19    1.64
  -2  -8  -5  172.03    3.40
  -2  -8  -5  171.19    3.70
  -2  -8  -5  156.12    4.32
  -2  -8  -5  173.86    3.81
  -2  -8  -5  173.46    3.46
   2   8   5  166.88    3.92
   2   8   5  169.67    3.73
  -3  -8  -5   -0.16    0.29
  -3  -8  -5   -0.12    0.33
  -3  -8  -5    0.23    0.34
  -3  -8  -5   -0.18    0.29
   3   8   5   -0.22    0.34
   3   8   5   -0.02    0.42
  -4  -8  -5  158.88    3.81
  -4  -8  -5  162.53    3.44
  -4  -8  -5  168.40    3.73
   4   8   5  157.72    3.78
   4   8   5  158.82    3.48
  -5  -8  -5    2.11    0.49
  -5  -8  -5    1.59    0.61
  -5  -8  -5    2.08    0.54
   5   8   5    1.82    0.48
   5   8   5    2.43    0.45
   5   8   5    2.13    0.55
  -6  -8  -5  126.03    3.28
  -6  -8  -5  124.70    3.07
   6   8   5  127.85    3.05
   6   8   5  124.39    3.26
   6   8   5  124.15    2.79
  -7  -8  -5   11.09    1.19
  -7  -8  -5   10.65    1.29
   7   8   5   10.91    1.23
   7   8   5   10.96    1.12
  -8  -8  -5   47.78    2.12
  -8  -8  -5   46.31    1.99
   8   8   5   45.15    1.96
   8   8   5   44.72    1.99
  -9  -8  -5   17.50    1.82
  -9  -8  -5   11.96    1.62
   9   8   5   12.79    1.69
 -10  -8  -5   35.56    2.46
 -10  -8  -5   36.32    2.22
 -11  -8  -5    9.62    1.42
 -11  -8  -5   12.36    2.22
   8  -9  -5    8.31    1.54
  -8   9   5   13.97    1.82
  -8   9   5    9.45    1.69
   7  -9  -5   21.72    2.19
   7  -9  -5   30.35    2.63
  -7   9   5   28.78    2.16
  -7   9   5   25.16    2.36
   6  -9  -5   34.66    2.12
   6  -9  -5   33.56    2.23
  -6   9   5   29.68    3.14
  -6   9   5   34.29    2.26
   5  -9  -5    9.52    1.41
   5  -9  -5   11.85    1.64
   5  -9  -5   11.31    1.92
  -5   9   5   10.78    1.87
  -5   9   5    8.60    1.23
  -5   9   5   13.57    1.41
   4  -9  -5   56.37    1.99
   4  -9  -5   56.98    2.37
   4  -9  -5   59.78    2.48
  -4   9   5   58.17    2.44
  -4   9   5   54.56    2.57
  -4   9   5   56.65    1.91
   3  -9  -5    0.99    0.86
   3  -9  -5    1.13    0.51
   3  -9  -5    0.89    0.68
  -3   9   5    0.96    0.74
  -3   9   5    1.51    0.50
  -3   9   5    0.96    0.77
  -3   9   5    0.87    0.48
   2  -9  -5   49.48    2.01
   2  -9  -5   51.36    2.10
   2  -9  -5   49.17    1.49
  -2   9   5   47.53    2.13
  -2   9   5   46.94    1.72
  -2   9   5   49.96    2.08
  -2   9   5   47.58    1.44
   1  -9  -5    1.56    0.53
   1  -9  -5    2.26    0.42
   1  -9  -5    2.27    0.63
  -1   9   5    2.31    0.51
  -1   9   5    2.60    0.39
  -1   9   5    2.82    0.78
  -1   9   5    2.18    0.68
   0  -9  -5    0.43    0.30
   0  -9  -5    0.71    0.49
   0  -9  -5    1.29    0.66
   0   9   5    1.13    0.46
   0   9   5    0.88    0.66
   0   9   5    0.73    0.51
  -1  -9  -5   29.45    0.93
  -1  -9  -5   29.74    1.52
  -1  -9  -5   29.20    1.33
  -1  -9  -5   28.40    1.35
  -1  -9  -5   27.85    0.87
   1   9   5   30.32    1.31
   1   9   5   28.30    1.53
   1   9   5   30.79    1.38
  -2  -9  -5    5.85    0.79
  -2  -9  -5    5.55    0.52
  -2  -9  -5    4.13    0.97
  -2  -9  -5    6.25    0.57
  -2  -9  -5    5.14    0.81
   2   9   5    4.85    0.72
   2   9   5    5.93    0.82
  -3  -9  -5   49.44    1.71
  -3  -9  -5   47.66    1.67
  -3  -9  -5   49.73    1.34
  -3  -9  -5   47.94    1.37
  -3  -9  -5   48.98    1.89
   3   9   5   50.80    1.65
   3   9   5   48.49    1.78
  -4  -9  -5   -0.13    0.61
  -4  -9  -5    0.01    0.35
  -4  -9  -5    0.35    0.44
   4   9   5   -0.28    0.38
   4   9   5   -0.78    0.43
  -5  -9  -5   33.76    1.31
  -5  -9  -5   35.43    1.63
  -5  -9  -5   36.19    1.71
   5   9   5   33.23    1.33
   5   9   5   32.76    1.54
  -6  -9  -5    8.12    1.04
  -6  -9  -5    7.16    0.95
  -6  -9  -5    8.75    1.28
   6   9   5    6.48    1.10
   6   9   5    7.05    0.88
   6   9   5    7.25    0.99
   6   9   5    8.00    0.91
  -7  -9  -5   56.37    2.23
  -7  -9  -5   54.13    2.32
  -7  -9  -5   56.94    2.03
   7   9   5   57.24    1.98
   7   9   5   52.93    1.72
   7   9   5   55.59    2.12
  -8  -9  -5    2.97    0.93
  -8  -9  -5    2.33    0.90
   8   9   5    3.07    0.82
   8   9   5    3.49    0.91
  -9  -9  -5   19.01    1.93
  -9  -9  -5   15.09    1.75
   9   9   5   14.63    1.86
 -10  -9  -5    5.80    1.28
 -11  -9  -5   28.48    2.49
   7 -10  -5    5.11    1.55
   7 -10  -5    2.59    1.22
  -7  10   5    0.37    1.24
  -7  10   5    4.52    1.25
   6 -10  -5    6.88    1.18
   6 -10  -5    9.81    1.26
  -6  10   5    6.53    1.32
   5 -10  -5   42.47    2.37
   5 -10  -5   40.01    1.98
  -5  10   5   38.37    2.41
  -5  10   5   41.19    2.09
  -5  10   5   42.46    1.86
   4 -10  -5    2.96    0.73
   4 -10  -5    2.47    1.00
   4 -10  -5    2.96    0.96
  -4  10   5    3.36    1.06
  -4  10   5    2.65    0.65
  -4  10   5    2.18    0.83
  -4  10   5    1.76    0.94
   3 -10  -5   10.19    1.59
   3 -10  -5    8.36    0.99
   3 -10  -5    7.58    1.09
  -3  10   5    7.60    1.15
  -3  10   5    7.09    1.11
  -3  10   5    7.99    1.15
  -3  10   5    8.83    0.90
   2 -10  -5    7.06    1.25
   2 -10  -5    6.99    1.04
   2 -10  -5    7.62    0.78
  -2  10   5    8.00    0.74
  -2  10   5    8.19    1.16
  -2  10   5    8.19    1.09
   1 -10  -5   45.95    1.99
   1 -10  -5   45.20    1.99
  -1  10   5   47.36    1.99
  -1  10   5   47.60    2.16
  -1  10   5   47.40    1.80
   0 -10  -5    6.88    1.16
   0 -10  -5    4.55    0.79
   0  10   5    5.22    0.80
   0  10   5    4.43    0.65
   0  10   5    5.25    0.90
  -1 -10  -5   41.70    1.88
  -1 -10  -5   41.34    1.74
   1  10   5   41.06    1.66
   1  10   5   39.85    1.89
   1  10   5   41.43    1.71
  -2 -10  -5   43.09    1.75
  -2 -10  -5   43.52    1.87
  -2 -10  -5   43.61    1.64
   2  10   5   40.88    1.68
   2  10   5   38.36    1.81
  -3 -10  -5  130.98    2.78
  -3 -10  -5  136.04    3.49
  -3 -10  -5  134.06    3.34
  -3 -10  -5  129.87    3.34
  -3 -10  -5  131.97    2.81
   3  10   5  129.87    3.44
   3  10   5  134.05    3.30
  -4 -10  -5    0.34    0.39
  -4 -10  -5   -0.29    0.51
  -4 -10  -5    0.16    0.63
   4  10   5    0.14    0.56
   4  10   5    0.28    0.55
  -5 -10  -5   81.52    2.19
  -5 -10  -5   85.07    2.66
  -5 -10  -5   83.14    2.61
   5  10   5   84.32    2.58
   5  10   5   83.32    2.44
  -6 -10  -5    1.29    0.62
  -6 -10  -5    1.98    0.84
  -6 -10  -5    1.38    0.73
   6  10   5    0.95    0.58
   6  10   5    1.44    0.60
   6  10   5    0.64    0.64
  -7 -10  -5    1.32    0.74
  -7 -10  -5   -0.78    0.79
  -7 -10  -5    0.12    0.74
   7  10   5    1.05    0.65
   7  10   5    0.80    0.59
   7  10   5    0.32    0.66
   7  10   5    0.60    0.67
  -8 -10  -5   18.30    1.87
  -8 -10  -5   17.08    2.29
   8  10   5   14.12    1.30
   8  10   5   19.00    1.68
   8  10   5   19.13    1.66
   8  10   5   19.37    1.42
  -9 -10  -5    0.00    0.89
  -9 -10  -5    0.72    1.14
   9  10   5    0.64    1.06
   9  10   5   -2.11    1.61
 -10 -10  -5    8.03    1.34
   6 -11  -5   15.35    2.19
   6 -11  -5   18.08    2.13
  -6  11   5   16.98    1.90
  -6  11   5   15.12    2.20
  -6  11   5   16.43    2.07
   5 -11  -5   19.77    1.69
   5 -11  -5   18.09    2.02
  -5  11   5   18.82    2.19
  -5  11   5   22.77    1.86
  -5  11   5   18.46    1.53
   4 -11  -5    6.36    1.42
   4 -11  -5    3.84    1.13
  -4  11   5    4.30    0.72
  -4  11   5    2.40    0.78
  -4  11   5    3.78    1.06
   3 -11  -5    6.22    1.26
   3 -11  -5    6.97    1.00
   3 -11  -5    8.98    1.51
  -3  11   5    8.06    1.26
  -3  11   5    6.20    1.44
  -3  11   5    9.49    0.88
  -3  11   5    6.89    1.21
   2 -11  -5   21.81    1.67
   2 -11  -5   23.28    1.95
  -2  11   5   24.62    1.87
  -2  11   5   24.62    1.88
  -2  11   5   21.28    1.53
   1 -11  -5   -0.29    0.70
   1 -11  -5    0.22    0.73
  -1  11   5   -0.37    0.57
  -1  11   5   -0.36    0.70
  -1  11   5   -0.63    0.69
   0 -11  -5    8.92    1.23
   0 -11  -5   10.64    1.39
   0  11   5    8.77    1.45
   0  11   5    9.39    1.31
   0  11   5   10.17    1.20
  -1 -11  -5    3.57    0.86
  -1 -11  -5    3.93    0.79
   1  11   5    4.07    0.94
   1  11   5    4.50    0.77
   1  11   5    4.14    0.71
  -2 -11  -5   59.00    2.18
  -2 -11  -5   57.73    2.24
  -2 -11  -5   57.99    2.06
   2  11   5   58.70    2.11
   2  11   5   58.64    2.25
  -3 -11  -5   -0.37    0.73
  -3 -11  -5    1.05    0.63
  -3 -11  -5    0.02    0.57
   3  11   5    0.39    0.67
   3  11   5   -0.08    0.55
  -4 -11  -5   30.17    1.67
  -4 -11  -5   32.87    1.20
  -4 -11  -5   30.06    1.13
  -4 -11  -5   30.18    1.82
   4  11   5   30.04    1.65
   4  11   5   32.22    1.56
  -5 -11  -5   36.02    1.99
  -5 -11  -5   36.02    1.91
  -5 -11  -5   36.39    1.42
   5  11   5   38.09    1.74
   5  11   5   41.86    1.86
  -6 -11  -5   22.68    1.33
  -6 -11  -5   19.74    1.75
  -6 -11  -5   18.53    1.72
   6  11   5   21.75    1.52
   6  11   5   18.41    1.52
   6  11   5   22.98    1.47
  -7 -11  -5   -0.20    0.94
  -7 -11  -5   -0.24    0.73
   7  11   5    0.20    0.76
   7  11   5    1.84    0.86
   7  11   5   -0.81    0.63
   7  11   5   -0.82    0.66
  -8 -11  -5   13.49    2.22
   8  11   5   16.49    1.53
   8  11   5   16.43    1.76
   8  11   5   14.40    1.66
   8  11   5   14.19    1.78
  -9 -11  -5    6.11    1.21
  -9 -11  -5    6.13    1.50
   9  11   5    5.74    1.27
   9  11   5   10.13    1.76
 -10 -11  -5    8.93    1.42
   6 -12  -5   15.89    2.42
  -6  12   5   18.26    2.16
  -6  12   5   13.03    1.98
   5 -12  -5   -0.27    0.99
  -5  12   5    1.97    0.84
  -5  12   5   -1.35    1.10
   4 -12  -5   24.07    2.19
   4 -12  -5   28.41    1.57
  -4  12   5   26.82    2.02
  -4  12   5   23.76    2.33
  -4  12   5   28.73    1.37
   3 -12  -5    0.24    0.79
  -3  12   5   -0.06    1.08
  -3  12   5    0.05    0.70
   2 -12  -5    8.14    1.23
   2 -12  -5   12.18    2.14
  -2  12   5   10.75    1.78
  -2  12   5   10.89    1.97
  -2  12   5   12.58    1.44
   1 -12  -5   23.16    2.06
   1 -12  -5   24.33    1.84
  -1  12   5   21.58    2.03
  -1  12   5   24.28    1.89
   0 -12  -5   15.38    1.55
   0 -12  -5   13.35    1.72
   0  12   5   12.88    1.40
   0  12   5   11.58    1.69
   0  12   5   17.46    1.63
  -1 -12  -5    8.54    1.19
   1  12   5    4.66    1.58
   1  12   5    6.22    0.93
   1  12   5    7.99    1.32
  -2 -12  -5   17.48    1.74
  -2 -12  -5   15.52    1.49
  -2 -12  -5   18.76    1.56
   2  12   5   17.91    1.63
   2  12   5   15.53    1.51
  -3 -12  -5   49.49    2.18
  -3 -12  -5   45.61    2.09
  -3 -12  -5   48.41    2.21
   3  12   5   49.34    2.38
   3  12   5   47.03    2.11
  -4 -12  -5   36.08    1.98
  -4 -12  -5   36.77    2.06
   4  12   5   41.89    1.89
   4  12   5   38.92    1.97
  -5 -12  -5    0.69    0.77
  -5 -12  -5    2.04    0.56
  -5 -12  -5    3.14    0.96
   5  12   5    3.35    0.85
   5  12   5    2.57    0.94
  -6 -12  -5    6.76    0.83
  -6 -12  -5    5.70    1.19
   6  12   5    6.06    1.46
   6  12   5    8.86    1.55
   6  12   5    9.32    1.47
  -7 -12  -5   10.07    1.49
  -7 -12  -5    9.10    1.35
   7  12   5   14.21    1.71
   7  12   5   11.06    1.63
   7  12   5    9.39    1.13
  -8 -12  -5    0.24    1.26
   8  12   5    0.45    1.12
   8  12   5   -0.48    0.95
   8  12   5   -0.45    0.99
   8  12   5    0.41    0.90
  -9 -12  -5    3.32    1.26
   9  12   5    1.55    1.34
   9  12   5    0.09    1.06
   9  12   5    2.85    1.06
   5 -13  -5   35.03    3.22
  -5  13   5   33.52    2.43
  -5  13   5   30.17    2.88
   4 -13  -5    2.76    1.15
  -4  13   5    0.78    1.15
  -4  13   5    3.64    0.98
   3 -13  -5   32.95    2.41
  -3  13   5   31.40    2.10
  -3  13   5   30.63    2.45
   2 -13  -5    1.20    0.92
  -2  13   5   -0.27    0.78
  -2  13   5    0.66    1.08
   1 -13  -5   19.53    1.92
  -1  13   5   21.86    1.74
  -1  13   5   18.14    2.07
   0 -13  -5    3.66    1.23
   0 -13  -5    1.47    0.86
   0  13   5    2.78    1.00
   0  13   5    1.54    0.78
   0  13   5    3.78    1.11
  -1 -13  -5    6.23    1.25
  -1 -13  -5    6.42    1.11
   1  13   5    5.94    1.10
   1  13   5    6.21    1.06
   1  13   5    5.97    1.02
  -2 -13  -5   -1.17    0.88
  -2 -13  -5    1.11    0.93
  -2 -13  -5   -0.06    0.77
   2  13   5    1.77    0.90
   2  13   5    1.37    0.83
  -3 -13  -5   30.16    1.97
  -3 -13  -5   24.22    2.17
  -3 -13  -5   28.53    2.00
   3  13   5   30.15    2.00
   3  13   5   26.73    1.91
  -4 -13  -5    6.67    1.09
  -4 -13  -5    5.66    1.23
   4  13   5    9.96    1.60
   4  13   5   10.37    1.70
  -5 -13  -5   22.74    2.15
   5  13   5   26.78    1.97
   5  13   5   22.98    2.23
  -6 -13  -5   17.82    1.38
  -6 -13  -5   12.73    2.13
   6  13   5   21.30    2.06
   6  13   5   18.98    1.83
   6  13   5   19.20    1.85
  -7 -13  -5    4.95    1.48
  -7 -13  -5    7.77    1.08
   7  13   5    7.33    1.30
   7  13   5    6.49    1.14
   7  13   5    7.02    1.19
  -8 -13  -5    2.04    2.08
  -8 -13  -5   -0.86    1.49
   8  13   5    0.73    1.10
   8  13   5    0.73    1.24
   4 -14  -5    6.63    1.64
  -4  14   5    4.66    1.21
  -4  14   5    3.30    1.68
   3 -14  -5   15.56    2.19
  -3  14   5   20.00    2.47
  -3  14   5   20.61    2.16
   2 -14  -5    6.38    1.41
  -2  14   5    3.52    1.22
  -2  14   5    3.52    1.03
   1 -14  -5    4.59    1.12
  -1  14   5    4.97    1.10
  -1  14   5    7.98    1.60
   0 -14  -5   16.07    2.04
   0  14   5   15.42    1.79
   0  14   5   15.85    2.17
  -1 -14  -5   23.40    2.17
   1  14   5   25.18    2.22
   1  14   5   21.90    1.90
  -2 -14  -5    6.94    1.29
  -2 -14  -5    7.38    1.43
   2  14   5    6.83    1.65
   2  14   5    6.26    1.15
  -3 -14  -5    9.76    1.42
   3  14   5   10.64    1.84
   3  14   5    9.33    1.42
  -4 -14  -5   14.80    2.41
   4  14   5   19.10    2.15
   4  14   5   20.12    1.94
  -5 -14  -5   16.54    2.42
   5  14   5   23.13    2.24
   5  14   5   20.05    2.03
  -6 -14  -5    0.40    1.30
   6  14   5    2.04    1.27
   6  14   5    2.62    1.02
   6  14   5    2.09    1.07
  -7 -14  -5    2.25    1.43
  -7 -14  -5    6.21    1.16
   7  14   5    5.40    1.22
   7  14   5    2.99    1.51
   7  14   5    5.10    1.27
   2 -15  -5   11.64    1.85
  -2  15   5   12.30    2.03
  -2  15   5    9.73    1.75
   1 -15  -5    1.37    1.15
  -1  15   5   -0.55    0.97
  -1  15   5    3.09    1.29
   0 -15  -5   13.51    2.27
   0  15   5   20.52    2.30
   0  15   5   15.35    1.98
  -1 -15  -5    7.11    1.50
   1  15   5    5.83    1.12
   1  15   5    6.24    1.22
  -2 -15  -5    0.62    1.12
   2  15   5    1.65    1.05
   3  15   5    2.89    1.09
   4  15   5   29.48    2.26
   5  15   5    1.14    1.13
   6  15   5   27.66    2.23
   6  15   5   27.78    2.52
   0 -16  -5   21.46    2.83
   0  16   5   24.98    2.67
   0  16   5   20.60    2.32
  -1 -16  -5    2.35    1.28
   1  16   5   -1.21    0.95
   1  16   5    0.09    1.19
   2  16   5    0.37    1.11
   3  16   5    2.09    1.12
   4  16   5    8.94    1.45
   0  12  -6    1.00    1.56
   0  12  -6   -1.74    1.19
  -1  12  -6   17.20    2.45
  -1  12  -6   14.21    1.94
  -1  12  -6   10.35    1.47
  -2  12  -6    4.44    1.87
  -2  12  -6    1.82    1.27
  -2  12  -6    4.61    1.24
   3  11  -6    7.38    1.48
   2  11  -6    0.98    1.16
   1  11  -6   24.90    2.21
   0  11  -6    3.35    1.16
   0  11  -6    4.18    1.14
  -1  11  -6   17.67    2.04
  -1  11  -6   22.42    2.15
  -1  11  -6   19.09    1.89
  -2  11  -6    0.90    0.99
  -2  11  -6    1.75    1.12
  -3  11  -6   17.20    2.05
  -3  11  -6   12.69    1.56
  -4  11  -6   40.60    2.66
  -4  11  -6   34.59    2.60
  -5  11  -6   25.51    2.83
  -5  11  -6   23.03    2.59
   5  10  -6    0.70    1.42
  -5 -10   6    2.12    1.21
   4  10  -6   27.51    2.48
  -4 -10   6   29.62    2.41
   3  10  -6    0.32    1.13
  -3 -10   6    1.60    0.92
   2  10  -6   17.46    2.03
   2  10  -6   17.53    1.62
  -2 -10   6   21.29    1.55
   1  10  -6    2.39    1.02
   1  10  -6    3.21    0.76
   0  10  -6   28.37    1.21
   0  10  -6   24.98    2.07
   0  10  -6   28.59    2.11
  -1  10  -6    0.15    0.82
  -1  10  -6   -0.43    0.78
  -1  10  -6    1.80    1.06
  -2  10  -6   36.72    2.08
  -2  10  -6   35.93    2.20
  -3  10  -6    0.60    0.95
  -3  10  -6    0.04    0.83
  -4  10  -6   36.64    2.30
  -4  10  -6   33.53    2.33
  -5  10  -6   -1.13    1.04
  -5  10  -6   -0.65    0.93
  -6  10  -6    8.58    1.37
  -6  10  -6   12.48    1.82
   6   9  -6    0.88    1.35
  -6  -9   6    8.29    1.51
   5   9  -6    7.53    1.30
   5   9  -6   10.09    1.43
  -5  -9   6    8.93    1.31
   4   9  -6   17.99    1.96
   4   9  -6   21.67    2.13
  -4  -9   6   19.10    1.90
   3   9  -6    2.07    0.93
   3   9  -6    0.09    0.93
  -3  -9   6    2.09    0.86
   2   9  -6   42.10    1.84
   2   9  -6   45.71    2.42
  -2  -9   6   46.06    1.89
   1   9  -6    1.07    0.66
   1   9  -6    0.07    0.75
   0   9  -6   35.26    2.09
   0   9  -6   31.95    1.42
   0   9  -6   33.23    1.96
  -1   9  -6   26.36    1.90
  -1   9  -6   22.88    1.78
  -1   9  -6   23.03    1.25
  -1   9  -6   24.01    1.51
  -1   9  -6   24.28    1.11
  -2   9  -6   26.72    1.74
  -2   9  -6   25.69    1.14
  -2   9  -6   29.29    1.87
  -3   9  -6   22.61    1.28
  -3   9  -6   18.71    1.09
  -3   9  -6   23.12    1.83
  -3   9  -6   25.34    1.84
  -4   9  -6    0.71    0.57
  -4   9  -6    1.45    0.87
  -4   9  -6    1.03    0.91
  -4   9  -6    2.63    0.73
  -5   9  -6   22.97    1.35
  -5   9  -6   25.42    1.63
  -5   9  -6   25.48    1.97
  -5   9  -6   22.68    2.05
  -6   9  -6    9.06    1.35
  -6   9  -6   12.64    2.06
  -6   9  -6   11.27    1.37
  -7   9  -6   11.99    1.66
  -7   9  -6    8.25    1.41
  -7   9  -6   14.83    2.29
   6   8  -6    0.22    1.06
  -6  -8   6    1.52    1.13
   5   8  -6   32.62    2.38
   5   8  -6   30.87    2.28
  -5  -8   6   31.20    2.13
   4   8  -6   13.85    1.79
   4   8  -6   13.62    1.83
  -4  -8   6   13.35    1.68
   3   8  -6   93.99    3.23
   3   8  -6   90.15    2.74
  -3  -8   6   94.12    2.82
  -3  -8   6   88.77    3.22
   2   8  -6   -0.14    1.12
   2   8  -6   -0.30    0.80
   2   8  -6   -0.90    0.66
  -2  -8   6    0.91    0.94
  -2  -8   6    0.54    0.64
   1   8  -6   92.91    3.27
   1   8  -6   98.73    3.21
   1   8  -6   97.63    3.51
  -1  -8   6  108.17    3.31
  -1  -8   6  108.18    2.72
   0   8  -6    0.38    0.70
   0   8  -6    0.83    0.56
   0   8  -6    1.17    0.88
   0   8  -6    0.31    0.70
  -1   8  -6   20.45    1.04
  -1   8  -6   19.33    1.59
  -1   8  -6   18.68    1.89
  -1   8  -6   20.37    1.29
  -1   8  -6   20.86    1.53
  -1   8  -6   20.47    1.12
  -2   8  -6    1.63    0.47
  -2   8  -6    0.63    0.56
  -2   8  -6    2.12    0.67
  -2   8  -6    1.92    0.69
  -2   8  -6    0.59    0.88
  -3   8  -6   15.70    1.44
  -3   8  -6   17.05    1.51
  -3   8  -6   17.83    1.17
  -3   8  -6   15.15    1.00
  -3   8  -6   19.00    1.87
  -4   8  -6    0.37    0.69
  -4   8  -6   -0.29    1.03
  -4   8  -6    0.59    0.49
  -4   8  -6    0.16    0.84
  -4   8  -6    0.71    0.62
  -5   8  -6   14.08    1.36
  -5   8  -6   14.97    1.18
  -5   8  -6   18.37    2.10
  -5   8  -6   14.47    1.86
  -5   8  -6   15.39    1.60
  -6   8  -6   -0.43    0.79
  -6   8  -6   -0.30    0.65
  -6   8  -6    1.77    0.83
  -6   8  -6   -0.41    1.02
  -7   8  -6   22.83    2.09
  -7   8  -6   23.33    1.75
  -7   8  -6   17.84    1.98
  -7   8  -6   20.85    2.34
  -8   8  -6    1.90    1.02
  -8   8  -6    0.52    1.10
  -8   8  -6    2.67    1.24
   7   7  -6    0.93    1.17
  -7  -7   6    3.57    1.35
   6   7  -6    8.91    1.31
  -6  -7   6    9.80    1.38
   5   7  -6   23.65    2.05
   5   7  -6   22.01    2.01
  -5  -7   6   21.72    1.85
   4   7  -6   36.21    2.12
   4   7  -6   33.14    1.93
  -4  -7   6   35.37    1.94
  -4  -7   6   37.95    2.19
   3   7  -6   56.30    2.07
   3   7  -6   55.60    2.42
  -3  -7   6   53.52    2.09
  -3  -7   6   54.76    2.39
   2   7  -6   17.53    1.33
   2   7  -6   17.33    1.92
   2   7  -6   16.39    1.50
  -2  -7   6   14.64    1.26
  -2  -7   6   15.29    1.58
   1   7  -6   14.09    1.70
   1   7  -6   16.24    1.74
   1   7  -6   17.15    1.43
  -1  -7   6   16.27    1.29
  -1  -7   6   15.55    1.48
   0   7  -6    4.84    0.64
   0   7  -6    4.53    0.82
   0   7  -6    2.78    0.89
   0   7  -6    3.07    0.89
  -1   7  -6    2.46    0.56
  -1   7  -6    1.99    0.80
  -1   7  -6    2.03    0.65
  -1   7  -6    2.65    1.20
  -1   7  -6    2.80    0.59
  -1   7  -6    1.70    0.56
  -2   7  -6   13.91    1.29
  -2   7  -6   14.78    1.70
  -2   7  -6   11.53    0.89
  -2   7  -6   16.05    1.16
  -2   7  -6   15.42    1.04
  -3   7  -6    1.01    0.45
  -3   7  -6    0.66    0.62
  -3   7  -6    0.57    0.76
  -3   7  -6    1.25    0.57
  -3   7  -6   -0.73    1.05
  -4   7  -6   25.66    1.70
  -4   7  -6   24.15    1.29
  -4   7  -6   24.00    1.16
  -4   7  -6   24.49    1.60
  -4   7  -6   25.40    1.79
  -5   7  -6    0.05    0.77
  -5   7  -6   -0.80    0.47
  -5   7  -6    0.56    0.81
  -5   7  -6   -0.48    0.60
  -5   7  -6   -0.10    0.59
  -6   7  -6   29.86    2.05
  -6   7  -6   34.65    2.07
  -6   7  -6   29.13    1.54
  -6   7  -6   29.40    1.69
  -6   7  -6   29.67    1.97
  -7   7  -6   17.00    2.00
  -7   7  -6   17.39    1.54
  -7   7  -6   21.61    2.24
  -8   7  -6   15.21    1.73
  -8   7  -6   14.02    2.15
   8  -7   6   13.28    2.24
  -9   7  -6    6.91    1.25
  -9   7  -6    7.42    1.36
   7   6  -6   -1.51    1.00
  -7  -6   6    1.31    1.09
   6   6  -6   56.81    2.73
  -6  -6   6   55.82    2.55
   5   6  -6   -1.58    0.90
   5   6  -6   -0.73    0.89
  -5  -6   6   -0.91    0.89
  -5  -6   6    0.51    0.76
   4   6  -6   44.51    2.18
   4   6  -6   43.55    2.03
  -4  -6   6   44.66    2.12
  -4  -6   6   45.15    2.05
   3   6  -6    9.19    1.31
   3   6  -6    7.48    1.07
  -3  -6   6    8.63    1.32
  -3  -6   6    8.56    1.21
   2   6  -6   23.62    1.40
  -2  -6   6   21.20    1.32
  -2  -6   6   25.12    1.50
   1   6  -6    2.21    0.72
   1   6  -6    2.11    0.63
   1   6  -6    1.75    0.79
  -1  -6   6    2.59    0.56
  -1  -6   6    1.87    0.66
   0   6  -6   16.29    1.06
   0   6  -6   13.08    1.44
   0   6  -6   14.49    1.31
   0   6  -6   17.24    1.21
   0  -6   6   15.47    1.03
  -1   6  -6   14.84    0.94
  -1   6  -6   13.70    1.39
  -1   6  -6   14.74    1.14
  -1   6  -6   14.69    1.24
  -1   6  -6   14.09    0.98
  -1   6  -6   13.94    1.02
  -2   6  -6    0.51    0.45
  -2   6  -6    0.48    0.65
  -2   6  -6    0.23    0.52
  -2   6  -6    0.51    0.38
  -2   6  -6    0.72    0.47
  -2   6  -6    0.56    0.48
  -3   6  -6   23.57    1.36
  -3   6  -6   24.72    1.36
  -3   6  -6   23.98    1.16
  -3   6  -6   23.11    1.05
  -3   6  -6   25.07    1.59
  -4   6  -6   20.36    1.08
  -4   6  -6   20.42    1.15
  -4   6  -6   20.82    1.36
  -4   6  -6   19.43    1.42
  -4   6  -6   19.27    1.45
  -5   6  -6    2.46    0.65
  -5   6  -6    3.15    0.60
  -5   6  -6    3.07    0.80
  -5   6  -6    2.01    0.69
  -5   6  -6    3.22    0.78
  -6   6  -6   31.76    1.50
  -6   6  -6   29.87    2.09
  -6   6  -6   34.13    1.89
  -6   6  -6   33.11    1.95
  -7   6  -6    3.76    1.09
  -7   6  -6    7.03    1.12
  -7   6  -6    4.72    0.86
   7  -6   6    3.65    1.17
  -8   6  -6   59.79    2.36
  -8   6  -6   62.01    2.70
   8  -6   6   55.41    2.68
  -9   6  -6    3.31    1.06
  -9   6  -6    6.04    1.37
   9  -6   6    3.53    1.24
   8   5  -6   18.06    2.48
   7   5  -6   29.18    2.37
  -7  -5   6   27.42    2.28
   6   5  -6   10.10    1.38
   6   5  -6    7.29    1.33
  -6  -5   6   11.94    1.71
  -6  -5   6    8.86    1.30
   5   5  -6   34.53    2.00
   5   5  -6   33.86    2.02
  -5  -5   6   31.70    1.83
  -5  -5   6   28.39    1.88
   4   5  -6   12.93    1.46
   4   5  -6   10.37    1.38
  -4  -5   6   13.03    1.40
  -4  -5   6   13.13    1.35
   3   5  -6   54.51    2.21
   3   5  -6   55.68    2.01
  -3  -5   6   56.20    2.01
  -3  -5   6   54.55    2.04
   2   5  -6    0.65    0.52
   2   5  -6    0.31    0.52
  -2  -5   6   -0.40    0.50
  -2  -5   6    0.06    0.55
   1   5  -6   35.35    1.42
   1   5  -6   33.01    1.62
  -1  -5   6   33.91    1.39
  -1  -5   6   34.78    1.50
   0   5  -6   43.57    1.52
   0   5  -6   45.86    1.65
   0   5  -6   44.87    1.76
   0   5  -6   45.78    1.91
   0  -5   6   46.46    1.56
  -1   5  -6    0.06    0.41
  -1   5  -6   -0.11    0.35
  -1   5  -6   -0.04    0.35
  -1   5  -6   -0.50    0.46
  -1   5  -6    0.40    0.40
  -1   5  -6    0.16    0.46
  -2   5  -6    1.01    0.45
  -2   5  -6    0.62    0.55
  -2   5  -6    0.49    0.41
  -2   5  -6    0.75    0.42
  -2   5  -6    0.25    0.36
  -3   5  -6   15.52    0.97
  -3   5  -6   14.69    1.05
  -3   5  -6   14.49    0.88
  -3   5  -6   15.60    1.11
  -3   5  -6   13.60    1.23
  -3   5  -6   14.95    1.15
  -4   5  -6   12.45    1.00
  -4   5  -6   13.50    0.90
  -4   5  -6   14.58    1.20
  -4   5  -6   13.11    1.12
  -4   5  -6   14.16    1.23
  -4   5  -6   13.24    1.19
  -5   5  -6   15.55    1.31
  -5   5  -6   14.68    1.17
  -5   5  -6   13.21    1.43
  -5   5  -6   14.62    1.03
  -5   5  -6   15.48    1.41
  -6   5  -6    5.23    0.92
  -6   5  -6    4.28    0.95
  -6   5  -6    7.93    1.23
  -6   5  -6    4.39    0.68
  -7   5  -6   47.47    2.52
  -7   5  -6   53.97    2.23
  -7   5  -6   49.05    1.99
  -7   5  -6   48.95    2.32
   7  -5   6   47.23    2.20
  -8   5  -6   13.07    1.52
  -8   5  -6   12.36    1.76
   8  -5   6   12.16    1.73
  -9   5  -6   14.15    1.68
  -9   5  -6   19.30    2.14
  -9   5  -6   16.59    1.75
   9  -5   6   10.66    1.43
 -10   5  -6    7.36    1.24
 -10   5  -6    9.12    1.60
  -8  -4   6   15.60    2.12
   7   4  -6   12.86    2.03
  -7  -4   6   15.32    2.36
  -7  -4   6   18.64    1.95
   6   4  -6    5.11    1.18
   6   4  -6    3.66    0.98
  -6  -4   6    5.04    0.98
  -6  -4   6    5.37    1.19
  -6  -4   6    4.23    1.01
   5   4  -6    0.83    0.90
   5   4  -6   -0.14    0.70
  -5  -4   6    0.69    0.83
  -5  -4   6    0.32    0.74
  -5  -4   6    0.50    0.70
   4   4  -6    0.39    0.71
   4   4  -6   -0.29    0.62
  -4  -4   6   -0.06    0.53
  -4  -4   6   -0.20    0.59
   3   4  -6    2.48    0.73
   3   4  -6    2.28    0.65
  -3  -4   6    1.67    0.61
  -3  -4   6    1.69    0.60
   2   4  -6   25.74    1.42
   2   4  -6   27.71    1.36
  -2  -4   6   29.91    1.38
  -2  -4   6   29.38    1.31
   1   4  -6    0.15    0.47
   1   4  -6    0.15    0.44
  -1  -4   6    0.54    0.44
  -1  -4   6    0.16    0.39
   0   4  -6    1.54    0.40
   0   4  -6    0.77    0.41
   0   4  -6    0.67    0.41
   0  -4   6    1.52    0.44
   0  -4   6    1.48    0.44
  -1   4  -6   51.17    1.50
  -1   4  -6   51.29    1.57
  -1   4  -6   52.19    1.88
  -1   4  -6   50.94    1.45
  -1   4  -6   52.78    1.64
  -1   4  -6   50.99    1.75
  -2   4  -6   65.78    1.85
  -2   4  -6   66.91    1.90
  -2   4  -6   67.35    2.02
  -2   4  -6   66.68    1.84
  -2   4  -6   64.07    1.91
  -2   4  -6   66.30    2.13
  -3   4  -6  187.54    3.96
  -3   4  -6  187.53    4.31
  -3   4  -6  176.34    4.10
  -3   4  -6  186.65    4.00
  -3   4  -6  187.74    4.20
  -3   4  -6  187.45    4.15
  -4   4  -6  116.88    2.75
  -4   4  -6  115.65    3.06
  -4   4  -6  112.64    2.99
  -4   4  -6  115.78    2.80
  -4   4  -6  112.85    3.00
  -5   4  -6  203.70    4.80
  -5   4  -6  213.43    4.91
  -5   4  -6  200.62    4.64
  -5   4  -6  208.14    4.47
  -6   4  -6    5.85    0.97
  -6   4  -6    7.22    1.20
  -6   4  -6    6.58    1.06
  -6   4  -6    9.27    1.39
  -7   4  -6  120.09    3.18
  -7   4  -6  122.63    3.56
  -7   4  -6  119.47    3.66
  -7   4  -6  116.50    3.14
   7  -4   6  116.00    3.27
  -8   4  -6    6.34    0.97
  -8   4  -6    6.28    1.02
   8  -4   6    4.17    0.95
  -9   4  -6   42.72    2.48
  -9   4  -6   43.42    2.47
  -9   4  -6   42.94    2.22
   9  -4   6   44.49    2.29
 -10   4  -6    0.85    1.03
 -10   4  -6   -0.69    1.05
  10  -4   6   -0.57    1.29
   9   3  -6   19.04    2.73
   8   3  -6   33.15    2.56
  -8  -3   6   31.95    2.33
   7   3  -6   17.35    2.04
  -7  -3   6   18.98    1.86
   6   3  -6   15.89    1.71
   6   3  -6   13.96    1.86
  -6  -3   6   16.43    1.66
  -6  -3   6   15.31    1.64
  -6  -3   6   14.89    1.79
   5   3  -6    2.48    0.81
   5   3  -6    3.11    1.00
  -5  -3   6    1.69    1.39
  -5  -3   6    2.17    0.69
  -5  -3   6    2.07    0.84
   4   3  -6   21.79    1.53
   4   3  -6   23.99    1.53
  -4  -3   6   22.74    1.46
  -4  -3   6   22.92    1.53
  -4  -3   6   21.43    1.31
   3   3  -6    2.27    0.69
   3   3  -6    1.38    0.59
  -3  -3   6    1.02    0.51
  -3  -3   6    2.61    0.71
  -3  -3   6    1.49    0.63
   2   3  -6   15.57    1.14
   2   3  -6   15.42    1.11
  -2  -3   6   16.09    1.09
  -2  -3   6   16.53    0.98
   1   3  -6    6.28    0.79
   1   3  -6    6.03    0.86
  -1  -3   6    6.29    0.73
  -1  -3   6    5.37    0.79
   0   3  -6  111.50    2.64
   0   3  -6  109.35    2.84
   0   3  -6  115.30    2.72
   0  -3   6  110.54    2.69
   0  -3   6  116.62    2.67
  -1   3  -6  124.33    2.86
  -1   3  -6  121.88    2.81
  -1   3  -6  120.61    2.68
  -1   3  -6  121.27    2.70
  -1   3  -6  122.19    2.98
   1  -3   6  124.85    2.86
  -2   3  -6   14.30    0.99
  -2   3  -6   15.39    0.86
  -2   3  -6   14.51    0.85
  -2   3  -6   15.56    0.89
  -2   3  -6   15.30    0.94
  -2   3  -6   16.06    0.86
  -3   3  -6    3.80    0.56
  -3   3  -6    4.51    0.63
  -3   3  -6    4.95    0.75
  -3   3  -6    3.85    0.56
  -3   3  -6    4.32    0.62
  -3   3  -6    3.51    0.48
  -4   3  -6   20.35    1.15
  -4   3  -6   21.06    0.98
  -4   3  -6   21.64    1.04
  -4   3  -6   19.58    1.20
  -4   3  -6   20.37    1.10
  -5   3  -6    2.07    0.48
  -5   3  -6    1.91    0.53
  -5   3  -6    1.25    0.48
  -5   3  -6    1.39    0.59
  -6   3  -6   20.16    1.58
  -6   3  -6   21.23    1.22
  -6   3  -6   22.33    1.22
  -6   3  -6   22.93    1.43
  -7   3  -6   -0.74    0.77
  -7   3  -6    0.82    0.58
  -7   3  -6    0.09    0.56
  -7   3  -6    0.20    0.64
   7  -3   6    0.46    0.56
  -8   3  -6  110.36    3.02
  -8   3  -6  109.81    3.63
  -8   3  -6  112.92    3.25
  -8   3  -6  115.10    3.48
   8  -3   6  106.12    3.03
   8  -3   6  108.60    3.24
  -9   3  -6    1.41    0.87
  -9   3  -6    0.62    0.84
  -9   3  -6    2.09    0.89
   9  -3   6    1.40    0.80
   9  -3   6    0.30    1.00
 -10   3  -6    9.46    1.32
 -10   3  -6   11.43    1.93
 -10   3  -6    9.62    1.32
  10  -3   6   10.14    1.82
 -11   3  -6   -1.29    1.18
 -11   3  -6    0.23    1.18
  11  -3   6    0.36    1.21
   9   2  -6    2.07    1.66
  -9  -2   6   -0.08    1.28
   8   2  -6   44.04    2.83
  -8  -2   6   47.60    2.54
   7   2  -6   -0.19    0.94
  -7  -2   6    1.33    0.85
   6   2  -6    6.49    1.05
   6   2  -6    5.91    1.07
  -6  -2   6    5.76    1.01
  -6  -2   6    6.94    1.08
   5   2  -6    5.46    0.99
   5   2  -6    4.69    0.90
  -5  -2   6    4.68    0.83
  -5  -2   6    4.55    0.84
   4   2  -6   17.89    1.45
   4   2  -6   20.12    1.44
  -4  -2   6   19.80    1.19
  -4  -2   6   17.30    1.34
  -4  -2   6   19.47    1.35
   3   2  -6    8.16    1.05
   3   2  -6    6.74    0.98
  -3  -2   6    6.36    0.98
  -3  -2   6    5.69    0.77
  -3  -2   6    5.36    0.79
   2   2  -6   58.61    1.94
   2   2  -6   58.66    2.22
  -2  -2   6   63.05    1.99
  -2  -2   6   63.03    1.71
  -2  -2   6   59.74    1.88
   1   2  -6   62.92    1.92
   1   2  -6   65.32    1.87
  -1  -2   6   62.18    1.84
  -1  -2   6   58.79    2.29
  -1  -2   6   62.89    1.67
   0   2  -6  557.36   10.56
   0   2  -6  573.54   10.76
   0   2  -6  553.80   10.83
   0  -2   6  557.46   10.74
   0  -2   6  579.91   10.59
  -1   2  -6    9.97    0.65
  -1   2  -6   11.49    0.79
  -1   2  -6   10.91    0.76
  -1   2  -6   10.35    0.65
   1  -2   6   10.91    0.77
  -2   2  -6  302.10    5.97
  -2   2  -6  303.35    5.99
  -2   2  -6  295.61    5.90
  -2   2  -6  294.81    6.01
  -2   2  -6  303.10    6.12
  -3   2  -6   27.54    1.14
  -3   2  -6   26.95    1.17
  -3   2  -6   28.54    1.07
  -3   2  -6   28.45    1.11
  -4   2  -6  162.65    4.93
  -4   2  -6  174.43    3.73
  -4   2  -6  176.38    3.76
  -5   2  -6   11.25    1.08
  -5   2  -6   11.32    0.84
  -5   2  -6   11.35    0.82
  -5   2  -6   10.93    0.99
  -6   2  -6   52.58    1.66
  -6   2  -6   51.70    2.00
  -6   2  -6   54.98    1.80
  -6   2  -6   55.34    2.07
  -7   2  -6    4.87    0.82
  -7   2  -6    5.44    0.92
  -7   2  -6    4.97    0.74
  -7   2  -6    5.15    0.92
   7  -2   6    5.16    0.70
   7  -2   6    6.16    0.91
  -8   2  -6    2.23    0.82
  -8   2  -6    3.68    0.70
  -8   2  -6    2.88    0.96
   8  -2   6    3.05    0.88
   8  -2   6    3.18    0.71
  -9   2  -6    2.23    0.85
  -9   2  -6    2.36    0.83
  -9   2  -6    2.78    0.94
   9  -2   6    2.44    0.79
   9  -2   6    2.09    1.01
 -10   2  -6    2.29    0.94
 -10   2  -6   -1.39    0.88
 -10   2  -6    2.17    1.11
  10  -2   6    0.14    0.84
 -11   2  -6    3.71    1.21
 -11   2  -6    4.46    1.32
   9   1  -6   19.49    2.56
  -9  -1   6   22.35    2.43
   8   1  -6   23.51    2.39
  -8  -1   6   21.93    2.17
   7   1  -6    0.59    1.06
  -7  -1   6    1.79    1.01
  -7  -1   6    0.26    0.87
   6   1  -6    1.20    0.90
   6   1  -6    1.20    0.83
  -6  -1   6    0.88    0.73
  -6  -1   6    0.55    0.72
   5   1  -6    5.93    1.25
   5   1  -6    7.08    0.97
  -5  -1   6    6.14    0.92
  -5  -1   6    7.20    1.03
   4   1  -6   11.31    1.28
   4   1  -6   11.62    1.27
  -4  -1   6   10.94    1.13
  -4  -1   6    8.53    1.10
   3   1  -6   97.99    2.76
   3   1  -6  100.79    2.72
  -3  -1   6  100.94    2.73
  -3  -1   6   96.36    2.67
  -3  -1   6  100.22    2.41
   2   1  -6    2.86    0.51
  -2  -1   6    1.65    0.45
  -2  -1   6    3.41    0.58
  -2  -1   6    1.92    0.49
   1   1  -6  156.25    3.64
   1   1  -6  164.20    3.62
  -1  -1   6  161.47    3.31
  -1  -1   6  161.67    3.63
  -1  -1   6  158.86    3.60
   0   1  -6   10.53    0.58
   0   1  -6   10.02    0.79
   0   1  -6   10.09    0.76
   0   1  -6    8.98    0.55
   0  -1   6    9.01    0.55
   0  -1   6    9.78    0.57
   0  -1   6    8.97    0.77
   0  -1   6    9.13    0.72
  -1   1  -6  316.02    6.37
  -1   1  -6  319.32    6.14
  -1   1  -6  334.88    6.40
  -1   1  -6  321.04    6.20
   1  -1   6  323.15    6.39
   1  -1   6  317.83    6.22
  -2   1  -6  118.84    2.71
  -2   1  -6  118.02    2.67
  -2   1  -6  115.30    2.65
  -2   1  -6  116.51    2.62
  -3   1  -6   21.60    0.93
  -3   1  -6   22.46    1.02
  -3   1  -6   21.64    0.96
  -3   1  -6   22.89    0.96
  -3   1  -6   21.91    0.90
  -4   1  -6    7.44    0.62
  -4   1  -6    7.27    0.66
  -4   1  -6    7.18    0.80
  -5   1  -6   55.84    1.93
  -5   1  -6   56.71    1.71
  -5   1  -6   55.48    1.54
  -6   1  -6   11.29    0.94
  -6   1  -6   10.48    1.16
  -6   1  -6   10.96    0.78
  -7   1  -6   15.48    1.14
  -7   1  -6   16.82    1.44
  -7   1  -6   16.34    1.02
  -7   1  -6   14.30    1.30
   7  -1   6   14.38    0.97
   7  -1   6   15.59    1.23
  -8   1  -6   -0.04    0.57
  -8   1  -6    0.74    0.71
  -8   1  -6   -0.16    1.06
  -8   1  -6    0.35    0.66
   8  -1   6    0.14    0.50
   8  -1   6   -0.61    0.62
  -9   1  -6   45.52    2.60
  -9   1  -6   50.09    2.15
  -9   1  -6   46.18    2.23
   9  -1   6   45.75    1.75
   9  -1   6   45.53    2.27
 -10   1  -6    1.38    0.91
 -10   1  -6    0.01    0.85
 -11   1  -6   18.88    2.25
 -11   1  -6   17.94    1.96
   9   0  -6   12.33    1.76
  -9   0   6   15.36    2.16
   8   0  -6    5.92    1.30
  -8   0   6    5.93    1.21
   7   0  -6   51.49    2.59
  -7   0   6   48.19    2.34
  -7   0   6   50.76    2.53
   6   0  -6    1.59    0.89
   6   0  -6   -0.74    0.80
  -6   0   6   -0.41    0.64
  -6   0   6   -1.12    0.72
   5   0  -6   91.84    2.82
   5   0  -6   90.42    2.93
  -5   0   6   89.13    2.76
  -5   0   6   93.83    2.81
   4   0  -6    1.40    0.70
   4   0  -6    0.66    0.55
  -4   0   6   -0.13    0.48
  -4   0   6   -0.01    0.47
   3   0  -6  112.69    2.97
   3   0  -6  113.22    2.92
  -3   0   6  111.13    2.90
  -3   0   6  110.12    2.89
   2   0  -6    7.71    0.90
   2   0  -6    7.24    0.84
  -2   0   6    6.36    0.78
  -2   0   6    8.59    0.60
  -2   0   6    5.79    0.97
   1   0  -6   96.19    2.46
   1   0  -6   99.67    2.46
   1   0  -6   96.58    2.10
  -1   0   6   94.33    2.06
  -1   0   6   95.52    2.42
  -1   0   6   98.96    2.08
  -1   0   6   96.52    2.44
   0   0  -6   58.14    1.45
   0   0  -6   59.76    1.69
   0   0  -6   58.17    1.67
   0   0   6   58.20    1.67
   0   0   6   58.39    1.64
   0   0   6   57.44    1.34
   0   0   6   56.72    1.43
  -1   0  -6  238.06    4.81
  -1   0  -6  230.95    4.64
  -1   0  -6  233.15    4.74
  -1   0  -6  229.07    4.46
   1   0   6  240.22    4.75
   1   0   6  235.21    4.82
   1   0   6  235.72    4.67
  -2   0  -6   16.11    0.82
  -2   0  -6   15.14    0.77
  -2   0  -6   16.42    0.74
   2   0   6   15.07    0.80
  -3   0  -6   10.24    0.62
  -3   0  -6    8.74    0.66
  -3   0  -6    9.53    0.73
  -3   0  -6    9.69    0.71
  -3   0  -6    9.36    0.58
   3   0   6    9.08    0.75
  -4   0  -6   28.03    0.90
  -4   0  -6   27.80    1.20
  -4   0  -6   28.25    1.08
  -4   0  -6   28.27    0.92
  -5   0  -6    0.06    0.24
  -5   0  -6    0.12    0.44
  -5   0  -6    0.01    0.33
  -6   0  -6   10.97    0.92
  -6   0  -6   10.73    1.11
   6   0   6    9.32    0.95
  -7   0  -6    3.10    0.78
  -7   0  -6    2.66    0.57
   7   0   6    3.70    0.69
  -8   0  -6   51.82    2.29
  -8   0  -6   55.31    2.11
   8   0   6   52.95    2.07
  -9   0  -6   36.80    2.19
  -9   0  -6   37.67    2.24
  -9   0  -6   35.79    1.92
   9   0   6   37.19    2.08
 -10   0  -6   16.35    1.72
 -10   0  -6   13.16    1.68
 -11   0  -6   26.59    2.25
 -11   0  -6   23.87    2.08
 -12   0  -6   -0.37    1.58
   9  -1  -6   -1.67    1.08
  -9   1   6   -0.06    1.17
  -9   1   6   -1.24    1.12
   8  -1  -6   44.85    2.66
  -8   1   6   47.16    2.46
  -8   1   6   43.50    2.16
   7  -1  -6   15.89    1.98
  -7   1   6   11.54    1.40
  -7   1   6   16.21    1.67
  -7   1   6   10.48    1.85
   6  -1  -6   25.93    1.90
   6  -1  -6   27.14    1.95
  -6   1   6   28.40    1.82
  -6   1   6   24.82    1.66
  -6   1   6   25.96    1.45
   5  -1  -6    0.64    0.72
   5  -1  -6    0.07    0.65
   5  -1  -6    0.34    0.45
  -5   1   6    1.45    0.54
  -5   1   6    0.78    0.57
  -5   1   6   -0.05    0.62
   4  -1  -6   96.25    2.31
   4  -1  -6   97.14    2.76
   4  -1  -6   95.62    2.84
  -4   1   6   99.40    2.76
  -4   1   6   97.01    2.36
   3  -1  -6    0.51    0.45
   3  -1  -6    0.04    0.29
   3  -1  -6   -0.19    0.52
  -3   1   6    0.13    0.39
  -3   1   6    0.14    0.36
  -3   1   6    0.28    0.49
   2  -1  -6  197.98    4.38
   2  -1  -6  202.63    4.35
   2  -1  -6  196.42    3.97
  -2   1   6  192.92    4.31
  -2   1   6  197.97    3.98
  -2   1   6  199.25    4.32
   1  -1  -6   23.22    1.11
   1  -1  -6   24.08    0.92
   1  -1  -6   23.25    1.07
  -1   1   6   24.22    1.06
  -1   1   6   22.60    0.85
  -1   1   6   22.73    1.04
   0  -1  -6   91.23    2.24
   0  -1  -6   91.50    2.10
   0  -1  -6   90.33    2.25
   0   1   6   89.88    2.06
   0   1   6   90.34    2.20
  -1  -1  -6   47.93    1.44
  -1  -1  -6   49.62    1.39
  -1  -1  -6   47.93    1.38
   1   1   6   46.09    1.44
   1   1   6   49.82    1.38
   1   1   6   50.54    1.38
  -2  -1  -6   18.82    0.76
  -2  -1  -6   17.27    0.84
   2   1   6   17.53    0.84
   2   1   6   17.48    0.75
  -3  -1  -6   52.48    1.50
  -3  -1  -6   49.35    1.25
  -3  -1  -6   51.12    1.54
  -3  -1  -6   50.73    1.46
   3   1   6   50.81    1.56
  -4  -1  -6   10.03    0.84
  -4  -1  -6    9.32    0.69
   4   1   6    8.37    0.78
  -5  -1  -6    5.03    0.66
  -6  -1  -6   26.30    1.38
  -6  -1  -6   24.41    1.18
   6   1   6   26.04    1.23
  -7  -1  -6    0.50    0.56
  -7  -1  -6    1.90    0.59
   7   1   6    1.18    0.59
  -8  -1  -6   38.17    1.74
  -8  -1  -6   39.39    1.99
   8   1   6   35.25    1.77
  -9  -1  -6    1.27    0.72
  -9  -1  -6    1.94    0.93
  -9  -1  -6    1.56    0.72
   9   1   6    2.23    0.94
 -10  -1  -6   45.32    2.38
 -10  -1  -6   43.99    2.20
 -11  -1  -6   -0.27    0.93
 -11  -1  -6   -0.26    0.87
 -12  -1  -6   21.26    2.51
 -12  -1  -6   18.57    2.41
  -9   2   6    4.00    1.29
  -9   2   6    4.67    1.23
   8  -2  -6   25.98    2.21
  -8   2   6   21.70    1.98
  -8   2   6   22.02    1.99
   7  -2  -6    3.15    1.12
  -7   2   6    2.18    0.85
  -7   2   6    3.53    0.98
  -7   2   6    2.20    1.20
   6  -2  -6   81.97    2.38
   6  -2  -6   75.36    2.89
   6  -2  -6   77.63    2.77
  -6   2   6   77.36    2.66
  -6   2   6   81.08    2.40
  -6   2   6   77.94    2.79
   5  -2  -6    8.76    1.48
   5  -2  -6    9.59    0.96
   5  -2  -6    9.34    1.30
  -5   2   6    9.49    1.09
  -5   2   6    9.25    1.27
  -5   2   6   10.36    1.21
   4  -2  -6   20.72    1.07
   4  -2  -6   22.03    1.49
   4  -2  -6   22.10    1.39
  -4   2   6   22.37    1.17
  -4   2   6   21.70    1.36
  -4   2   6   20.36    1.24
   3  -2  -6   45.28    1.80
   3  -2  -6   46.76    1.44
   3  -2  -6   49.84    1.75
  -3   2   6   45.95    1.67
  -3   2   6   47.91    1.71
  -3   2   6   47.22    1.51
   2  -2  -6    0.56    0.40
   2  -2  -6    0.97    0.35
   2  -2  -6    0.62    0.48
  -2   2   6    0.17    0.40
  -2   2   6    0.69    0.37
  -2   2   6    1.14    0.41
   1  -2  -6   72.20    1.97
   1  -2  -6   71.77    1.99
   1  -2  -6   75.69    1.84
  -1   2   6   70.89    1.94
  -1   2   6   70.45    1.95
  -1   2   6   70.65    1.80
   0  -2  -6    6.88    0.74
   0  -2  -6    7.39    0.79
   0  -2  -6    5.12    0.64
   0   2   6    5.21    0.63
   0   2   6    4.22    0.59
   0   2   6    6.67    0.65
  -1  -2  -6  269.54    5.16
  -1  -2  -6  259.04    5.09
  -1  -2  -6  248.61    5.18
   1   2   6  266.33    5.08
   1   2   6  257.09    5.13
   1   2   6  248.41    5.20
  -2  -2  -6    2.94    0.45
  -2  -2  -6    3.42    0.45
   2   2   6    4.15    0.58
   2   2   6    4.49    0.47
  -3  -2  -6    9.85    0.69
  -3  -2  -6   10.42    0.76
   3   2   6   10.71    0.77
  -4  -2  -6    4.99    0.58
  -4  -2  -6    4.12    0.67
   4   2   6    5.08    0.69
  -5  -2  -6    9.84    0.77
  -5  -2  -6   10.63    1.09
   5   2   6    9.50    0.85
  -6  -2  -6   20.49    1.27
  -6  -2  -6   18.33    1.04
   6   2   6   16.60    1.04
  -7  -2  -6    1.48    0.65
  -7  -2  -6    1.20    0.46
   7   2   6    1.21    0.53
  -8  -2  -6   77.78    2.68
  -8  -2  -6   79.61    2.48
   8   2   6   79.99    2.51
  -9  -2  -6   53.81    2.50
  -9  -2  -6   53.36    2.17
   9   2   6   55.52    2.30
 -10  -2  -6   46.94    2.36
 -10  -2  -6   46.35    3.32
 -10  -2  -6   47.40    2.26
 -11  -2  -6   17.63    1.99
 -11  -2  -6   15.87    1.95
 -12  -2  -6   18.85    2.30
 -12  -2  -6   18.22    2.38
   9  -3  -6   40.50    2.59
  -9   3   6   28.95    2.56
  -9   3   6   32.35    2.92
   8  -3  -6    0.57    1.05
  -8   3   6    1.18    0.96
  -7   3   6  105.92    3.20
  -7   3   6  110.33    3.44
  -7   3   6  112.28    3.77
   6  -3  -6   13.93    1.36
   6  -3  -6    9.45    1.57
   6  -3  -6   11.31    1.67
  -6   3   6   13.43    1.38
  -6   3   6   10.40    1.62
  -6   3   6   10.93    1.40
   5  -3  -6   65.18    2.50
   5  -3  -6   71.81    2.40
   5  -3  -6   68.80    2.16
  -5   3   6   68.68    2.33
  -5   3   6   70.17    2.46
  -5   3   6   68.67    2.17
   4  -3  -6   -0.09    0.62
   4  -3  -6    0.14    0.51
   4  -3  -6    0.34    0.44
  -4   3   6    0.46    0.50
  -4   3   6    0.52    0.58
  -4   3   6    0.05    0.51
   3  -3  -6   15.90    1.12
   3  -3  -6   14.36    1.22
   3  -3  -6   13.99    0.92
  -3   3   6   13.72    1.10
  -3   3   6   14.04    1.02
  -3   3   6   13.15    1.02
   2  -3  -6   20.85    1.08
   2  -3  -6   22.05    1.01
   2  -3  -6   19.75    1.20
  -2   3   6   21.59    1.09
  -2   3   6   20.63    1.03
  -2   3   6   21.02    1.13
   1  -3  -6   -0.10    0.32
   1  -3  -6    0.82    0.48
   1  -3  -6    0.48    0.35
  -1   3   6    0.11    0.36
  -1   3   6    0.32    0.38
  -1   3   6    0.40    0.33
   0  -3  -6   16.42    0.98
   0  -3  -6   15.15    0.84
   0  -3  -6   15.74    0.93
   0   3   6   14.19    0.86
   0   3   6   15.10    0.85
   0   3   6   15.29    0.83
  -1  -3  -6   34.42    1.18
  -1  -3  -6   37.32    1.23
  -1  -3  -6   37.04    1.29
   1   3   6   34.83    1.19
   1   3   6   36.16    1.14
   1   3   6   35.04    1.21
  -2  -3  -6   34.61    1.05
  -2  -3  -6   30.66    1.10
  -2  -3  -6   30.90    1.18
   2   3   6   30.91    1.14
   2   3   6   34.04    0.96
  -3  -3  -6   11.87    0.72
  -3  -3  -6   11.86    0.82
   3   3   6   11.43    0.80
  -4  -3  -6   18.53    0.87
  -4  -3  -6   19.05    0.99
   4   3   6   18.97    0.99
  -5  -3  -6   45.51    1.49
  -5  -3  -6   48.49    1.71
   5   3   6   45.86    1.63
  -6  -3  -6   37.26    1.43
  -6  -3  -6   36.70    1.56
   6   3   6   39.14    1.45
   6   3   6   38.59    1.56
  -7  -3  -6   95.01    2.66
  -7  -3  -6  100.43    2.86
   7   3   6  101.67    2.71
  -8  -3  -6    1.48    0.72
  -8  -3  -6    2.64    0.66
   8   3   6    1.50    0.65
  -9  -3  -6   96.11    3.17
  -9  -3  -6   95.73    2.92
   9   3   6   89.57    2.92
 -10  -3  -6    8.34    1.51
 -10  -3  -6   10.85    1.54
 -10  -3  -6   10.51    1.71
 -11  -3  -6   12.58    1.78
 -11  -3  -6   15.89    2.00
 -12  -3  -6    2.28    1.15
 -12  -3  -6    2.21    1.74
   9  -4  -6   18.77    2.27
  -9   4   6   19.37    2.30
   8  -4  -6   18.71    2.01
  -8   4   6   17.88    2.01
  -8   4   6   18.68    2.01
   7  -4  -6   24.19    1.94
   7  -4  -6   23.36    1.89
  -7   4   6   24.19    1.85
  -7   4   6   22.68    1.83
   6  -4  -6   50.18    2.29
   6  -4  -6   49.56    2.07
   6  -4  -6   46.04    2.24
  -6   4   6   47.40    2.13
  -6   4   6   49.02    2.37
  -6   4   6   49.18    2.14
   5  -4  -6   19.23    1.37
   5  -4  -6   16.01    1.50
   5  -4  -6   18.68    1.48
  -5   4   6   16.09    1.57
  -5   4   6   17.76    1.37
  -5   4   6   19.91    1.43
   4  -4  -6    5.64    0.78
   4  -4  -6    3.87    0.70
   4  -4  -6    5.47    0.72
  -4   4   6    6.64    0.96
  -4   4   6    5.11    0.79
  -4   4   6    6.50    1.08
   3  -4  -6    0.41    0.40
   3  -4  -6   -0.59    0.46
   3  -4  -6   -0.22    0.51
  -3   4   6   -0.37    0.51
  -3   4   6    0.64    0.49
  -3   4   6    0.39    0.41
   2  -4  -6   61.97    1.87
   2  -4  -6   58.78    1.95
   2  -4  -6   62.49    1.82
  -2   4   6   61.04    1.83
  -2   4   6   60.48    1.85
   1  -4  -6    2.07    0.44
   1  -4  -6    2.03    0.45
   1  -4  -6    1.97    0.51
  -1   4   6    2.58    0.52
  -1   4   6    2.29    0.51
  -1   4   6    2.19    0.41
   0  -4  -6  110.06    2.60
   0  -4  -6  111.07    2.62
   0  -4  -6  105.84    2.53
   0   4   6  108.08    2.61
   0   4   6  105.59    2.54
   0   4   6  106.16    2.53
  -1  -4  -6   10.13    0.70
  -1  -4  -6    8.98    0.78
  -1  -4  -6   10.29    0.90
   1   4   6    9.67    0.67
   1   4   6    8.28    0.76
   1   4   6   10.49    0.74
  -2  -4  -6   43.40    1.46
  -2  -4  -6   41.73    1.22
  -2  -4  -6   42.92    1.31
   2   4   6   43.23    1.43
   2   4   6   46.64    1.21
  -3  -4  -6   66.08    1.73
  -3  -4  -6   67.53    1.87
   3   4   6   64.86    1.85
  -4  -4  -6    7.25    0.77
  -4  -4  -6    6.69    0.63
  -5  -4  -6   84.14    2.19
  -5  -4  -6   86.15    2.66
   5   4   6   83.91    2.36
  -6  -4  -6   22.05    1.26
  -6  -4  -6   20.71    1.12
   6   4   6   20.73    1.11
   6   4   6   21.75    1.22
  -7  -4  -6   48.90    1.80
  -7  -4  -6   51.76    1.96
   7   4   6   52.06    1.83
   7   4   6   52.86    2.15
  -8  -4  -6   27.52    1.57
  -8  -4  -6   31.53    1.73
   8   4   6   31.49    1.60
  -9  -4  -6   21.55    1.56
  -9  -4  -6   20.12    1.78
   9   4   6   19.19    1.62
 -10  -4  -6   39.11    2.13
 -10  -4  -6   42.29    2.53
 -11  -4  -6    1.30    0.98
 -11  -4  -6    1.45    0.93
 -12  -4  -6   14.30    2.30
 -12  -4  -6   11.40    1.74
   9  -5  -6    3.15    1.28
  -9   5   6    2.70    1.30
  -9   5   6   -0.52    1.33
   8  -5  -6   16.04    1.95
  -8   5   6   13.17    2.05
  -8   5   6    9.70    1.40
   7  -5  -6    1.34    0.90
   7  -5  -6    1.99    1.08
  -7   5   6    0.09    0.81
  -7   5   6    2.14    0.93
   6  -5  -6   74.29    2.60
   6  -5  -6   67.19    2.65
   6  -5  -6   73.13    2.73
  -6   5   6   66.32    3.00
  -6   5   6   69.90    2.54
  -6   5   6   70.55    2.82
   5  -5  -6    4.27    0.79
   5  -5  -6    4.86    0.84
  -5   5   6    4.10    0.82
  -5   5   6    3.87    0.95
  -5   5   6    5.00    0.85
   4  -5  -6   18.75    1.45
   4  -5  -6   18.91    1.34
   4  -5  -6   19.96    1.33
  -4   5   6   20.23    1.41
  -4   5   6   19.23    1.22
  -4   5   6   20.40    1.44
   3  -5  -6   15.46    1.17
   3  -5  -6   16.92    1.17
   3  -5  -6   15.59    1.21
  -3   5   6   16.55    1.08
  -3   5   6   19.11    1.29
  -3   5   6   15.83    1.30
   2  -5  -6   12.79    0.94
   2  -5  -6   10.19    0.99
   2  -5  -6   11.92    0.94
  -2   5   6   11.36    0.86
  -2   5   6   11.92    1.05
  -2   5   6   12.23    1.06
   1  -5  -6   10.30    0.78
   1  -5  -6    9.07    0.88
   1  -5  -6   11.77    0.90
  -1   5   6   11.74    0.99
  -1   5   6    9.63    0.96
  -1   5   6    9.48    0.54
  -1   5   6    9.29    0.75
   0  -5  -6   71.03    1.88
   0  -5  -6   73.78    2.06
   0  -5  -6   71.44    1.96
   0   5   6   69.31    1.86
   0   5   6   69.52    2.02
   0   5   6   73.60    1.99
  -1  -5  -6    0.11    0.40
  -1  -5  -6    0.19    0.17
  -1  -5  -6   -0.24    0.29
   1   5   6   -0.27    0.35
   1   5   6    0.11    0.28
   1   5   6    0.54    0.39
  -2  -5  -6   97.03    2.07
  -2  -5  -6   98.91    2.48
  -2  -5  -6   96.70    2.29
  -2  -5  -6   95.76    2.20
   2   5   6  100.74    2.23
   2   5   6   96.02    2.45
  -3  -5  -6   13.42    0.75
  -3  -5  -6   13.55    0.94
  -3  -5  -6   13.64    0.78
   3   5   6   12.35    0.87
   3   5   6   14.37    0.68
  -4  -5  -6  356.75    6.92
  -4  -5  -6  332.73    6.69
   4   5   6  336.32    6.91
  -5  -5  -6    0.21    0.33
   5   5   6   -0.15    0.35
  -6  -5  -6   45.35    1.77
  -6  -5  -6   45.29    1.60
   6   5   6   47.55    1.61
   6   5   6   45.52    1.72
  -7  -5  -6   32.67    1.57
  -7  -5  -6   31.87    1.48
   7   5   6   33.84    1.49
   7   5   6   29.85    1.53
  -8  -5  -6   36.27    1.72
  -8  -5  -6   35.90    2.14
   8   5   6   36.12    1.72
  -9  -5  -6   26.17    1.90
  -9  -5  -6   23.15    1.65
   9   5   6   23.26    1.72
 -10  -5  -6   12.38    1.48
 -10  -5  -6   11.38    1.59
 -11  -5  -6    1.09    0.97
 -12  -5  -6   14.66    2.46
 -12  -5  -6   10.09    1.52
   8  -6  -6   11.21    1.98
  -8   6   6    6.76    1.25
  -8   6   6    3.33    1.23
   7  -6  -6   17.49    2.30
   7  -6  -6   15.30    1.75
  -7   6   6   13.23    1.89
  -7   6   6   13.22    1.82
   6  -6  -6   38.35    2.15
   6  -6  -6   32.35    1.96
   6  -6  -6   32.71    2.11
  -6   6   6   29.62    1.96
  -6   6   6   33.98    1.93
  -6   6   6   29.96    2.23
   5  -6  -6    9.10    1.37
   5  -6  -6    8.79    1.41
   5  -6  -6    8.68    1.04
  -5   6   6    6.94    1.08
  -5   6   6    8.57    1.44
  -5   6   6    7.68    1.25
   4  -6  -6   28.61    1.62
   4  -6  -6   27.30    1.52
  -4   6   6   28.26    1.48
  -4   6   6   27.20    1.63
  -4   6   6   30.71    1.74
   3  -6  -6    6.98    1.07
   3  -6  -6    7.52    1.07
   3  -6  -6   10.21    1.07
  -3   6   6   10.61    1.28
  -3   6   6    7.49    0.87
  -3   6   6    8.61    1.16
   2  -6  -6    4.35    0.67
   2  -6  -6    2.83    0.57
   2  -6  -6    4.53    0.61
  -2   6   6    3.97    0.70
  -2   6   6    3.72    0.53
  -2   6   6    4.45    0.76
   1  -6  -6   54.33    2.48
   1  -6  -6   60.94    1.90
   1  -6  -6   61.47    1.75
  -1   6   6   61.99    1.53
  -1   6   6   61.75    2.24
  -1   6   6   62.91    2.01
  -1   6   6   60.13    1.73
   0  -6  -6   40.61    1.42
   0  -6  -6   42.96    1.55
   0  -6  -6   41.22    1.33
   0   6   6   40.39    1.55
   0   6   6   40.70    1.29
   0   6   6   40.45    1.14
   0   6   6   43.51    1.54
  -1  -6  -6   68.33    1.60
  -1  -6  -6   68.03    1.76
  -1  -6  -6   67.64    1.83
   1   6   6   65.71    1.98
   1   6   6   68.55    1.89
   1   6   6   67.62    1.74
  -2  -6  -6    2.53    0.33
  -2  -6  -6    2.32    0.40
  -2  -6  -6    3.05    0.54
  -2  -6  -6    2.37    0.38
   2   6   6    2.30    0.47
   2   6   6    2.74    0.46
  -3  -6  -6  168.79    3.48
  -3  -6  -6  162.17    3.40
  -3  -6  -6  168.94    3.80
  -3  -6  -6  166.96    3.55
  -3  -6  -6  168.04    3.52
   3   6   6  166.86    3.41
   3   6   6  163.36    3.78
  -4  -6  -6  159.05    3.65
  -4  -6  -6  154.73    3.37
   4   6   6  149.56    3.58
  -5  -6  -6   18.00    0.96
  -5  -6  -6   16.38    1.12
   5   6   6   16.19    1.09
  -6  -6  -6   17.19    1.26
  -6  -6  -6   17.59    1.09
   6   6   6   18.06    1.09
   6   6   6   17.54    1.14
  -7  -6  -6   37.03    1.59
  -7  -6  -6   38.17    1.75
   7   6   6   36.22    1.69
   7   6   6   35.49    1.56
  -8  -6  -6    0.87    0.76
  -8  -6  -6    0.40    0.62
   8   6   6    0.24    0.66
   8   6   6   -0.81    0.59
  -9  -6  -6   35.38    1.89
  -9  -6  -6   32.55    2.08
   9   6   6   33.60    1.93
 -10  -6  -6    4.83    1.22
 -10  -6  -6    2.52    0.98
 -11  -6  -6   13.09    2.43
 -12  -6  -6   -1.69    1.25
 -12  -6  -6   -0.28    1.21
   8  -7  -6   -0.56    1.13
  -8   7   6   -0.07    1.08
   7  -7  -6   15.16    1.85
  -7   7   6   14.10    1.87
  -7   7   6    9.50    1.41
   6  -7  -6    0.32    0.93
   6  -7  -6    1.41    1.02
   6  -7  -6    0.34    1.01
  -6   7   6    0.71    0.76
  -6   7   6    0.47    0.94
   5  -7  -6   58.24    2.41
   5  -7  -6   60.30    2.52
   5  -7  -6   62.99    2.37
  -5   7   6   59.20    2.57
  -5   7   6   63.94    2.33
  -5   7   6   60.89    2.55
   4  -7  -6    4.29    0.86
   4  -7  -6    6.51    0.84
   4  -7  -6    5.19    0.99
  -4   7   6    5.47    0.94
  -4   7   6    5.30    0.90
  -4   7   6    5.74    0.82
   3  -7  -6   50.19    1.78
   3  -7  -6   45.94    1.93
   3  -7  -6   47.37    1.95
  -3   7   6   48.26    1.71
  -3   7   6   49.32    2.12
  -3   7   6   48.87    2.02
   2  -7  -6    1.74    0.47
   2  -7  -6    0.68    0.50
   2  -7  -6    1.35    0.54
  -2   7   6    1.60    0.66
  -2   7   6    0.96    0.42
  -2   7   6    2.09    0.70
  -2   7   6    1.32    0.39
   1  -7  -6  124.33    3.15
   1  -7  -6  117.86    3.06
   1  -7  -6  121.77    2.81
  -1   7   6  119.82    3.17
  -1   7   6  123.82    3.15
  -1   7   6  120.79    2.81
  -1   7   6  121.25    2.72
   0  -7  -6    1.67    0.40
   0  -7  -6    1.80    0.50
   0  -7  -6    1.83    0.59
   0   7   6    1.42    0.34
   0   7   6    1.99    0.58
   0   7   6    1.41    0.35
   0   7   6    1.56    0.50
  -1  -7  -6  104.12    2.36
  -1  -7  -6  107.14    2.61
  -1  -7  -6  101.84    2.41
   1   7   6  101.49    2.74
   1   7   6  105.14    2.39
   1   7   6  108.63    2.62
  -2  -7  -6   27.37    1.02
  -2  -7  -6   27.66    1.61
  -2  -7  -6   29.65    1.11
  -2  -7  -6   28.56    1.01
   2   7   6   28.64    1.15
   2   7   6   26.55    1.30
  -3  -7  -6  122.22    2.73
  -3  -7  -6  122.41    2.74
  -3  -7  -6  123.51    2.75
  -3  -7  -6  121.84    2.72
  -3  -7  -6  108.85    3.85
   3   7   6  121.42    3.03
   3   7   6  124.42    2.72
  -4  -7  -6   10.54    0.65
  -4  -7  -6    9.73    0.77
  -4  -7  -6   10.57    1.10
  -4  -7  -6   11.79    0.84
   4   7   6    9.24    0.67
   4   7   6    9.91    0.94
  -5  -7  -6   34.34    1.29
  -5  -7  -6   31.02    1.51
   5   7   6   31.85    1.44
  -6  -7  -6   -0.09    0.43
  -6  -7  -6   -0.20    0.60
   6   7   6   -0.46    0.49
   6   7   6   -0.34    0.42
  -7  -7  -6    0.96    0.56
  -7  -7  -6    1.01    0.66
   7   7   6    1.20    0.67
   7   7   6    1.07    0.54
  -8  -7  -6    6.05    0.94
  -8  -7  -6    5.57    0.93
   8   7   6    5.35    0.90
   8   7   6    5.06    0.84
  -9  -7  -6    6.71    1.02
  -9  -7  -6    7.82    1.20
   9   7   6    7.33    1.11
 -10  -7  -6    2.26    1.15
 -10  -7  -6    1.17    0.91
 -11  -7  -6   16.72    2.15
   8  -8  -6    0.19    1.19
  -8   8   6   -0.75    1.20
  -8   8   6    0.13    1.31
   7  -8  -6    6.81    1.75
  -7   8   6    3.94    1.11
  -7   8   6    5.59    1.27
   6  -8  -6    0.48    1.03
   6  -8  -6    2.83    0.94
  -6   8   6    1.67    0.85
  -6   8   6    2.68    0.98
   5  -8  -6    5.60    1.01
   5  -8  -6    5.07    1.23
   5  -8  -6    9.67    1.47
  -5   8   6    7.85    1.06
  -5   8   6    4.19    1.14
  -5   8   6    5.58    1.00
   4  -8  -6   18.01    1.65
   4  -8  -6   16.08    1.41
   4  -8  -6   15.89    1.49
  -4   8   6   11.82    2.03
  -4   8   6   16.23    1.84
  -4   8   6   16.97    1.25
   3  -8  -6    5.98    0.80
   3  -8  -6    6.78    0.98
   3  -8  -6    6.69    0.95
  -3   8   6    6.69    0.94
  -3   8   6    5.69    0.99
  -3   8   6    6.29    1.00
   2  -8  -6    7.58    0.93
   2  -8  -6    7.07    1.13
   2  -8  -6    8.68    1.08
  -2   8   6    8.87    0.84
  -2   8   6    7.09    0.83
  -2   8   6    6.86    0.92
  -2   8   6    9.56    1.30
   1  -8  -6    4.84    0.72
   1  -8  -6    4.28    0.65
   1  -8  -6    5.65    0.77
  -1   8   6    5.05    0.77
  -1   8   6    4.60    0.66
  -1   8   6    5.29    0.74
  -1   8   6    4.20    0.76
   0  -8  -6  144.97    3.51
   0  -8  -6  145.01    3.59
   0  -8  -6  140.02    3.11
   0   8   6  141.48    3.47
   0   8   6  145.30    3.21
   0   8   6  145.69    3.11
   0   8   6  139.07    3.59
  -1  -8  -6   17.03    0.85
  -1  -8  -6   17.46    1.23
  -1  -8  -6   17.68    1.05
   1   8   6   16.26    1.22
   1   8   6   16.91    0.92
   1   8   6   17.69    1.11
  -2  -8  -6  114.81    2.81
  -2  -8  -6  120.17    3.09
  -2  -8  -6  116.25    2.60
  -2  -8  -6  116.79    2.56
  -2  -8  -6  112.37    2.67
   2   8   6  112.74    3.01
   2   8   6  118.25    2.81
  -3  -8  -6    1.94    0.44
  -3  -8  -6    1.24    0.37
  -3  -8  -6    1.47    0.40
  -3  -8  -6    1.77    0.61
  -3  -8  -6    1.68    0.37
   3   8   6    1.36    0.42
   3   8   6    1.27    0.48
  -4  -8  -6  130.51    3.20
  -4  -8  -6  125.12    2.86
  -4  -8  -6  123.67    2.84
  -4  -8  -6  126.18    3.26
   4   8   6  127.06    3.24
   4   8   6  123.81    2.81
  -5  -8  -6   52.08    1.81
  -5  -8  -6   51.76    1.64
  -5  -8  -6   49.96    1.95
   5   8   6   50.86    1.85
  -6  -8  -6   11.67    1.30
  -6  -8  -6   11.24    1.01
   6   8   6    9.80    1.14
  -7  -8  -6    1.96    0.67
  -7  -8  -6    3.45    0.83
   7   8   6    1.67    0.65
   7   8   6    1.86    0.65
  -8  -8  -6   10.23    1.57
  -8  -8  -6   12.03    1.50
   8   8   6   12.81    1.37
   8   8   6   10.56    1.42
  -9  -8  -6    2.51    0.96
   9   8   6    0.71    0.85
   9   8   6    1.52    0.90
 -10  -8  -6   27.73    2.40
 -10  -8  -6   18.97    1.97
 -11  -8  -6    1.49    1.16
   7  -9  -6    1.90    1.13
  -7   9   6    0.68    1.10
  -7   9   6    1.54    1.12
   6  -9  -6   24.56    2.02
   6  -9  -6   20.58    2.18
  -6   9   6   22.41    2.19
  -6   9   6   25.22    1.93
   5  -9  -6   20.06    1.78
   5  -9  -6   16.88    1.79
  -5   9   6   18.93    1.96
  -5   9   6   20.17    1.59
   4  -9  -6  108.72    3.51
   4  -9  -6  103.52    3.37
   4  -9  -6  110.73    3.00
  -4   9   6  109.24    3.47
  -4   9   6  107.16    3.56
  -4   9   6  110.17    2.96
   3  -9  -6    0.36    0.62
   3  -9  -6    0.87    0.71
   3  -9  -6    0.23    0.77
  -3   9   6    0.70    0.51
  -3   9   6    0.45    0.76
  -3   9   6    1.21    0.87
  -3   9   6    1.00    0.52
   2  -9  -6   53.37    1.68
   2  -9  -6   50.27    2.14
   2  -9  -6   50.60    2.11
  -2   9   6   51.11    1.63
  -2   9   6   51.57    2.23
  -2   9   6   51.39    1.77
  -2   9   6   54.42    2.21
   1  -9  -6   10.84    1.22
   1  -9  -6    9.75    0.87
   1  -9  -6   10.89    1.12
  -1   9   6   10.19    0.76
  -1   9   6    9.78    1.37
  -1   9   6   10.20    0.94
  -1   9   6    9.97    1.29
   0  -9  -6   51.51    1.92
   0  -9  -6   52.35    1.51
   0  -9  -6   51.86    2.06
   0   9   6   54.13    1.98
   0   9   6   52.07    2.09
   0   9   6   54.95    1.72
   0   9   6   53.52    1.45
  -1  -9  -6    7.71    1.01
  -1  -9  -6    7.92    1.16
  -1  -9  -6    7.94    0.73
   1   9   6    6.96    1.18
   1   9   6    6.96    0.99
   1   9   6    9.00    0.88
  -2  -9  -6   18.08    1.01
  -2  -9  -6   18.46    1.39
  -2  -9  -6   17.96    0.86
  -2  -9  -6   17.94    0.78
  -2  -9  -6   15.10    1.05
   2   9   6   16.30    1.11
   2   9   6   15.94    1.24
  -3  -9  -6   11.85    0.94
  -3  -9  -6   12.33    1.31
  -3  -9  -6   13.36    0.76
  -3  -9  -6   13.24    0.81
   3   9   6   11.95    0.94
   3   9   6   11.77    1.12
  -4  -9  -6    1.14    0.50
  -4  -9  -6    1.55    0.47
  -4  -9  -6    1.29    0.44
  -4  -9  -6    1.37    0.67
   4   9   6    0.57    0.44
   4   9   6    1.61    0.59
  -5  -9  -6   36.73    1.60
  -5  -9  -6   35.71    1.81
  -5  -9  -6   34.46    1.35
   5   9   6   35.22    1.63
   5   9   6   34.85    1.30
  -6  -9  -6    1.56    0.74
  -6  -9  -6    1.35    0.61
  -6  -9  -6    2.19    0.71
   6   9   6    1.50    0.44
   6   9   6    2.20    0.45
   6   9   6    1.26    0.63
  -7  -9  -6    1.78    0.86
  -7  -9  -6    2.12    0.68
  -7  -9  -6    1.25    0.76
   7   9   6    0.31    0.66
   7   9   6    1.38    0.71
  -8  -9  -6    1.35    0.83
  -8  -9  -6   -0.36    0.90
   8   9   6   -0.18    0.77
   8   9   6    1.44    0.80
  -9  -9  -6    3.01    1.04
  -9  -9  -6    0.82    0.90
   9   9   6   -0.01    0.81
   9   9   6   -0.10    0.92
 -10  -9  -6   26.41    2.11
 -10  -9  -6   31.28    2.76
 -11  -9  -6   15.68    2.19
   7 -10  -6    0.39    1.30
  -7  10   6   -0.02    1.50
  -7  10   6    1.40    1.18
   6 -10  -6    0.82    1.24
   6 -10  -6    0.74    0.96
  -6  10   6    1.54    1.15
  -6  10   6    1.92    1.00
   5 -10  -6   54.79    2.35
   5 -10  -6   49.72    2.59
  -5  10   6   52.51    2.69
  -5  10   6   55.67    2.34
  -5  10   6   51.52    2.21
   4 -10  -6    1.87    0.95
   4 -10  -6    1.46    0.80
  -4  10   6    3.23    0.79
  -4  10   6    4.04    0.79
  -4  10   6    2.05    0.97
   3 -10  -6   49.64    2.27
   3 -10  -6   49.46    2.42
  -3  10   6   48.87    1.72
  -3  10   6   52.18    2.55
  -3  10   6   53.43    2.47
  -3  10   6   50.50    2.03
   2 -10  -6    7.78    1.16
   2 -10  -6    7.99    0.95
   2 -10  -6    8.73    1.48
  -2  10   6    9.00    1.20
  -2  10   6    9.08    0.85
  -2  10   6    8.24    1.44
  -2  10   6    8.57    1.09
   1 -10  -6   58.06    2.29
   1 -10  -6   57.53    2.28
   1 -10  -6   59.56    1.67
  -1  10   6   60.62    2.00
  -1  10   6   60.51    2.44
  -1  10   6   59.22    2.32
  -1  10   6   60.19    1.64
   0 -10  -6    0.75    0.52
   0 -10  -6    1.31    0.71
   0 -10  -6    1.25    0.38
   0  10   6    1.10    0.68
   0  10   6    1.47    0.81
   0  10   6    1.50    0.51
  -1 -10  -6   70.21    1.74
  -1 -10  -6   68.13    1.70
  -1 -10  -6   69.71    2.31
  -1 -10  -6   70.40    2.43
   1  10   6   73.62    2.18
   1  10   6   71.08    2.49
   1  10   6   72.75    2.31
  -2 -10  -6   18.36    1.45
  -2 -10  -6   15.12    1.17
  -2 -10  -6   17.16    0.87
  -2 -10  -6   15.22    0.78
  -2 -10  -6   16.32    1.12
   2  10   6   13.95    1.33
   2  10   6   16.59    1.22
  -3 -10  -6   13.03    1.08
  -3 -10  -6   13.53    0.79
  -3 -10  -6   14.37    0.85
  -3 -10  -6   14.28    1.15
  -3 -10  -6   13.90    1.45
   3  10   6   12.76    1.24
   3  10   6   13.67    1.10
  -4 -10  -6    0.74    0.48
  -4 -10  -6    1.03    0.76
  -4 -10  -6    1.56    0.56
  -4 -10  -6    0.49    0.43
  -4 -10  -6    0.89    0.45
   4  10   6    0.38    0.52
   4  10   6    0.79    0.59
  -5 -10  -6   49.72    1.95
  -5 -10  -6   51.23    2.18
  -5 -10  -6   49.35    1.64
   5  10   6   49.46    1.70
   5  10   6   48.21    2.00
  -6 -10  -6   52.62    2.25
  -6 -10  -6   51.25    1.80
  -6 -10  -6   51.32    2.14
   6  10   6   53.13    1.73
   6  10   6   49.37    1.70
   6  10   6   54.82    2.14
  -7 -10  -6   17.46    1.70
  -7 -10  -6   18.99    1.74
  -7 -10  -6   14.92    1.40
   7  10   6   18.84    1.15
   7  10   6   19.72    1.61
  -8 -10  -6    2.38    1.02
  -8 -10  -6    1.11    1.42
   8  10   6    2.59    1.64
   8  10   6    0.21    0.82
  -9 -10  -6   14.50    2.27
  -9 -10  -6   14.43    1.84
   9  10   6   13.83    2.05
   9  10   6   15.99    1.80
 -10 -10  -6    0.85    1.55
 -10 -10  -6    0.09    1.03
   6 -11  -6    9.96    1.66
   6 -11  -6    9.82    1.62
  -6  11   6   10.11    1.30
  -6  11   6    7.06    1.24
   5 -11  -6   32.80    2.11
   5 -11  -6   31.11    2.30
  -5  11   6   32.76    1.96
  -5  11   6   25.17    2.47
  -5  11   6   36.38    2.11
   4 -11  -6   10.64    1.47
   4 -11  -6    9.32    1.43
  -4  11   6    8.62    1.47
  -4  11   6    9.12    1.26
  -4  11   6   11.30    1.96
   3 -11  -6   64.12    2.73
   3 -11  -6   62.22    2.00
  -3  11   6   61.88    2.32
  -3  11   6   64.70    1.91
   2 -11  -6    0.80    0.81
   2 -11  -6    1.30    0.53
   2 -11  -6    0.75    0.96
  -2  11   6    0.94    0.86
  -2  11   6    0.19    0.81
  -2  11   6    0.61    0.44
  -2  11   6    0.89    0.64
   1 -11  -6    4.55    0.84
   1 -11  -6    5.86    1.08
   1 -11  -6    5.02    0.79
  -1  11   6    7.40    1.14
  -1  11   6    5.81    1.02
  -1  11   6    5.89    0.97
   0 -11  -6    0.37    0.64
   0 -11  -6    0.41    0.66
   0  11   6    0.34    0.57
   0  11   6    1.35    0.73
  -1 -11  -6   -0.05    0.57
  -1 -11  -6   -0.85    0.66
   1  11   6   -0.22    0.74
   1  11   6    0.24    0.53
   1  11   6    0.34    0.68
  -2 -11  -6    4.73    0.93
  -2 -11  -6    2.78    0.76
  -2 -11  -6    4.05    0.71
   2  11   6    4.16    0.73
   2  11   6    3.40    0.82
  -3 -11  -6    5.96    0.75
  -3 -11  -6    5.75    0.66
  -3 -11  -6    6.38    0.93
  -3 -11  -6    6.77    0.76
  -3 -11  -6    5.93    0.84
   3  11   6    6.33    1.11
   3  11   6    9.15    1.29
  -4 -11  -6    3.16    0.72
  -4 -11  -6    2.97    0.56
  -4 -11  -6    3.27    0.94
  -4 -11  -6    3.49    0.71
  -4 -11  -6    3.53    0.52
   4  11   6    2.47    0.76
   4  11   6    3.16    0.69
  -5 -11  -6   31.48    1.33
  -5 -11  -6   31.64    1.77
  -5 -11  -6   27.10    1.89
   5  11   6   30.44    1.54
   5  11   6   32.83    1.78
  -6 -11  -6   -1.25    0.56
  -6 -11  -6   -1.12    0.86
  -6 -11  -6    0.18    0.76
   6  11   6   -0.02    0.62
   6  11   6   -0.02    0.71
   6  11   6    1.57    0.72
  -7 -11  -6   18.59    2.08
  -7 -11  -6   16.74    1.92
  -7 -11  -6   20.41    1.51
   7  11   6   18.01    1.74
   7  11   6   16.78    1.34
   7  11   6   16.94    1.71
  -8 -11  -6   13.42    2.20
   8  11   6   15.10    1.79
  -9 -11  -6   23.22    2.06
  -9 -11  -6   25.84    2.65
   9  11   6   21.84    2.28
   9  11   6   25.32    2.12
 -10 -11  -6   19.03    2.24
   5 -12  -6    0.82    1.09
  -5  12   6    0.50    0.89
  -5  12   6    2.09    1.00
  -5  12   6    1.64    1.29
   4 -12  -6   49.20    2.64
   4 -12  -6   44.67    2.04
  -4  12   6   46.63    2.75
  -4  12   6   45.50    2.30
  -4  12   6   43.65    1.78
   3 -12  -6   19.99    1.98
   3 -12  -6   18.10    1.35
  -3  12   6   21.24    2.20
  -3  12   6   21.42    1.19
  -3  12   6   24.13    1.77
   2 -12  -6   28.79    1.99
  -2  12   6   24.58    2.11
   1 -12  -6   15.45    1.71
   1 -12  -6   17.60    2.00
  -1  12   6   17.36    1.50
  -1  12   6   15.37    1.84
  -1  12   6   20.28    1.95
   0 -12  -6   -0.21    0.82
   0 -12  -6    0.49    0.69
   0  12   6    0.76    0.83
   0  12   6   -0.69    0.62
   0  12   6    1.49    0.91
  -1 -12  -6    3.50    1.09
  -1 -12  -6    3.69    0.96
   1  12   6    2.73    0.78
   1  12   6    2.54    0.87
   1  12   6    3.03    0.80
  -2 -12  -6   15.61    1.56
  -2 -12  -6   14.24    1.44
  -2 -12  -6   14.21    1.71
   2  12   6   12.03    1.83
   2  12   6   15.06    1.44
  -3 -12  -6    0.36    0.66
  -3 -12  -6    0.53    0.59
  -3 -12  -6    0.42    0.78
   3  12   6    0.75    0.98
   3  12   6    0.90    0.66
  -4 -12  -6   14.41    1.67
  -4 -12  -6   14.42    1.52
  -4 -12  -6   13.77    0.99
  -4 -12  -6   12.96    0.91
   4  12   6   15.81    1.57
   4  12   6   15.48    1.43
  -5 -12  -6    0.59    0.93
  -5 -12  -6    1.35    0.62
  -5 -12  -6    1.48    0.80
  -5 -12  -6    1.57    0.60
   5  12   6    1.61    0.72
   5  12   6    1.80    0.89
  -6 -12  -6   56.75    2.61
  -6 -12  -6   55.49    2.68
  -6 -12  -6   56.32    1.98
   6  12   6   61.66    2.21
  -7 -12  -6    2.30    0.85
  -7 -12  -6   -1.63    1.11
   7  12   6    0.27    0.75
   7  12   6    1.62    0.84
   7  12   6   -0.88    0.91
  -8 -12  -6   14.98    2.21
  -8 -12  -6   14.58    1.75
   8  12   6   18.57    1.59
   8  12   6   22.11    1.83
   8  12   6   20.31    1.90
  -9 -12  -6    1.14    1.11
  -9 -12  -6   -1.25    1.65
   9  12   6   -0.27    1.12
  -5  13   6    3.56    1.77
  -5  13   6   -1.47    1.14
   4 -13  -6   12.84    2.21
  -4  13   6   12.08    1.94
  -4  13   6    9.44    1.69
   3 -13  -6    5.04    1.18
  -3  13   6    6.59    1.14
  -3  13   6    5.76    1.40
   2 -13  -6   22.39    2.10
  -2  13   6   23.18    1.83
  -2  13   6   19.03    2.26
   1 -13  -6   -0.38    0.75
  -1  13   6    0.65    0.76
  -1  13   6   -0.17    0.90
   0 -13  -6    4.54    1.42
   0 -13  -6    2.84    0.95
   0  13   6    3.32    1.09
   0  13   6    4.77    1.16
   0  13   6    2.99    0.86
  -1 -13  -6    4.62    1.14
  -1 -13  -6    5.47    1.11
   1  13   6    4.91    1.03
   1  13   6    4.62    1.07
   1  13   6    3.37    0.82
  -2 -13  -6    9.31    1.37
  -2 -13  -6   10.70    1.66
   2  13   6   11.45    1.64
   2  13   6   13.71    1.69
  -3 -13  -6   13.97    1.69
  -3 -13  -6   10.63    1.89
   3  13   6   15.45    1.69
   3  13   6   17.46    1.71
  -4 -13  -6   18.24    1.93
  -4 -13  -6   20.50    2.09
   4  13   6   23.03    1.81
   4  13   6   25.67    1.82
  -5 -13  -6   32.07    1.38
  -5 -13  -6   32.19    2.30
  -5 -13  -6   28.38    2.31
  -5 -13  -6   33.34    1.46
   5  13   6   33.70    2.12
   5  13   6   35.04    2.00
  -6 -13  -6   50.96    1.91
  -6 -13  -6   49.64    2.81
   6  13   6   52.68    2.31
   6  13   6   54.23    2.43
  -7 -13  -6   24.91    1.75
  -7 -13  -6   16.84    2.60
   7  13   6   24.44    1.98
   7  13   6   22.29    2.14
   7  13   6   22.23    2.06
  -8 -13  -6   24.15    3.08
   8  13   6   34.00    2.33
   8  13   6   30.83    2.17
   9  13   6    9.02    1.46
  -4  14   6    0.17    1.09
   3 -14  -6   10.20    1.63
  -3  14   6    8.92    1.24
  -3  14   6    7.32    1.57
   2 -14  -6    2.41    1.29
  -2  14   6    1.63    1.17
  -2  14   6    0.44    0.90
   1 -14  -6    6.71    1.30
  -1  14   6    4.66    1.07
  -1  14   6    4.29    1.16
   0  14   6   -0.18    0.82
   0  14   6    0.48    1.02
  -1 -14  -6   11.49    1.99
   1  14   6   13.48    1.95
   1  14   6   11.41    1.68
  -2 -14  -6    7.96    1.35
   2  14   6   11.40    1.91
   2  14   6    7.69    1.29
  -3 -14  -6   34.58    2.76
  -3 -14  -6   40.40    2.42
   3  14   6   44.96    2.47
   3  14   6   44.36    2.38
  -4 -14  -6    3.54    1.33
   4  14   6    4.37    1.08
   4  14   6    5.01    1.24
  -5 -14  -6   41.83    2.88
   5  14   6   47.52    2.55
   5  14   6   47.05    2.58
  -6 -14  -6    0.52    0.72
  -6 -14  -6   -2.71    1.42
   6  14   6   -0.11    1.00
   6  14   6    0.66    1.17
   6  14   6   -0.09    0.97
  -7 -14  -6   24.19    1.84
   7  14   6   25.77    2.73
   7  14   6   19.56    2.58
   7  14   6   22.07    2.22
  -8 -14  -6    3.07    1.49
   8  14   6    1.18    1.24
   2 -15  -6    1.66    1.17
  -2  15   6    1.02    1.07
  -2  15   6    0.87    1.33
   1 -15  -6   28.04    2.46
  -1  15   6   32.88    2.61
  -1  15   6   25.56    2.25
   0 -15  -6    3.42    1.32
   0  15   6    4.26    1.31
   0  15   6    4.46    1.10
  -1 -15  -6    6.99    1.36
   1  15   6    7.57    1.25
   1  15   6    9.47    1.44
  -2 -15  -6    8.97    1.48
   2  15   6   12.96    1.93
   3  15   6   16.14    1.96
   4  15   6   18.90    2.12
   5  15   6    8.87    1.42
   6  15   6   10.98    1.78
   6  15   6   12.93    2.27
   0 -16  -6   64.65    3.57
   0  16   6   69.07    3.15
   0  16   6   70.99    3.45
  -1 -16  -6    2.06    1.43
   1  16   6    2.88    1.20
  -2 -16  -6    8.16    1.52
   2  16   6   10.25    1.47
   3  16   6    0.90    1.05
   4  16   6   25.97    2.38
   5  16   6   -0.15    1.42
   1  11  -7   34.46    2.65
   0  11  -7    3.69    1.17
   0  11  -7    3.43    1.18
  -1  11  -7    4.94    1.14
  -1  11  -7    5.62    1.36
  -2  11  -7    4.41    1.16
  -2  11  -7    3.86    1.14
  -2  11  -7    1.80    1.13
  -3  11  -7    6.60    1.31
  -3  11  -7    7.28    1.38
  -3  11  -7    6.76    1.48
   3  10  -7    0.10    1.28
  -3 -10   7   -0.51    1.16
   2  10  -7   10.58    1.54
  -2 -10   7   10.20    1.20
   1  10  -7    4.57    1.07
   0  10  -7   10.65    1.88
   0  10  -7    9.89    1.32
  -1  10  -7   -0.03    0.80
  -1  10  -7    0.53    0.55
  -1  10  -7    0.62    1.02
  -1  10  -7    0.32    0.90
  -1  10  -7    2.16    1.01
  -2  10  -7   16.29    2.10
  -2  10  -7   19.08    2.02
  -2  10  -7   16.34    1.82
  -2  10  -7   18.90    2.02
  -3  10  -7   -0.08    1.38
  -3  10  -7    0.33    1.22
  -3  10  -7    0.46    0.98
  -4  10  -7   65.78    2.95
  -4  10  -7   73.49    3.10
  -5  10  -7   26.25    2.33
  -5  10  -7   27.27    2.36
   5   9  -7   -0.34    1.24
  -5  -9   7    6.49    1.43
   4   9  -7   33.12    2.46
  -4  -9   7   29.87    2.27
   3   9  -7   -0.98    0.90
   3   9  -7    0.11    1.06
  -3  -9   7    2.17    0.98
   2   9  -7   11.30    1.89
   2   9  -7   11.67    1.65
   1   9  -7    3.27    1.09
   1   9  -7    4.69    0.93
   0   9  -7    8.32    0.99
   0   9  -7    7.88    1.18
   0   9  -7    8.03    1.16
  -1   9  -7    2.38    1.00
  -1   9  -7    2.28    0.61
  -1   9  -7    1.32    0.87
  -1   9  -7    2.16    0.76
  -1   9  -7    2.34    0.86
  -1   9  -7    1.94    0.76
  -2   9  -7    0.71    0.68
  -2   9  -7    0.47    0.90
  -2   9  -7    0.78    0.85
  -2   9  -7    0.39    0.54
  -2   9  -7    0.17    0.92
  -2   9  -7    0.28    0.80
  -3   9  -7    3.12    0.80
  -3   9  -7    3.65    0.65
  -3   9  -7    3.81    0.93
  -3   9  -7    2.20    1.09
  -4   9  -7   22.19    1.32
  -4   9  -7   20.14    2.40
  -4   9  -7   20.21    2.03
  -4   9  -7   19.48    1.82
  -4   9  -7   21.25    1.99
  -5   9  -7    4.05    0.80
  -5   9  -7    4.89    1.12
  -5   9  -7    2.75    1.05
  -6   9  -7   14.36    2.19
  -6   9  -7   14.51    1.51
  -6   9  -7   18.01    2.12
  -7   9  -7    7.11    1.42
  -7   9  -7    5.28    1.51
   5   8  -7   15.27    2.21
  -5  -8   7   17.09    2.11
   4   8  -7    2.28    1.15
   4   8  -7    0.34    1.13
  -4  -8   7   -0.40    0.91
   3   8  -7   10.52    1.71
   3   8  -7    8.59    1.41
  -3  -8   7    7.99    1.14
   2   8  -7    1.87    0.99
   2   8  -7    2.04    0.86
  -2  -8   7    1.76    0.84
  -2  -8   7    2.46    1.17
   1   8  -7   44.27    1.88
   1   8  -7   44.99    2.30
  -1  -8   7   44.52    1.95
   0   8  -7   16.59    1.40
   0   8  -7   19.83    1.74
   0   8  -7   18.29    1.70
  -1   8  -7   16.72    1.64
  -1   8  -7   16.34    1.64
  -1   8  -7   14.61    1.26
  -1   8  -7   17.33    2.40
  -2   8  -7   29.22    1.74
  -2   8  -7   28.64    1.59
  -2   8  -7   28.83    1.54
  -2   8  -7   30.96    1.91
  -2   8  -7   28.82    1.29
  -2   8  -7   28.52    1.82
  -2   8  -7   29.99    2.36
  -3   8  -7   23.78    1.86
  -3   8  -7   19.97    1.20
  -3   8  -7   21.71    1.68
  -3   8  -7   19.39    2.32
  -3   8  -7   22.23    1.72
  -4   8  -7   26.21    2.11
  -4   8  -7   24.31    1.84
  -4   8  -7   27.46    1.91
  -4   8  -7   23.55    1.31
  -4   8  -7   22.05    1.56
  -5   8  -7   33.40    2.56
  -5   8  -7   30.25    1.77
  -5   8  -7   29.33    2.05
  -5   8  -7   30.56    2.18
  -5   8  -7   28.92    1.51
  -6   8  -7   30.95    1.76
  -6   8  -7   31.36    2.32
  -6   8  -7   34.47    1.97
  -6   8  -7   34.00    2.21
  -7   8  -7    3.69    1.35
  -7   8  -7    2.73    1.88
  -7   8  -7    3.54    1.03
  -8   8  -7   15.33    2.63
  -8   8  -7   12.35    1.84
  -8   8  -7    9.75    1.48
   6   7  -7    0.04    1.20
  -6  -7   7   -0.19    1.19
   5   7  -7   -0.11    1.40
   5   7  -7   -1.44    1.03
  -5  -7   7    0.36    1.04
   4   7  -7   15.53    1.95
   4   7  -7   17.62    1.94
  -4  -7   7   15.76    1.79
  -4  -7   7   16.78    2.15
   3   7  -7   26.74    1.81
   3   7  -7   24.80    1.91
  -3  -7   7   27.53    2.16
  -3  -7   7   27.76    2.03
   2   7  -7    5.00    0.89
   2   7  -7    4.39    0.93
   2   7  -7    5.47    1.51
  -2  -7   7    4.85    0.96
  -2  -7   7    5.37    0.91
   1   7  -7   61.83    2.50
   1   7  -7   63.77    2.80
   1   7  -7   62.47    2.12
  -1  -7   7   64.75    2.52
  -1  -7   7   62.00    2.14
   0   7  -7    1.90    0.76
   0   7  -7    2.53    0.94
   0   7  -7    2.09    0.68
   0   7  -7    2.32    0.74
  -1   7  -7   73.22    2.86
  -1   7  -7   74.91    2.19
  -1   7  -7   71.44    2.09
  -1   7  -7   74.44    2.70
  -1   7  -7   78.45    2.66
  -2   7  -7    0.93    0.61
  -2   7  -7    0.02    0.80
  -2   7  -7   -0.19    0.67
  -2   7  -7   -0.30    0.69
  -2   7  -7    0.36    0.58
  -2   7  -7    0.64    0.51
  -3   7  -7   12.12    1.32
  -3   7  -7   17.21    1.51
  -3   7  -7   16.52    1.06
  -3   7  -7   12.49    1.72
  -3   7  -7   15.63    1.41
  -4   7  -7   11.19    1.45
  -4   7  -7   11.07    1.42
  -4   7  -7   10.85    1.24
  -4   7  -7    9.19    1.08
  -4   7  -7    9.72    1.72
  -5   7  -7   31.17    1.95
  -5   7  -7   30.37    2.21
  -5   7  -7   29.77    1.64
  -5   7  -7   28.87    1.83
  -5   7  -7   27.77    1.58
  -5   7  -7   28.68    2.19
  -6   7  -7    4.04    1.11
  -6   7  -7    4.13    0.82
  -6   7  -7    2.85    0.88
  -6   7  -7    4.16    0.91
  -6   7  -7    6.26    1.21
  -7   7  -7   16.25    1.97
  -7   7  -7   15.63    2.16
  -7   7  -7   16.24    1.92
  -7   7  -7   18.68    2.16
  -8   7  -7    4.61    1.17
  -8   7  -7    3.91    1.25
  -8   7  -7    4.86    1.38
   7   6  -7    7.86    1.55
  -7  -6   7    7.56    1.42
   6   6  -7    3.50    1.27
  -6  -6   7    2.51    1.13
   5   6  -7   -0.46    0.90
  -5  -6   7    1.25    0.95
  -5  -6   7   -0.17    1.02
   4   6  -7   10.78    1.70
   4   6  -7   11.48    1.67
  -4  -6   7   12.53    1.77
  -4  -6   7   12.05    1.58
   3   6  -7   14.20    1.64
   3   6  -7   14.71    1.60
  -3  -6   7   18.04    1.52
  -3  -6   7   17.76    1.69
   2   6  -7   10.50    1.39
   2   6  -7   11.52    1.30
  -2  -6   7   10.09    1.45
  -2  -6   7   10.75    1.26
   1   6  -7    1.17    0.65
   1   6  -7    0.26    0.64
   1   6  -7    1.53    0.87
  -1  -6   7    0.33    0.54
  -1  -6   7    0.89    0.68
   0   6  -7   43.90    2.17
   0   6  -7   45.96    1.86
   0   6  -7   44.19    1.69
   0  -6   7   45.32    1.69
  -1   6  -7   72.02    2.32
  -1   6  -7   70.94    2.64
  -1   6  -7   69.88    2.42
  -1   6  -7   68.31    1.95
  -1   6  -7   72.03    2.04
  -2   6  -7    0.21    0.51
  -2   6  -7    1.07    0.69
  -2   6  -7    1.54    0.63
  -2   6  -7    0.34    0.53
  -2   6  -7    1.45    0.62
  -2   6  -7    1.21    0.73
  -3   6  -7   18.66    1.61
  -3   6  -7   18.00    1.36
  -3   6  -7   19.80    1.11
  -3   6  -7   19.57    1.44
  -3   6  -7   21.50    1.34
  -4   6  -7   46.85    2.07
  -4   6  -7   47.85    1.65
  -4   6  -7   46.47    1.75
  -4   6  -7   47.78    2.17
  -4   6  -7   44.27    1.98
  -5   6  -7    0.58    0.64
  -5   6  -7   -0.57    0.78
  -5   6  -7    0.80    0.82
  -5   6  -7    0.26    0.94
  -5   6  -7    0.54    0.66
  -5   6  -7   -0.08    0.53
  -6   6  -7   39.51    2.21
  -6   6  -7   39.30    1.72
  -6   6  -7   35.87    1.86
  -6   6  -7   39.84    2.44
  -6   6  -7   40.57    2.19
  -6   6  -7   38.94    2.03
  -7   6  -7    3.29    1.09
  -7   6  -7    3.77    1.07
  -7   6  -7    2.07    0.85
  -7   6  -7    3.17    1.00
  -8   6  -7   13.98    1.70
  -8   6  -7   14.68    2.10
  -9   6  -7    0.07    1.26
  -9   6  -7    2.98    1.06
  -9   6  -7    0.59    1.41
  -7  -5   7   -0.32    1.02
   6   5  -7   14.80    2.19
  -6  -5   7   14.71    1.87
  -6  -5   7   15.83    2.43
   5   5  -7    1.10    0.87
   5   5  -7    0.29    1.10
  -5  -5   7    1.60    0.87
  -5  -5   7    1.61    0.95
   4   5  -7   60.34    2.45
   4   5  -7   61.75    2.53
  -4  -5   7   61.15    2.35
  -4  -5   7   51.51    3.35
   3   5  -7   21.13    1.64
   3   5  -7   17.99    1.53
  -3  -5   7   18.11    1.47
  -3  -5   7   19.98    1.49
   2   5  -7  133.60    3.45
   2   5  -7  137.86    4.45
  -2  -5   7  138.24    3.46
  -2  -5   7  131.43    3.42
   1   5  -7    7.60    1.22
   1   5  -7    9.29    1.14
  -1  -5   7    7.48    1.07
  -1  -5   7    6.58    1.03
   0   5  -7  172.30    4.06
   0   5  -7  173.81    4.30
   0   5  -7  174.02    4.45
   0   5  -7  172.94    4.05
   0  -5   7  177.16    3.99
  -1   5  -7    4.86    0.89
  -1   5  -7    4.56    0.76
  -1   5  -7    4.49    0.71
  -1   5  -7    3.22    0.68
  -1   5  -7    3.90    0.67
  -1   5  -7    4.75    0.72
  -2   5  -7   73.07    2.15
  -2   5  -7   72.86    2.23
  -2   5  -7   73.09    2.14
  -2   5  -7   72.61    2.35
  -2   5  -7   72.02    2.06
  -2   5  -7   74.09    2.51
  -3   5  -7    1.00    0.50
  -3   5  -7    0.57    0.55
  -3   5  -7    0.12    0.44
  -3   5  -7    0.47    0.66
  -3   5  -7    0.64    0.52
  -4   5  -7    0.76    0.55
  -4   5  -7    0.02    0.52
  -4   5  -7   -0.55    0.65
  -4   5  -7    0.11    0.43
  -4   5  -7   -0.38    0.62
  -4   5  -7    0.51    0.52
  -5   5  -7   28.54    1.59
  -5   5  -7   27.71    1.76
  -5   5  -7   28.48    1.66
  -5   5  -7   28.65    1.49
  -5   5  -7   28.89    1.68
  -5   5  -7   29.44    1.41
  -6   5  -7    1.12    0.83
  -6   5  -7   -0.02    0.56
  -6   5  -7    1.96    0.76
  -6   5  -7    1.51    0.89
  -6   5  -7    0.24    0.67
  -7   5  -7    7.07    1.17
  -7   5  -7   10.35    1.54
  -7   5  -7    6.36    1.66
  -7   5  -7    6.54    0.93
  -8   5  -7   16.44    1.81
  -8   5  -7   13.27    1.60
  -8   5  -7   14.13    1.95
  -9   5  -7   22.45    2.27
  -9   5  -7   19.15    1.96
  -9   5  -7   17.20    2.23
 -10   5  -7   29.42    3.21
 -10   5  -7   26.67    2.21
   8   4  -7   21.07    2.61
   7   4  -7   16.66    1.79
  -7  -4   7   19.75    2.13
   6   4  -7   16.36    1.97
  -6  -4   7   17.94    1.86
  -6  -4   7   17.28    2.04
   5   4  -7   -0.26    0.88
   5   4  -7    0.66    0.81
  -5  -4   7    0.41    0.74
  -5  -4   7    0.77    0.77
   4   4  -7    0.90    0.81
   4   4  -7    2.23    0.80
  -4  -4   7    0.12    0.83
  -4  -4   7    0.97    0.66
   3   4  -7   63.21    2.27
  -3  -4   7   61.77    2.21
  -3  -4   7   64.33    2.16
   2   4  -7    1.07    0.61
   2   4  -7    1.47    0.68
  -2  -4   7    1.38    0.61
  -2  -4   7    1.96    0.58
   1   4  -7   89.23    2.73
   1   4  -7   91.49    2.55
  -1  -4   7   87.95    2.51
  -1  -4   7   92.48    2.48
   0   4  -7   22.11    1.17
   0   4  -7   22.90    1.35
   0   4  -7   16.74    1.89
   0  -4   7   22.23    1.19
  -1   4  -7  135.23    3.01
  -1   4  -7  131.86    3.18
  -1   4  -7  137.19    3.20
  -1   4  -7  136.95    3.54
  -1   4  -7  131.00    3.37
  -1   4  -7  130.05    2.95
  -2   4  -7   27.48    1.36
  -2   4  -7   28.23    1.25
  -2   4  -7   28.35    1.25
  -2   4  -7   27.64    1.24
  -2   4  -7   28.92    1.21
  -2   4  -7   28.76    1.52
  -3   4  -7   36.44    1.69
  -3   4  -7   40.21    1.54
  -3   4  -7   40.97    1.61
  -3   4  -7   40.56    1.54
  -3   4  -7   43.27    1.45
  -3   4  -7   41.42    1.74
  -3   4  -7   38.48    1.66
  -4   4  -7    1.46    0.46
  -4   4  -7    0.69    0.54
  -4   4  -7   -0.02    0.54
  -4   4  -7    0.64    0.49
  -4   4  -7   -0.11    0.51
  -4   4  -7   -0.06    0.42
  -5   4  -7   47.91    1.96
  -5   4  -7   47.14    1.69
  -5   4  -7   46.45    1.85
  -5   4  -7   49.41    1.79
  -5   4  -7   47.95    2.07
  -6   4  -7    1.54    0.89
  -6   4  -7    1.82    0.67
  -6   4  -7    0.35    0.54
  -7   4  -7   70.02    2.68
  -7   4  -7   68.14    2.28
  -7   4  -7   66.71    2.32
  -7   4  -7   65.40    2.81
  -8   4  -7    1.87    0.91
  -8   4  -7    2.91    0.81
  -8   4  -7    1.60    0.78
  -9   4  -7   26.50    1.99
  -9   4  -7   29.06    2.33
  -9   4  -7   33.64    2.13
 -10   4  -7    7.73    1.24
 -10   4  -7    6.33    1.29
   8   3  -7    2.23    1.32
  -8  -3   7    0.73    1.18
   7   3  -7   98.92    3.66
  -7  -3   7   96.66    3.62
  -7  -3   7   99.85    3.61
   6   3  -7    0.26    0.85
  -6  -3   7    1.19    0.90
  -6  -3   7    3.51    0.88
   5   3  -7   52.96    2.41
   5   3  -7   53.03    2.44
  -5  -3   7   52.15    2.10
  -5  -3   7   50.78    2.45
  -5  -3   7   51.31    2.24
   4   3  -7    0.41    0.74
   4   3  -7    0.50    0.78
  -4  -3   7   -0.40    0.57
  -4  -3   7    0.38    0.57
  -4  -3   7    0.55    0.72
   3   3  -7  124.84    3.30
   3   3  -7  118.32    3.39
  -3  -3   7  123.97    3.41
  -3  -3   7  117.21    3.24
  -3  -3   7  124.42    3.07
   2   3  -7   14.72    1.24
   2   3  -7   15.56    1.29
  -2  -3   7   14.57    1.02
  -2  -3   7   15.91    1.20
   1   3  -7   50.89    1.88
   1   3  -7   51.90    1.79
  -1  -3   7   53.22    1.80
  -1  -3   7   50.72    1.64
   0   3  -7    5.82    0.94
   0   3  -7    6.50    0.76
   0   3  -7    4.27    0.72
   0  -3   7    5.58    0.80
  -1   3  -7    8.03    0.88
  -1   3  -7    8.08    0.83
  -1   3  -7    8.35    0.76
  -1   3  -7    6.82    0.70
  -1   3  -7    8.30    0.68
   1  -3   7    9.22    0.86
  -2   3  -7   11.96    0.84
  -2   3  -7   12.80    0.97
  -2   3  -7   10.97    1.03
  -2   3  -7   11.33    0.86
  -2   3  -7   11.94    0.87
  -2   3  -7   11.64    0.82
  -3   3  -7   13.01    0.99
  -3   3  -7   12.48    1.03
  -3   3  -7   14.50    0.91
  -3   3  -7   13.92    1.00
  -3   3  -7   14.40    0.90
  -3   3  -7   15.78    0.98
  -4   3  -7    7.53    1.07
  -4   3  -7   10.14    0.86
  -4   3  -7    8.04    0.98
  -4   3  -7    9.25    0.91
  -5   3  -7    6.65    1.09
  -5   3  -7    6.95    1.19
  -5   3  -7    8.24    0.99
  -5   3  -7    5.72    1.15
  -5   3  -7    7.36    0.90
  -6   3  -7   33.54    1.53
  -6   3  -7   34.29    1.71
  -6   3  -7   30.28    1.81
  -6   3  -7   32.88    1.48
  -7   3  -7   16.32    1.29
  -7   3  -7   14.53    1.69
  -7   3  -7   15.26    1.45
  -7   3  -7   14.43    1.44
  -8   3  -7   23.91    2.57
  -8   3  -7   23.24    1.63
  -8   3  -7   25.01    1.55
  -8   3  -7   22.60    1.83
  -9   3  -7   43.17    2.22
  -9   3  -7   44.94    2.45
  -9   3  -7   42.55    2.08
 -10   3  -7    7.09    1.22
 -10   3  -7    6.00    1.11
 -11   3  -7   28.67    2.52
   8   2  -7   24.13    2.63
  -8  -2   7   24.50    2.34
   7   2  -7   10.74    1.46
  -7  -2   7   13.25    1.85
   6   2  -7   41.68    2.41
  -6  -2   7   42.91    2.25
  -6  -2   7   50.15    3.84
  -6  -2   7   42.48    2.12
   5   2  -7   20.23    1.73
   5   2  -7   17.24    1.78
  -5  -2   7   17.09    1.42
  -5  -2   7   19.68    1.72
  -5  -2   7   16.30    1.52
   4   2  -7   18.49    1.56
   4   2  -7   19.59    1.62
  -4  -2   7   20.22    1.44
  -4  -2   7   19.46    1.50
  -4  -2   7   18.85    1.26
   3   2  -7    1.32    0.65
   3   2  -7    1.24    0.59
  -3  -2   7    1.85    0.65
  -3  -2   7    0.76    0.57
  -3  -2   7    0.93    0.48
   2   2  -7  120.76    3.24
   2   2  -7  126.97    3.19
  -2  -2   7  120.41    3.14
  -2  -2   7  123.77    2.87
  -2  -2   7  124.28    3.24
   1   2  -7    1.35    0.47
   1   2  -7    1.31    0.50
  -1  -2   7    0.96    0.51
  -1  -2   7    1.15    0.38
  -1  -2   7    1.66    0.50
   0   2  -7  175.68    4.10
   0   2  -7  175.93    3.78
   0   2  -7  187.52    4.08
   0  -2   7  186.00    3.82
   0  -2   7  179.36    4.03
  -1   2  -7    8.11    0.63
  -1   2  -7    8.38    0.83
  -1   2  -7    7.71    0.64
  -1   2  -7    7.23    0.82
   1  -2   7    9.29    0.82
  -2   2  -7  211.45    4.44
  -2   2  -7  205.85    4.46
  -2   2  -7  205.35    4.36
  -2   2  -7  205.03    4.28
  -3   2  -7   13.41    0.90
  -3   2  -7   14.38    0.95
  -3   2  -7   13.98    0.91
  -3   2  -7   13.49    0.83
  -3   2  -7   14.58    0.97
  -4   2  -7   34.73    1.61
  -4   2  -7   36.46    1.37
  -4   2  -7   36.54    1.54
  -4   2  -7   36.88    1.34
  -5   2  -7   -0.20    0.38
  -5   2  -7   -0.79    0.44
  -5   2  -7   -0.01    0.55
  -5   2  -7   -0.26    0.36
  -6   2  -7   16.54    1.53
  -6   2  -7   18.50    1.09
  -6   2  -7   15.93    1.15
  -6   2  -7   16.56    1.33
  -7   2  -7    4.24    0.76
  -7   2  -7    4.20    1.06
  -7   2  -7    5.88    0.93
  -7   2  -7    3.81    0.99
  -8   2  -7   45.63    2.50
  -8   2  -7   47.36    1.79
  -8   2  -7   49.59    2.02
  -8   2  -7   47.45    2.23
  -9   2  -7    5.83    1.15
  -9   2  -7    5.88    0.99
  -9   2  -7    4.50    1.08
 -10   2  -7   12.70    1.94
 -10   2  -7   12.86    1.73
 -10   2  -7   15.08    1.93
 -11   2  -7   -0.14    1.06
 -11   2  -7   -0.80    1.50
   8   1  -7   68.60    3.35
  -8  -1   7   74.05    3.10
   7   1  -7   23.64    2.27
  -7  -1   7   23.68    2.01
   6   1  -7   85.97    3.49
   6   1  -7   78.72    3.02
  -6  -1   7   76.66    2.85
  -6  -1   7   76.10    3.01
   5   1  -7    2.65    0.98
   5   1  -7    1.30    0.84
  -5  -1   7    3.15    0.90
  -5  -1   7    2.97    0.84
   4   1  -7   23.56    1.69
   4   1  -7   24.46    1.65
  -4  -1   7   19.78    1.48
  -4  -1   7   20.77    1.43
  -4  -1   7   24.73    1.56
   3   1  -7    4.24    0.76
   3   1  -7    3.50    0.70
  -3  -1   7    4.36    0.75
  -3  -1   7    3.38    0.64
  -3  -1   7    3.84    0.54
   2   1  -7    7.52    1.01
   2   1  -7    7.15    0.98
  -2  -1   7    7.22    0.94
  -2  -1   7    6.22    0.96
  -2  -1   7    6.85    0.70
   1   1  -7   17.42    1.13
   1   1  -7   17.27    1.08
  -1  -1   7   18.19    0.82
  -1  -1   7   17.99    1.02
  -1  -1   7   16.29    1.09
   0   1  -7    1.85    0.35
   0   1  -7    3.58    0.57
   0   1  -7    2.09    0.47
   0  -1   7    1.90    0.33
   0  -1   7    1.92    0.42
   0  -1   7    1.88    0.45
   0  -1   7    1.99    0.33
  -1   1  -7    1.54    0.44
  -1   1  -7    0.98    0.36
  -1   1  -7    1.75    0.30
  -1   1  -7    0.96    0.32
   1  -1   7    1.80    0.38
   1  -1   7    1.60    0.42
  -2   1  -7    0.76    0.36
  -2   1  -7    0.57    0.24
  -2   1  -7    0.72    0.35
  -2   1  -7    0.33    0.32
  -3   1  -7    1.29    0.42
  -3   1  -7    1.79    0.37
  -3   1  -7    1.49    0.41
  -3   1  -7    1.47    0.40
  -4   1  -7   16.34    0.93
  -4   1  -7   16.01    0.88
  -4   1  -7   15.63    0.85
  -5   1  -7    3.17    0.52
  -5   1  -7    2.38    0.43
  -5   1  -7    2.33    0.63
  -6   1  -7    2.21    0.45
  -6   1  -7    2.76    0.57
  -6   1  -7    2.18    0.63
  -7   1  -7   90.39    2.81
  -7   1  -7   88.77    2.89
  -7   1  -7   88.49    2.27
  -8   1  -7   45.00    1.93
  -8   1  -7   44.82    1.61
  -8   1  -7   48.44    2.33
  -9   1  -7   33.33    2.02
  -9   1  -7   28.68    1.84
   9  -1   7   30.08    2.10
 -10   1  -7   29.91    2.13
 -10   1  -7   28.06    2.01
 -11   1  -7    6.36    1.25
 -11   1  -7    6.22    1.22
   8   0  -7    6.67    1.52
  -8   0   7   12.03    1.94
   7   0  -7   28.18    2.28
  -7   0   7   27.35    2.06
   6   0  -7    0.84    1.04
   6   0  -7   -0.13    0.91
  -6   0   7    0.10    0.76
  -6   0   7   -1.74    0.89
   5   0  -7   44.42    2.24
   5   0  -7   48.80    2.21
  -5   0   7   47.92    2.14
  -5   0   7   45.66    2.05
   4   0  -7   29.66    1.79
   4   0  -7   28.32    1.71
  -4   0   7   29.99    1.63
  -4   0   7   30.06    1.69
   3   0  -7    2.50    0.64
   3   0  -7    3.81    0.72
  -3   0   7    2.03    0.44
  -3   0   7    2.25    0.66
  -3   0   7    2.32    0.62
   2   0  -7   31.17    1.47
   2   0  -7   32.53    1.49
  -2   0   7   33.66    1.08
  -2   0   7   29.55    1.39
  -2   0   7   32.41    1.43
   1   0  -7  120.43    2.93
   1   0  -7  113.96    2.46
  -1   0   7  117.54    2.43
  -1   0   7  100.09    3.49
  -1   0   7  115.69    2.87
   0   0  -7    8.70    0.67
   0   0  -7    8.52    0.83
   0   0  -7   10.34    0.83
   0   0   7    9.31    0.63
   0   0   7   10.57    0.83
   0   0   7    9.92    0.81
  -1   0  -7  100.85    2.34
  -1   0  -7  100.65    2.16
  -1   0  -7  101.50    2.49
  -1   0  -7  105.99    2.56
   1   0   7  105.25    2.40
   1   0   7  105.85    2.51
   1   0   7   99.22    2.55
  -2   0  -7    2.24    0.44
  -2   0  -7    2.44    0.41
  -2   0  -7    3.02    0.40
  -2   0  -7    3.55    0.55
   2   0   7    2.71    0.47
  -3   0  -7  165.28    3.68
  -3   0  -7  162.92    3.46
  -3   0  -7  168.76    3.69
   3   0   7  163.69    3.70
  -4   0  -7   28.27    1.15
  -4   0  -7   26.94    0.95
  -4   0  -7   27.24    1.24
  -4   0  -7   27.96    1.26
  -4   0  -7   26.11    1.00
  -5   0  -7   55.20    1.72
  -5   0  -7   55.05    1.44
  -5   0  -7   53.62    1.46
  -5   0  -7   55.92    1.92
  -6   0  -7    6.86    0.90
  -6   0  -7    6.63    1.07
  -6   0  -7    5.61    0.62
  -7   0  -7    0.64    0.86
  -7   0  -7    0.75    0.54
  -8   0  -7    3.22    0.76
  -8   0  -7    2.23    0.73
  -8   0  -7    2.59    0.88
   8   0   7    1.11    0.76
  -9   0  -7   22.14    1.67
  -9   0  -7   19.19    2.01
  -9   0  -7   17.96    1.75
   9   0   7   18.77    1.85
 -10   0  -7    1.35    0.87
 -10   0  -7    0.18    0.83
 -11   0  -7   14.00    1.88
 -11   0  -7   15.19    2.03
   8  -1  -7   17.42    2.37
  -8   1   7   21.74    2.13
  -8   1   7   19.85    1.86
   7  -1  -7   27.17    2.27
  -7   1   7   25.74    1.66
  -7   1   7   25.94    2.01
   6  -1  -7   45.49    2.35
   6  -1  -7   44.43    2.39
  -6   1   7   43.19    2.31
  -6   1   7   42.85    1.76
   5  -1  -7   75.43    4.01
   5  -1  -7   87.65    2.27
   5  -1  -7   94.28    3.05
  -5   1   7   86.88    2.80
  -5   1   7   87.95    2.32
  -5   1   7   90.91    2.89
   4  -1  -7    3.69    0.89
   4  -1  -7    3.19    0.51
   4  -1  -7    3.58    0.86
  -4   1   7    3.52    0.56
  -4   1   7    4.33    0.91
  -4   1   7    3.81    0.75
   3  -1  -7   -0.14    0.54
   3  -1  -7    0.67    0.61
  -3   1   7    0.41    0.48
  -3   1   7    0.21    0.45
  -3   1   7    0.30    0.38
   2  -1  -7    7.37    0.95
   2  -1  -7    7.36    0.69
   2  -1  -7    7.53    1.00
  -2   1   7    6.77    0.85
  -2   1   7    7.95    0.59
  -2   1   7    7.97    0.89
  -2   1   7    6.42    0.61
   1  -1  -7    0.46    0.46
   1  -1  -7    0.51    0.46
   1  -1  -7    0.26    0.34
  -1   1   7    0.64    0.38
  -1   1   7   -0.03    0.34
  -1   1   7    0.10    0.29
   0  -1  -7    0.36    0.33
   0  -1  -7    1.34    0.41
   0  -1  -7    0.96    0.44
   0   1   7    0.61    0.36
   0   1   7    0.01    0.25
   0   1   7    0.55    0.36
  -1  -1  -7   65.96    1.86
  -1  -1  -7   64.83    1.76
  -1  -1  -7   63.15    1.69
   1   1   7   62.88    1.84
   1   1   7   65.62    1.72
   1   1   7   65.90    1.76
  -2  -1  -7   22.87    1.01
  -2  -1  -7   25.21    0.94
  -2  -1  -7   24.78    1.06
   2   1   7   25.07    0.96
   2   1   7   23.92    1.02
  -3  -1  -7   85.44    2.22
  -3  -1  -7   84.53    2.21
  -3  -1  -7   83.36    1.95
   3   1   7   85.27    2.24
  -4  -1  -7   66.40    1.95
  -4  -1  -7   63.89    1.54
  -4  -1  -7   64.27    1.58
  -4  -1  -7   65.93    1.84
   4   1   7   63.03    1.95
  -5  -1  -7  106.48    2.67
  -5  -1  -7  109.65    2.88
  -6  -1  -7   24.16    1.22
  -6  -1  -7   21.86    1.39
  -7  -1  -7    3.41    0.65
  -7  -1  -7    2.82    0.72
  -8  -1  -7  117.84    3.48
   8   1   7  112.60    3.20
  -9  -1  -7   62.24    2.55
  -9  -1  -7   63.83    2.43
  -9  -1  -7   63.28    2.78
   9   1   7   62.34    2.51
 -10  -1  -7   36.19    2.07
 -10  -1  -7   32.35    2.20
 -11  -1  -7    3.09    1.04
 -11  -1  -7    4.21    1.05
 -12  -1  -7    4.88    1.35
 -12  -1  -7    5.13    1.59
   8  -2  -7   21.55    2.24
  -8   2   7   18.54    2.08
  -8   2   7   15.85    2.03
   7  -2  -7   13.64    2.03
  -7   2   7   14.05    1.83
  -7   2   7   13.73    1.63
   6  -2  -7   12.19    1.28
   6  -2  -7   15.54    1.85
   6  -2  -7   15.13    1.90
  -6   2   7   12.74    1.53
  -6   2   7   11.66    1.40
  -6   2   7   12.28    1.78
   5  -2  -7   -1.23    1.26
   5  -2  -7   -0.36    0.70
   5  -2  -7    0.39    0.50
  -5   2   7    0.55    0.58
  -5   2   7   -0.12    0.65
  -5   2   7   -0.93    0.75
   4  -2  -7    4.03    0.86
   4  -2  -7    4.25    0.81
   4  -2  -7    5.72    0.86
  -4   2   7    3.97    0.67
  -4   2   7    4.75    0.79
  -4   2   7    3.54    0.74
   3  -2  -7    1.76    0.62
   3  -2  -7    1.80    0.63
   3  -2  -7    1.87    0.46
  -3   2   7    1.26    0.48
  -3   2   7    1.75    0.47
  -3   2   7    2.45    0.64
   2  -2  -7   -0.18    0.50
   2  -2  -7    1.08    0.47
   2  -2  -7    0.05    0.38
  -2   2   7    0.62    0.39
  -2   2   7    0.48    0.40
  -2   2   7    0.29    0.43
   1  -2  -7   91.05    2.16
   1  -2  -7   88.20    2.37
   1  -2  -7   87.51    2.36
  -1   2   7   84.27    2.32
  -1   2   7   86.90    2.31
  -1   2   7   84.27    2.10
   0  -2  -7  243.18    4.79
   0  -2  -7  236.37    4.95
   0  -2  -7  232.20    4.89
   0   2   7  235.11    4.76
   0   2   7  228.44    4.94
   0   2   7  235.85    4.86
  -1  -2  -7   40.52    1.30
  -1  -2  -7   39.86    1.31
   1   2   7   40.76    1.27
   1   2   7   37.66    1.34
   1   2   7   38.46    1.26
  -2  -2  -7  247.11    4.89
  -2  -2  -7  239.96    5.06
  -2  -2  -7  243.57    5.02
   2   2   7  243.10    5.05
   2   2   7  256.11    4.88
  -3  -2  -7   36.21    1.04
  -3  -2  -7   36.83    1.32
  -3  -2  -7   35.13    1.29
   3   2   7   34.93    1.03
   3   2   7   36.06    1.32
  -4  -2  -7  249.10    5.11
  -4  -2  -7  232.66    4.94
   4   2   7  234.57    5.11
  -5  -2  -7    3.21    0.59
  -5  -2  -7    3.10    0.47
   5   2   7    3.09    0.55
  -6  -2  -7    7.08    0.88
  -6  -2  -7    7.78    1.04
  -7  -2  -7    0.03    0.58
  -7  -2  -7    0.17    0.45
   7   2   7    0.39    0.56
  -8  -2  -7    7.36    1.52
  -8  -2  -7    9.52    1.48
   8   2   7    8.25    1.28
  -9  -2  -7   -0.07    0.95
  -9  -2  -7   -0.16    0.67
   9   2   7   -0.78    0.81
 -10  -2  -7   19.94    1.78
 -10  -2  -7   20.01    1.87
 -11  -2  -7    6.52    1.25
 -11  -2  -7    1.41    1.02
 -12  -2  -7   27.74    2.59
 -12  -2  -7   24.51    2.43
   8  -3  -7   13.64    2.10
  -8   3   7    8.93    1.46
   7  -3  -7   10.06    1.80
  -7   3   7   11.71    1.74
  -7   3   7   11.73    1.76
   6  -3  -7   20.08    1.97
   6  -3  -7   18.59    1.51
   6  -3  -7   18.30    2.03
  -6   3   7   19.91    1.58
  -6   3   7   21.49    1.68
  -6   3   7   15.63    1.83
   5  -3  -7   34.84    2.23
   5  -3  -7   37.19    1.65
   5  -3  -7   36.28    1.93
  -5   3   7   36.02    1.69
  -5   3   7   37.15    1.99
  -5   3   7   36.75    1.96
   4  -3  -7   88.49    2.44
   4  -3  -7   91.72    2.75
   4  -3  -7   89.05    2.90
  -4   3   7   88.51    2.47
  -4   3   7   89.01    2.68
  -4   3   7   87.51    2.73
   3  -3  -7    1.60    0.59
   3  -3  -7    1.59    0.51
   3  -3  -7    1.43    0.71
  -3   3   7    1.68    0.52
  -3   3   7    1.17    0.56
  -3   3   7    2.80    0.65
   2  -3  -7   41.78    1.44
   2  -3  -7   39.99    1.65
   2  -3  -7   42.33    1.62
  -2   3   7   44.82    1.62
  -2   3   7   42.32    1.47
  -2   3   7   40.88    1.54
   1  -3  -7   23.18    1.05
   1  -3  -7   22.22    1.23
   1  -3  -7   23.48    1.13
  -1   3   7   23.95    1.12
  -1   3   7   21.07    1.08
  -1   3   7   19.48    1.02
   0  -3  -7  157.72    3.54
   0  -3  -7  155.01    3.51
   0  -3  -7  162.19    3.48
   0   3   7  157.63    3.47
   0   3   7  152.37    3.41
   0   3   7  157.18    3.55
  -1  -3  -7   49.71    1.49
  -1  -3  -7   50.46    1.56
  -1  -3  -7   47.90    1.53
   1   3   7   47.63    1.50
   1   3   7   47.90    1.54
   1   3   7   50.37    1.44
  -2  -3  -7   74.32    2.00
  -2  -3  -7   80.43    2.07
  -2  -3  -7   74.75    1.84
   2   3   7   74.63    2.02
   2   3   7   77.65    1.82
  -3  -3  -7   58.58    1.42
  -3  -3  -7   57.50    1.70
  -3  -3  -7   59.48    1.76
   3   3   7   59.00    1.77
   3   3   7   57.83    1.39
  -4  -3  -7   75.45    2.06
  -4  -3  -7   82.31    2.23
   4   3   7   79.11    2.21
  -5  -3  -7   75.82    2.09
  -5  -3  -7   74.68    2.21
   5   3   7   73.70    2.23
  -6  -3  -7    0.01    0.42
  -6  -3  -7   -0.63    0.46
   6   3   7   -0.56    0.39
  -7  -3  -7    1.69    0.52
  -7  -3  -7    1.76    0.64
   7   3   7    2.14    0.59
  -8  -3  -7    3.70    0.91
  -8  -3  -7    3.54    0.86
   8   3   7    2.17    0.72
  -9  -3  -7   88.33    2.83
  -9  -3  -7   87.32    3.11
   9   3   7   83.22    2.87
 -10  -3  -7    0.44    0.86
 -11  -3  -7   19.66    1.96
 -11  -3  -7   17.09    2.00
 -12  -3  -7   -0.42    1.15
 -12  -3  -7    5.44    1.29
   8  -4  -7    2.10    1.07
  -8   4   7    0.15    1.01
  -8   4   7    0.41    1.19
   7  -4  -7   11.42    1.76
   7  -4  -7    7.52    1.19
  -7   4   7    5.93    1.46
  -7   4   7    6.48    1.18
   6  -4  -7    2.02    0.89
   6  -4  -7    2.26    1.05
   6  -4  -7    3.03    0.86
  -6   4   7    2.70    0.87
  -6   4   7    2.69    0.96
  -6   4   7    2.99    0.91
   5  -4  -7   35.30    1.97
   5  -4  -7   34.93    2.00
   5  -4  -7   36.22    1.77
  -5   4   7   37.67    2.01
  -5   4   7   32.98    2.10
  -5   4   7   39.30    1.79
   4  -4  -7   10.85    1.30
   4  -4  -7    7.77    1.40
   4  -4  -7    9.17    1.16
  -4   4   7   10.75    1.19
  -4   4   7    9.42    1.21
  -4   4   7   10.28    1.31
   3  -4  -7   89.86    2.55
   3  -4  -7   86.74    2.48
   3  -4  -7   83.09    2.66
  -3   4   7   88.80    2.50
  -3   4   7   88.36    2.63
  -3   4   7   85.17    2.50
   2  -4  -7    9.10    0.90
   2  -4  -7    9.38    0.99
   2  -4  -7    8.14    1.13
  -2   4   7    7.01    0.86
  -2   4   7    9.32    1.01
  -2   4   7    9.00    0.99
   1  -4  -7   66.58    1.91
   1  -4  -7   63.81    2.00
   1  -4  -7   64.28    1.92
  -1   4   7   66.79    1.96
  -1   4   7   62.80    1.89
  -1   4   7   61.59    1.88
   0  -4  -7  157.21    3.51
   0  -4  -7  162.00    3.54
   0  -4  -7  151.47    3.50
   0   4   7  156.59    3.47
   0   4   7  151.88    3.49
   0   4   7  154.38    3.51
  -1  -4  -7  635.07   11.99
  -1  -4  -7  674.09   12.14
  -1  -4  -7  636.94   12.08
   1   4   7  622.71   12.09
   1   4   7  635.34   11.96
   1   4   7  635.16   12.10
  -2  -4  -7   35.93    1.28
  -2  -4  -7   38.64    1.22
  -2  -4  -7   38.89    1.40
   2   4   7   38.05    1.15
   2   4   7   35.59    1.35
  -3  -4  -7  275.15    5.52
  -3  -4  -7  268.42    5.43
  -3  -4  -7  264.05    5.10
   3   4   7  261.85    5.06
   3   4   7  258.48    5.51
  -4  -4  -7    1.79    0.48
  -4  -4  -7    2.05    0.39
   4   4   7    1.60    0.47
  -5  -4  -7  113.92    2.83
  -5  -4  -7  120.53    3.03
   5   4   7  116.60    3.02
  -6  -4  -7   36.44    1.45
  -6  -4  -7   38.75    1.64
   6   4   7   37.13    1.65
  -7  -4  -7   -0.49    0.46
  -7  -4  -7   -0.02    0.59
   7   4   7    0.00    0.51
   7   4   7   -0.88    0.45
  -8  -4  -7   -0.39    0.68
  -8  -4  -7    0.55    0.68
   8   4   7   -0.17    0.59
  -9  -4  -7   15.02    1.74
  -9  -4  -7   14.60    1.50
   9   4   7   15.30    1.60
 -10  -4  -7   18.77    1.70
 -10  -4  -7   13.98    1.93
 -11  -4  -7   11.61    1.99
 -11  -4  -7    8.02    1.21
 -12  -4  -7    3.83    1.28
 -12  -4  -7    3.10    1.20
  -8   5   7    6.67    1.43
  -8   5   7    5.38    1.37
   7  -5  -7   22.97    1.97
   7  -5  -7   15.84    2.20
  -7   5   7   17.18    2.03
  -7   5   7   17.71    1.93
   6  -5  -7   18.70    1.73
   6  -5  -7   18.26    1.80
   6  -5  -7   17.32    2.13
  -6   5   7   17.47    2.64
  -6   5   7   19.31    1.68
  -6   5   7   20.39    1.80
   5  -5  -7   21.19    1.67
   5  -5  -7   21.35    1.60
   5  -5  -7   22.27    1.72
  -5   5   7   17.94    2.00
  -5   5   7   21.59    1.86
  -5   5   7   25.12    1.67
   4  -5  -7   33.78    1.75
   4  -5  -7   30.43    1.82
   4  -5  -7   34.61    1.66
  -4   5   7   32.96    1.63
  -4   5   7   32.71    1.71
  -4   5   7   35.09    1.82
   3  -5  -7  150.75    3.69
   3  -5  -7  152.69    3.68
   3  -5  -7  144.76    3.82
  -3   5   7  149.70    3.69
  -3   5   7  149.92    3.66
  -3   5   7  155.38    3.84
   2  -5  -7    0.53    0.51
   2  -5  -7    0.28    0.52
  -2   5   7    0.45    0.52
  -2   5   7   -0.03    0.51
  -2   5   7    0.44    0.40
   1  -5  -7   31.30    1.34
   1  -5  -7   26.93    1.35
   1  -5  -7   28.77    1.25
  -1   5   7   29.57    1.36
  -1   5   7   29.51    1.24
   0  -5  -7   68.20    2.02
   0  -5  -7   66.12    1.90
   0  -5  -7   65.16    1.94
   0   5   7   65.69    1.87
   0   5   7   66.96    1.94
   0   5   7   65.65    1.98
  -1  -5  -7   25.08    1.26
  -1  -5  -7   23.10    1.06
  -1  -5  -7   23.44    1.06
   1   5   7   21.58    1.11
   1   5   7   23.76    1.02
   1   5   7   23.26    1.06
  -2  -5  -7   18.38    0.91
  -2  -5  -7   15.46    0.81
  -2  -5  -7   18.34    1.10
   2   5   7   18.71    0.86
   2   5   7   16.71    0.99
  -3  -5  -7   15.81    0.70
  -3  -5  -7   17.83    1.06
  -3  -5  -7   16.28    0.90
   3   5   7   17.35    0.73
   3   5   7   16.43    0.99
  -4  -5  -7   65.23    1.83
   4   5   7   68.92    2.05
  -5  -5  -7    5.28    0.92
  -5  -5  -7    4.36    0.72
   5   5   7    4.72    0.83
  -6  -5  -7   28.14    1.32
  -6  -5  -7   27.27    1.48
   6   5   7   27.90    1.45
  -7  -5  -7    0.57    0.60
  -7  -5  -7    0.79    0.50
   7   5   7    0.34    0.59
   7   5   7   -0.15    0.49
  -8  -5  -7   12.41    1.43
  -8  -5  -7   10.27    1.37
   8   5   7   10.34    1.31
   8   5   7   11.51    1.31
  -9  -5  -7    0.68    0.93
  -9  -5  -7    0.42    0.92
   9   5   7   -0.22    0.80
 -10  -5  -7   30.50    2.40
 -10  -5  -7   28.25    1.92
 -11  -5  -7    8.37    1.27
 -12  -5  -7   14.10    2.25
 -12  -5  -7   12.56    1.73
   8  -6  -7    7.69    1.31
  -8   6   7    5.43    1.42
  -8   6   7    9.72    1.55
   7  -6  -7    9.96    1.62
   7  -6  -7   11.43    1.78
  -7   6   7    8.06    1.27
  -7   6   7    6.12    1.25
   6  -6  -7   44.17    2.40
   6  -6  -7   40.19    2.46
   6  -6  -7   42.77    2.33
  -6   6   7   46.45    2.29
  -6   6   7   41.79    2.28
   5  -6  -7   12.88    1.65
   5  -6  -7   13.35    1.57
   5  -6  -7   16.14    1.65
  -5   6   7   11.95    1.79
  -5   6   7   16.67    2.03
  -5   6   7   15.64    1.60
   4  -6  -7  173.40    4.20
   4  -6  -7  173.62    4.27
  -4   6   7  169.74    4.26
  -4   6   7  168.73    4.16
  -4   6   7  172.30    4.41
   3  -6  -7   -0.29    0.56
   3  -6  -7    0.10    0.59
   3  -6  -7   -0.48    0.60
  -3   6   7    0.37    0.67
  -3   6   7    1.17    0.57
  -3   6   7    0.83    0.64
   2  -6  -7  136.99    3.35
   2  -6  -7  141.62    3.50
  -2   6   7  140.76    3.54
  -2   6   7  138.18    3.35
  -2   6   7  139.03    3.53
   1  -6  -7   -0.19    0.41
   1  -6  -7    0.36    0.47
   1  -6  -7    0.82    0.42
  -1   6   7    0.62    0.58
  -1   6   7    0.67    0.27
  -1   6   7    0.94    0.40
  -1   6   7    1.27    0.52
   0  -6  -7   44.39    1.47
   0  -6  -7   42.68    1.54
   0   6   7   44.28    1.60
   0   6   7   43.01    1.65
   0   6   7   42.26    1.42
  -1  -6  -7   -0.16    0.45
  -1  -6  -7    0.25    0.37
  -1  -6  -7   -0.47    0.30
   1   6   7    0.33    0.45
   1   6   7    0.40    0.42
   1   6   7    0.21    0.31
  -2  -6  -7   59.18    1.70
  -2  -6  -7   59.66    1.43
  -2  -6  -7   60.55    1.94
  -2  -6  -7   59.23    1.63
   2   6   7   61.79    1.70
   2   6   7   56.30    1.85
  -3  -6  -7    5.15    0.68
  -3  -6  -7    4.60    0.63
  -3  -6  -7    3.78    0.51
  -3  -6  -7    4.72    0.55
   3   6   7    5.36    0.68
   3   6   7    5.12    0.80
  -4  -6  -7   33.56    1.23
  -4  -6  -7   34.29    1.51
   4   6   7   31.98    1.40
  -5  -6  -7    3.59    0.70
  -5  -6  -7    2.81    0.50
   5   6   7    3.49    0.66
  -6  -6  -7   24.42    1.44
  -6  -6  -7   23.66    1.24
   6   6   7   24.79    1.38
  -7  -6  -7    2.43    0.71
  -7  -6  -7    2.56    0.68
   7   6   7    1.18    0.59
   7   6   7    0.95    0.60
  -8  -6  -7    1.40    0.84
  -8  -6  -7    1.38    0.73
   8   6   7    1.22    0.69
   8   6   7   -0.36    0.62
  -9  -6  -7   31.82    1.85
  -9  -6  -7   30.35    2.17
   9   6   7   35.18    2.00
 -10  -6  -7   22.95    2.37
 -10  -6  -7   24.64    1.88
 -11  -6  -7   24.76    2.06
 -12  -6  -7   28.66    2.67
 -12  -6  -7   26.15    2.60
   8  -7  -7    4.53    1.42
  -8   7   7    2.13    1.20
  -8   7   7   -1.61    1.33
   7  -7  -7   35.97    2.35
  -7   7   7   30.54    2.50
  -7   7   7   31.76    2.30
   6  -7  -7   21.77    2.27
   6  -7  -7   20.91    1.88
   6  -7  -7   21.12    2.26
  -6   7   7   23.42    1.98
  -6   7   7   21.90    2.06
   5  -7  -7   31.25    1.91
   5  -7  -7   30.50    2.09
   5  -7  -7   30.29    2.01
  -5   7   7   29.68    2.68
  -5   7   7   29.77    2.15
  -5   7   7   32.71    2.01
   4  -7  -7   26.05    1.68
   4  -7  -7   25.99    1.65
   4  -7  -7   25.69    1.77
  -4   7   7   27.07    1.54
  -4   7   7   26.94    1.94
  -4   7   7   26.29    1.79
   3  -7  -7   46.82    1.85
   3  -7  -7   47.90    2.02
   3  -7  -7   43.95    1.95
  -3   7   7   47.29    1.78
  -3   7   7   47.79    2.11
  -3   7   7   46.38    2.04
   2  -7  -7   47.69    1.73
   2  -7  -7   42.73    1.80
   2  -7  -7   47.07    1.90
  -2   7   7   46.36    1.66
  -2   7   7   47.98    2.00
  -2   7   7   45.82    1.42
  -2   7   7   45.73    1.98
   1  -7  -7    3.03    0.55
   1  -7  -7    2.56    0.64
   1  -7  -7    1.96    0.52
  -1   7   7    1.89    0.71
  -1   7   7    2.77    0.70
  -1   7   7    2.60    0.38
  -1   7   7    1.72    0.47
   0  -7  -7    1.39    0.55
   0  -7  -7    1.42    0.43
   0  -7  -7    0.89    0.42
   0   7   7    2.17    0.42
   0   7   7    0.88    0.60
   0   7   7    1.47    0.69
  -1  -7  -7    8.80    0.83
  -1  -7  -7   10.09    0.80
  -1  -7  -7   11.35    1.12
   1   7   7    7.71    0.97
   1   7   7   10.45    1.00
   1   7   7   10.50    0.74
  -2  -7  -7   24.01    1.36
  -2  -7  -7   19.79    0.83
  -2  -7  -7   20.78    0.99
  -2  -7  -7   20.76    0.98
   2   7   7   19.87    1.15
   2   7   7   21.80    1.10
  -3  -7  -7  118.72    2.69
  -3  -7  -7  120.27    2.74
  -3  -7  -7  117.79    2.65
  -3  -7  -7  117.32    2.77
  -3  -7  -7  120.46    3.10
   3   7   7  119.80    2.70
   3   7   7  113.00    3.01
  -4  -7  -7   25.18    1.07
  -4  -7  -7   25.28    1.40
  -4  -7  -7   22.57    0.86
  -4  -7  -7   23.20    1.05
   4   7   7   23.50    0.97
   4   7   7   24.74    1.29
  -5  -7  -7   29.67    1.52
  -5  -7  -7   27.57    1.24
   5   7   7   27.66    1.42
  -6  -7  -7    3.24    0.74
  -6  -7  -7    4.72    0.71
   6   7   7    3.39    0.67
  -7  -7  -7   14.61    1.18
  -7  -7  -7   15.43    1.44
   7   7   7   13.65    1.33
  -8  -7  -7    5.61    1.18
  -8  -7  -7    7.94    1.13
   8   7   7    7.00    1.01
   8   7   7    7.72    1.11
  -9  -7  -7    5.07    1.08
  -9  -7  -7    4.04    0.91
   9   7   7    4.37    1.10
   9   7   7    3.05    0.93
 -10  -7  -7   18.05    2.30
 -10  -7  -7   15.33    1.76
 -11  -7  -7   16.37    2.02
   7  -8  -7   25.56    2.29
  -7   8   7   19.08    2.35
  -7   8   7   23.35    2.21
   6  -8  -7    3.08    0.97
   6  -8  -7    0.60    1.22
  -6   8   7   -0.89    1.00
  -6   8   7    1.62    0.97
   5  -8  -7   19.54    1.90
   5  -8  -7   19.56    2.14
   5  -8  -7   23.80    1.89
  -5   8   7   21.25    1.93
  -5   8   7   19.79    1.97
   4  -8  -7    3.56    0.95
   4  -8  -7    3.51    0.86
   4  -8  -7    2.46    0.77
  -4   8   7    2.64    0.95
  -4   8   7    3.64    1.01
  -4   8   7    2.34    0.75
   3  -8  -7   29.49    1.80
   3  -8  -7   30.72    1.61
  -3   8   7   31.91    1.38
  -3   8   7   30.39    1.87
  -3   8   7   33.60    1.55
  -3   8   7   30.56    1.96
   2  -8  -7    0.43    0.54
   2  -8  -7    1.51    0.60
   2  -8  -7    1.69    0.68
  -2   8   7    1.60    0.79
  -2   8   7    1.76    0.72
  -2   8   7    1.24    0.43
  -2   8   7    1.78    0.56
   1  -8  -7    2.74    0.72
   1  -8  -7    3.18    0.61
   1  -8  -7    3.20    0.72
  -1   8   7    3.91    0.83
  -1   8   7    3.50    0.83
  -1   8   7    3.01    0.53
  -1   8   7    3.06    0.47
   0  -8  -7    0.45    0.42
   0  -8  -7    1.45    0.57
   0  -8  -7   -0.02    0.43
   0   8   7    0.55    0.65
   0   8   7   -0.05    0.59
   0   8   7    0.46    0.36
   0   8   7    0.90    0.34
  -1  -8  -7   -0.21    0.39
  -1  -8  -7    0.16    0.38
  -1  -8  -7   -0.59    0.55
   1   8   7   -0.53    0.50
   1   8   7   -0.13    0.30
   1   8   7    0.29    0.58
  -2  -8  -7   20.02    0.94
  -2  -8  -7   21.39    1.01
  -2  -8  -7   23.18    1.43
  -2  -8  -7   22.43    1.11
   2   8   7   24.16    1.22
   2   8   7   20.30    1.33
  -3  -8  -7   58.25    1.66
  -3  -8  -7   58.81    1.71
  -3  -8  -7   58.47    2.13
  -3  -8  -7   61.20    1.75
  -3  -8  -7   59.56    1.70
   3   8   7   58.89    2.03
   3   8   7   59.01    1.75
  -4  -8  -7   14.48    0.97
  -4  -8  -7   14.48    1.31
  -4  -8  -7   15.45    0.96
  -4  -8  -7   13.78    0.93
  -4  -8  -7   15.49    0.83
   4   8   7   14.88    1.19
   4   8   7   14.64    0.91
  -5  -8  -7   33.32    1.72
  -5  -8  -7   34.52    1.37
  -5  -8  -7   35.57    1.47
   5   8   7   31.72    1.60
  -6  -8  -7   18.16    1.43
  -6  -8  -7   16.39    1.17
   6   8   7   14.23    1.30
  -7  -8  -7  101.89    2.85
  -7  -8  -7  107.58    3.17
   7   8   7  102.21    3.08
  -8  -8  -7    4.70    1.04
   8   8   7    4.66    1.10
   8   8   7    3.22    0.79
  -9  -8  -7   18.77    1.74
  -9  -8  -7   21.33    1.99
   9   8   7   13.28    1.74
   9   8   7   14.07    1.61
 -10  -8  -7    9.00    1.32
 -11  -8  -7    8.85    1.35
   7  -9  -7    2.40    1.18
  -7   9   7   -0.62    1.33
  -7   9   7    1.37    1.12
   6  -9  -7   29.00    2.73
   6  -9  -7   34.89    2.26
  -6   9   7   31.14    2.14
  -6   9   7   34.34    2.50
   5  -9  -7   15.65    1.91
   5  -9  -7   16.69    1.78
  -5   9   7   13.63    1.89
  -5   9   7   15.51    1.93
   4  -9  -7   17.59    2.04
   4  -9  -7   18.46    1.71
   4  -9  -7   18.35    1.65
  -4   9   7   17.31    1.47
  -4   9   7   18.35    2.14
  -4   9   7   18.06    1.88
  -4   9   7   20.39    1.47
   3  -9  -7   18.47    1.42
   3  -9  -7   18.40    1.70
   3  -9  -7   21.75    1.59
  -3   9   7   18.33    1.87
  -3   9   7   21.20    1.29
  -3   9   7   18.50    1.32
  -3   9   7   18.13    1.70
   2  -9  -7   24.82    1.64
   2  -9  -7   23.54    1.56
  -2   9   7   24.76    1.26
  -2   9   7   24.69    1.23
  -2   9   7   23.89    1.79
  -2   9   7   25.95    1.79
   1  -9  -7   16.25    1.30
   1  -9  -7   17.32    1.51
   1  -9  -7   17.83    1.11
  -1   9   7   16.53    1.04
  -1   9   7   18.07    1.53
  -1   9   7   16.21    1.56
  -1   9   7   15.45    0.98
   0  -9  -7    2.05    0.58
   0  -9  -7    1.89    0.76
   0  -9  -7    2.74    0.51
   0   9   7    2.78    0.49
   0   9   7    2.56    0.50
   0   9   7    2.18    0.71
   0   9   7    3.95    0.73
  -1  -9  -7    3.67    0.55
  -1  -9  -7    4.38    0.85
  -1  -9  -7    2.88    0.64
   1   9   7    2.92    0.71
   1   9   7    3.46    0.55
   1   9   7    4.38    0.77
  -2  -9  -7   55.10    2.10
  -2  -9  -7   52.38    1.78
  -2  -9  -7   51.82    1.56
  -2  -9  -7   52.94    1.62
  -2  -9  -7   50.46    1.50
   2   9   7   49.06    1.99
   2   9   7   47.70    2.11
  -3  -9  -7   52.41    1.67
  -3  -9  -7   53.39    1.61
  -3  -9  -7   53.71    1.56
  -3  -9  -7   55.80    1.75
  -3  -9  -7   54.04    2.13
   3   9   7   51.67    2.00
   3   9   7   52.72    1.75
  -4  -9  -7   93.93    2.48
  -4  -9  -7   93.12    2.37
  -4  -9  -7   89.86    2.29
  -4  -9  -7   89.62    2.34
  -4  -9  -7   92.44    2.85
   4   9   7   89.43    2.33
   4   9   7   90.44    2.75
  -5  -9  -7    1.07    0.50
  -5  -9  -7    1.79    0.57
  -5  -9  -7    0.67    0.68
   5   9   7    1.21    0.46
   5   9   7    1.32    0.60
  -6  -9  -7   56.47    2.10
  -6  -9  -7   58.68    2.31
  -6  -9  -7   52.76    1.87
   6   9   7   54.76    2.15
  -7  -9  -7   18.76    1.73
  -7  -9  -7   19.84    1.40
   7   9   7   19.07    1.54
  -8  -9  -7   16.77    1.81
  -8  -9  -7   12.01    1.80
   8   9   7   14.13    1.93
   8   9   7   14.50    1.56
  -9  -9  -7   10.12    1.62
   9   9   7   11.97    1.71
   9   9   7   11.54    1.44
 -10  -9  -7   14.47    1.90
 -11  -9  -7   -0.33    1.10
   6 -10  -7   -0.01    1.43
   6 -10  -7    2.04    1.20
  -6  10   7    3.27    1.21
  -6  10   7    1.74    1.07
   5 -10  -7    8.49    1.33
   5 -10  -7    9.02    1.38
  -5  10   7    8.44    1.48
  -5  10   7   13.82    2.43
  -5  10   7    9.91    1.18
   4 -10  -7    2.88    0.92
   4 -10  -7    3.59    0.94
  -4  10   7    2.69    0.84
  -4  10   7    1.94    0.87
  -4  10   7    3.35    0.81
   3 -10  -7   11.57    1.85
   3 -10  -7    9.04    1.37
   3 -10  -7   11.90    1.58
  -3  10   7   10.22    1.29
  -3  10   7   13.42    1.78
  -3  10   7    9.99    1.33
  -3  10   7   11.96    1.21
   2 -10  -7   25.15    1.57
   2 -10  -7   26.01    1.91
   2 -10  -7   25.81    1.73
  -2  10   7   27.31    1.45
  -2  10   7   24.25    1.93
  -2  10   7   28.48    1.30
  -2  10   7   27.04    2.03
   1 -10  -7   24.45    1.26
   1 -10  -7   24.79    1.61
   1 -10  -7   24.74    1.73
  -1  10   7   26.82    1.75
  -1  10   7   25.26    1.36
  -1  10   7   26.89    1.16
   0 -10  -7   35.11    1.87
   0 -10  -7   35.43    1.33
   0 -10  -7   36.73    1.73
   0  10   7   37.71    1.84
   0  10   7   34.76    1.91
   0  10   7   36.68    1.50
  -1 -10  -7    9.59    1.11
  -1 -10  -7   10.10    1.34
  -1 -10  -7   10.85    0.89
   1  10   7   11.83    1.30
   1  10   7   10.26    1.03
   1  10   7   10.71    1.44
  -2 -10  -7  109.99    2.50
  -2 -10  -7  114.89    3.23
  -2 -10  -7  108.15    2.56
  -2 -10  -7  108.01    2.96
  -2 -10  -7  106.11    2.83
   2  10   7  106.29    3.14
   2  10   7  109.02    2.94
  -3 -10  -7   64.90    1.79
  -3 -10  -7   68.91    2.13
  -3 -10  -7   66.30    2.06
  -3 -10  -7   66.37    2.47
  -3 -10  -7   67.88    1.87
   3  10   7   64.56    2.33
   3  10   7   68.59    2.19
  -4 -10  -7   70.22    1.99
  -4 -10  -7   71.13    2.22
  -4 -10  -7   69.11    2.17
  -4 -10  -7   68.67    1.92
  -4 -10  -7   67.91    2.48
   4  10   7   67.13    2.38
   4  10   7   69.34    2.06
  -5 -10  -7    0.04    0.47
  -5 -10  -7   -0.15    0.89
  -5 -10  -7   -0.41    0.56
   5  10   7    0.02    0.45
   5  10   7    0.21    0.63
  -6 -10  -7   51.94    2.34
  -6 -10  -7   50.46    1.91
  -6 -10  -7   53.60    2.12
   6  10   7   52.41    2.16
   6  10   7   51.44    1.64
  -7 -10  -7   14.57    1.36
  -7 -10  -7   11.61    1.61
  -7 -10  -7   11.14    1.74
   7  10   7   15.00    1.83
  -8 -10  -7   12.20    1.86
  -8 -10  -7   16.60    1.86
  -8 -10  -7   18.42    2.10
   8  10   7   16.18    1.74
  -9 -10  -7    0.41    1.25
  -9 -10  -7   -0.64    0.85
   9  10   7   -0.03    1.03
   9  10   7   -0.03    1.06
 -10 -10  -7    0.80    1.07
  10  10   7    1.28    1.01
 -11 -10  -7   13.76    1.55
   6 -11  -7    0.73    1.21
  -6  11   7    2.08    1.11
  -6  11   7    0.32    1.30
  -6  11   7    1.91    1.06
   5 -11  -7   21.63    2.22
   5 -11  -7   15.27    2.02
  -5  11   7   16.77    2.24
  -5  11   7   16.44    1.87
   4 -11  -7   21.89    2.02
   4 -11  -7   18.71    1.79
  -4  11   7   19.39    2.22
  -4  11   7   19.27    1.70
  -4  11   7   22.79    1.57
   3 -11  -7    4.73    0.88
   3 -11  -7    3.82    0.90
  -3  11   7    3.18    1.03
  -3  11   7    4.72    0.78
  -3  11   7    4.68    0.84
   2 -11  -7    0.95    0.64
   2 -11  -7    0.65    0.98
   2 -11  -7    0.88    0.80
  -2  11   7    1.61    0.97
  -2  11   7    0.35    0.67
  -2  11   7    1.06    0.52
  -2  11   7    0.45    0.92
   1 -11  -7   44.95    2.13
   1 -11  -7   42.82    2.25
   1 -11  -7   43.94    1.54
  -1  11   7   44.66    2.28
  -1  11   7   42.71    1.44
  -1  11   7   42.31    2.22
  -1  11   7   44.48    1.83
   0 -11  -7    9.66    1.61
   0 -11  -7   11.92    0.97
   0 -11  -7   10.33    1.31
   0  11   7    9.70    1.18
   0  11   7    9.89    1.52
   0  11   7   10.68    1.58
  -1 -11  -7    8.84    1.46
  -1 -11  -7    5.97    0.72
  -1 -11  -7    7.93    0.82
  -1 -11  -7    8.33    1.21
   1  11   7    9.03    1.33
   1  11   7    6.24    1.36
   1  11   7    7.55    1.13
  -2 -11  -7    2.88    0.73
  -2 -11  -7    2.52    0.85
  -2 -11  -7    3.69    0.68
  -2 -11  -7    3.25    0.45
  -2 -11  -7    3.35    0.51
   2  11   7    3.31    0.75
   2  11   7    1.56    0.72
  -3 -11  -7   52.52    1.57
  -3 -11  -7   48.09    1.87
  -3 -11  -7   49.60    1.49
  -3 -11  -7   49.47    2.24
  -3 -11  -7   52.02    1.97
   3  11   7   48.10    2.06
   3  11   7   50.96    1.93
  -4 -11  -7    7.67    1.16
  -4 -11  -7    6.65    1.06
  -4 -11  -7    7.17    0.89
  -4 -11  -7    7.62    1.11
  -4 -11  -7    8.97    0.94
   4  11   7    8.97    1.15
   4  11   7    8.51    1.31
  -5 -11  -7   71.63    2.08
  -5 -11  -7   74.55    2.75
  -5 -11  -7   75.19    2.51
   5  11   7   75.51    2.66
  -6 -11  -7   14.99    1.25
  -6 -11  -7   14.07    1.90
  -6 -11  -7   15.46    1.59
   6  11   7   18.00    1.23
  -7 -11  -7   48.17    2.52
  -7 -11  -7   51.49    2.06
  -7 -11  -7   45.81    2.33
   7  11   7   47.75    2.30
  -8 -11  -7    1.56    1.23
  -8 -11  -7    0.59    0.93
   8  11   7    2.74    0.94
  -9 -11  -7   19.17    2.66
  -9 -11  -7   16.88    2.00
   9  11   7   25.34    2.21
 -10 -11  -7    1.86    1.16
   5 -12  -7    3.82    1.17
  -5  12   7    8.04    1.36
  -5  12   7    4.67    1.13
  -5  12   7    3.41    1.33
   4 -12  -7   10.98    1.76
   4 -12  -7    7.97    1.32
  -4  12   7    7.21    0.97
  -4  12   7    6.87    1.11
  -4  12   7    7.70    1.31
   3 -12  -7   31.30    2.21
   3 -12  -7   32.09    1.77
  -3  12   7   32.14    1.96
  -3  12   7   32.00    1.53
  -3  12   7   28.54    2.33
   2 -12  -7   49.11    2.47
   2 -12  -7   49.49    1.75
  -2  12   7   47.66    1.65
  -2  12   7   51.85    2.21
  -2  12   7   50.25    2.67
   1 -12  -7   87.03    3.50
   1 -12  -7   89.19    3.12
   1 -12  -7   87.50    2.23
  -1  12   7   86.99    2.76
  -1  12   7   90.22    3.25
  -1  12   7   87.85    3.22
   0 -12  -7    6.85    1.14
   0 -12  -7    4.87    1.04
   0  12   7    5.60    0.91
   0  12   7    6.31    1.04
   0  12   7    5.01    1.05
  -1 -12  -7   72.58    2.94
   1  12   7   77.11    2.74
   1  12   7   74.95    2.54
   1  12   7   76.51    2.85
  -2 -12  -7    4.97    1.03
  -2 -12  -7    4.78    0.89
   2  12   7    8.21    1.33
   2  12   7    4.87    0.90
  -3 -12  -7    9.23    0.80
  -3 -12  -7   10.59    1.29
  -3 -12  -7   11.86    1.37
  -3 -12  -7   12.32    1.33
  -3 -12  -7   10.99    0.96
   3  12   7   13.74    1.45
   3  12   7   10.66    1.34
  -4 -12  -7   26.89    1.27
  -4 -12  -7   26.21    1.18
  -4 -12  -7   25.80    1.60
  -4 -12  -7   24.12    2.05
  -4 -12  -7   28.78    1.73
   4  12   7   25.27    1.77
   4  12   7   28.08    1.60
  -5 -12  -7   15.50    1.27
  -5 -12  -7   18.07    1.67
  -5 -12  -7   16.12    1.15
  -5 -12  -7   14.53    1.93
   5  12   7   15.88    1.66
   5  12   7   17.71    1.45
  -6 -12  -7    2.68    1.19
  -6 -12  -7    2.47    0.91
  -6 -12  -7    3.05    0.76
   6  12   7    2.44    0.84
   6  12   7    4.51    0.84
  -7 -12  -7   -0.11    0.77
  -7 -12  -7    0.38    1.18
   7  12   7   -0.42    0.67
   7  12   7    0.52    0.91
   7  12   7    2.24    0.79
  -8 -12  -7   13.53    1.77
   8  12   7   16.00    1.98
  -9 -12  -7    0.87    1.09
   9  12   7    3.71    1.20
   4 -13  -7   19.19    2.33
  -4  13   7   21.43    2.58
  -4  13   7   23.35    2.15
   3 -13  -7    4.11    1.15
  -3  13   7    2.27    0.99
  -3  13   7    1.57    0.67
  -3  13   7    0.88    1.13
   2 -13  -7   25.25    2.15
  -2  13   7   22.04    1.86
  -2  13   7   22.37    2.24
   1 -13  -7   -0.54    1.00
  -1  13   7   -0.23    0.76
  -1  13   7    1.09    1.02
   0 -13  -7   33.96    2.16
   0  13   7   33.68    2.27
   0  13   7   38.28    2.43
  -1 -13  -7    9.95    1.61
  -1 -13  -7    7.10    1.36
   1  13   7    9.18    1.37
   1  13   7   12.72    1.82
   1  13   7    8.61    1.30
  -2 -13  -7    9.01    1.54
  -2 -13  -7    6.53    1.23
   2  13   7    9.52    1.58
   2  13   7    9.51    1.59
  -3 -13  -7    0.38    0.91
  -3 -13  -7   -0.05    0.96
  -3 -13  -7    0.07    0.79
   3  13   7    2.40    0.89
   3  13   7    2.36    0.84
  -4 -13  -7   29.34    2.16
  -4 -13  -7   31.78    2.36
  -4 -13  -7   27.72    2.01
   4  13   7   34.74    1.92
   4  13   7   33.39    2.08
  -5 -13  -7   -0.25    0.65
  -5 -13  -7   -0.40    0.60
  -5 -13  -7   -0.46    1.13
  -5 -13  -7    0.87    0.90
   5  13   7    1.19    0.85
   5  13   7    1.48    0.97
  -6 -13  -7   13.95    2.44
  -6 -13  -7   19.10    1.69
  -6 -13  -7   16.69    1.42
   6  13   7   20.25    1.73
   6  13   7   19.78    1.90
  -7 -13  -7   -0.19    0.89
  -7 -13  -7   -0.38    1.34
   7  13   7    1.64    0.94
   7  13   7    0.23    1.03
  -8 -13  -7   25.76    2.10
   8  13   7   31.30    2.40
   8  13   7   28.38    1.93
  -9 -13  -7   -0.72    1.24
   9  13   7    2.31    1.29
   3 -14  -7   15.49    2.31
  -3  14   7   10.27    1.57
  -3  14   7   10.27    1.37
   2 -14  -7   16.39    2.13
  -2  14   7   14.71    1.88
  -2  14   7   17.54    2.24
   1 -14  -7   19.41    2.12
  -1  14   7   19.41    1.89
  -1  14   7   21.20    2.36
   0 -14  -7   42.74    2.55
   0  14   7   43.97    2.57
   0  14   7   44.40    2.32
  -1 -14  -7    2.22    1.02
   1  14   7    1.28    0.94
   1  14   7    4.62    1.16
  -2 -14  -7    7.88    1.34
   2  14   7   13.01    2.00
   2  14   7   13.16    1.80
  -3 -14  -7    3.72    1.06
  -3 -14  -7    3.20    1.01
   3  14   7    5.02    1.09
   3  14   7    5.68    1.17
  -4 -14  -7    1.66    1.82
   4  14   7    3.02    1.05
   4  14   7    2.64    1.03
   5  14   7   28.18    2.20
   5  14   7   25.79    2.21
  -6 -14  -7   -0.38    0.95
   6  14   7    0.23    1.01
   6  14   7    1.80    1.07
  -7 -14  -7    8.18    1.15
   7  14   7    9.25    1.39
   7  14   7    5.69    1.82
  -8 -14  -7    0.83    2.06
   8  14   7    9.93    1.82
   8  14   7    6.30    1.38
   2 -15  -7    3.61    1.49
  -2  15   7    4.76    1.62
   1 -15  -7   20.75    2.38
  -1  15   7   19.07    2.15
  -1  15   7   21.73    2.44
   0 -15  -7   -1.03    1.16
   0  15   7   -1.09    1.07
   0  15   7    1.20    1.25
  -1 -15  -7   21.96    2.40
   1  15   7   21.07    2.08
   1  15   7   22.54    2.34
  -2 -15  -7    3.43    1.13
   2  15   7    6.18    1.34
  -3 -15  -7    3.88    1.12
   3  15   7    3.69    1.01
   4  15   7   11.72    2.47
   4  15   7    9.34    1.43
   5  15   7   16.96    2.19
   5  15   7   21.72    2.51
   6  15   7   -0.78    1.07
   6  15   7    2.55    1.38
   7  15   7    7.56    1.45
   7  15   7    9.24    1.59
   0 -16  -7   23.45    2.74
   0  16   7   18.36    2.38
   0  16   7   27.95    2.76
  -1 -16  -7    7.56    1.60
   1  16   7    7.35    1.36
  -2 -16  -7    1.99    1.23
   2  16   7    1.96    1.18
  -3 -16  -7   -0.05    1.24
   3  16   7    3.76    1.21
   4  16   7    7.63    1.38
   5  16   7    2.65    1.29
   1  10  -8   20.43    2.33
   0  10  -8    0.85    1.08
  -1  10  -8   20.65    2.15
  -1  10  -8   12.78    2.07
  -2  10  -8    9.13    1.23
  -2  10  -8   12.17    2.05
  -2  10  -8    6.62    1.17
  -3  10  -8    3.39    1.11
  -3  10  -8    1.11    1.10
  -3  10  -8    1.00    1.12
  -4  10  -8    1.70    1.09
  -4  10  -8    1.67    1.23
  -4  10  -8   -2.15    1.22
   3   9  -8   -2.26    1.11
  -3  -9   8    1.74    1.20
   2   9  -8   14.57    2.11
  -2  -9   8   15.55    1.97
   1   9  -8   34.98    2.37
   1   9  -8   35.89    2.23
   0   9  -8    7.78    1.50
   0   9  -8    4.95    1.11
   0   9  -8    7.62    1.04
  -1   9  -8   27.23    2.07
  -1   9  -8   27.46    1.77
  -1   9  -8   28.51    1.78
  -1   9  -8   24.66    2.11
  -1   9  -8   29.48    1.56
  -2   9  -8   13.32    1.61
  -2   9  -8    8.46    1.24
  -2   9  -8   12.95    1.70
  -2   9  -8    8.19    1.13
  -2   9  -8   12.21    1.90
  -2   9  -8   12.90    1.89
  -3   9  -8    6.85    1.35
  -3   9  -8    6.85    1.14
  -3   9  -8    5.94    1.16
  -3   9  -8    5.51    1.08
  -3   9  -8    5.41    0.84
  -4   9  -8   14.54    1.95
  -4   9  -8   10.70    1.39
  -4   9  -8    9.40    0.98
  -4   9  -8    9.49    1.62
  -4   9  -8    9.09    1.35
  -5   9  -8   -1.07    1.01
  -5   9  -8    0.71    1.07
  -5   9  -8    2.01    0.80
  -6   9  -8   22.82    2.41
  -6   9  -8   20.16    2.37
   4   8  -8    8.36    1.42
   4   8  -8    9.72    2.63
  -4  -8   8   12.83    1.54
   3   8  -8    3.71    1.26
   3   8  -8    5.45    1.35
  -3  -8   8    4.42    1.13
   2   8  -8   30.42    2.11
   2   8  -8   31.01    2.22
  -2  -8   8   28.93    2.20
   1   8  -8    0.91    0.92
   1   8  -8   -2.03    1.22
  -1  -8   8    0.32    0.81
   0   8  -8   41.22    1.92
   0   8  -8   38.45    2.25
   0   8  -8   40.47    2.22
  -1   8  -8    4.27    0.96
  -1   8  -8    3.82    0.79
  -1   8  -8    4.95    0.91
  -1   8  -8    4.24    0.93
  -2   8  -8   37.33    2.16
  -2   8  -8   34.37    1.60
  -2   8  -8   35.48    1.75
  -2   8  -8   36.62    1.83
  -2   8  -8   32.82    1.93
  -2   8  -8   38.13    2.09
  -3   8  -8    0.70    0.83
  -3   8  -8   -0.41    0.97
  -3   8  -8   -0.08    0.63
  -3   8  -8    0.26    0.83
  -3   8  -8   -0.36    0.76
  -3   8  -8    0.82    0.91
  -4   8  -8   16.85    1.84
  -4   8  -8   20.04    1.74
  -4   8  -8   18.97    2.20
  -4   8  -8   19.00    1.95
  -4   8  -8   18.75    1.43
  -4   8  -8   20.16    1.87
  -5   8  -8    2.15    0.81
  -5   8  -8    1.94    0.95
  -5   8  -8    2.38    1.01
  -6   8  -8   13.20    2.12
  -6   8  -8   17.35    2.14
  -7   8  -8    7.74    1.37
  -7   8  -8    8.76    1.17
  -7   8  -8    4.80    1.32
   5   7  -8   -0.93    1.12
  -5  -7   8    1.27    1.16
   4   7  -8   23.85    2.19
   4   7  -8   20.25    2.39
  -4  -7   8   20.46    2.02
   3   7  -8    2.71    1.10
   3   7  -8    1.39    1.05
  -3  -7   8    2.67    0.95
  -3  -7   8    2.42    1.17
   2   7  -8    3.12    0.95
   2   7  -8    2.26    0.90
  -2  -7   8    3.57    0.93
  -2  -7   8    1.02    1.04
   1   7  -8   41.22    2.29
   1   7  -8   43.02    1.98
  -1  -7   8   46.17    2.02
   0   7  -8   17.23    1.55
   0   7  -8   16.98    1.48
   0   7  -8   15.94    1.70
  -1   7  -8   26.91    1.41
  -1   7  -8   24.37    1.28
  -1   7  -8   28.26    2.29
  -1   7  -8   26.72    1.62
  -1   7  -8   27.20    1.75
  -1   7  -8   30.05    1.86
  -2   7  -8    1.26    0.70
  -2   7  -8   -0.93    0.67
  -2   7  -8    1.09    1.00
  -2   7  -8    1.28    0.78
  -2   7  -8   -0.30    0.69
  -2   7  -8    1.69    0.68
  -2   7  -8    0.48    0.61
  -3   7  -8   36.39    1.77
  -3   7  -8   36.84    1.62
  -3   7  -8   32.99    2.33
  -3   7  -8   35.40    1.81
  -3   7  -8   37.07    2.02
  -3   7  -8   36.12    1.97
  -3   7  -8   35.09    1.96
  -4   7  -8    0.10    0.94
  -4   7  -8    0.85    1.05
  -4   7  -8   -0.41    0.75
  -4   7  -8   -0.56    0.58
  -4   7  -8   -0.87    0.76
  -5   7  -8   28.16    2.06
  -5   7  -8   29.92    1.82
  -5   7  -8   25.02    2.03
  -5   7  -8   31.03    2.01
  -5   7  -8   24.59    2.35
  -5   7  -8   26.57    2.34
  -6   7  -8   20.72    2.10
  -6   7  -8   13.86    1.82
  -6   7  -8   21.94    1.84
  -6   7  -8   18.65    1.59
  -7   7  -8   51.35    2.28
  -7   7  -8   53.22    2.83
  -7   7  -8   51.90    2.63
  -7   7  -8   53.30    2.61
  -8   7  -8    1.39    1.34
  -8   7  -8   -1.82    0.98
  -8   7  -8   -0.35    1.04
   6   6  -8   -0.40    1.24
  -6  -6   8    0.68    1.19
   5   6  -8   37.68    2.42
  -5  -6   8   36.13    2.37
   4   6  -8   -0.40    0.81
   4   6  -8    0.88    1.13
  -4  -6   8    0.98    1.03
  -4  -6   8    0.46    1.00
   3   6  -8   44.41    2.37
   3   6  -8   42.58    2.25
  -3  -6   8   40.45    2.32
  -3  -6   8   43.76    2.20
   2   6  -8   13.90    1.64
   2   6  -8   19.26    1.72
  -2  -6   8   16.27    1.70
  -2  -6   8   14.70    1.51
   1   6  -8   67.23    2.61
   1   6  -8   64.73    2.91
   1   6  -8   66.78    2.33
  -1  -6   8   63.23    2.47
  -1  -6   8   63.11    2.27
   0   6  -8    5.13    0.83
   0   6  -8    4.51    0.78
   0   6  -8    5.18    1.06
   0   6  -8    5.81    0.92
   0  -6   8    5.56    0.84
  -1   6  -8   79.99    2.96
  -1   6  -8   80.35    2.57
  -1   6  -8   80.00    2.71
  -1   6  -8   74.69    2.11
  -1   6  -8   77.05    2.42
  -1   6  -8   77.60    2.18
  -2   6  -8    3.67    0.74
  -2   6  -8    3.90    0.68
  -2   6  -8    3.81    0.77
  -2   6  -8    3.36    0.93
  -2   6  -8    3.21    0.73
  -2   6  -8    4.21    0.79
  -3   6  -8   52.93    2.39
  -3   6  -8   49.94    2.37
  -3   6  -8   51.55    1.97
  -3   6  -8   51.35    1.81
  -3   6  -8   50.88    2.15
  -3   6  -8   50.19    2.07
  -3   6  -8   49.08    1.92
  -4   6  -8   -0.60    0.81
  -4   6  -8   -0.56    0.66
  -4   6  -8    1.03    0.74
  -4   6  -8    0.87    0.63
  -4   6  -8    0.84    0.82
  -4   6  -8    0.18    0.79
  -4   6  -8    0.75    0.58
  -5   6  -8    2.53    0.87
  -5   6  -8    3.27    1.02
  -5   6  -8    3.25    0.75
  -5   6  -8    3.98    1.10
  -5   6  -8    4.16    0.81
  -5   6  -8    3.16    0.83
  -6   6  -8    1.78    0.98
  -6   6  -8    1.34    0.75
  -6   6  -8    2.20    1.13
  -6   6  -8    2.18    1.00
  -6   6  -8    1.37    0.90
  -6   6  -8    1.44    0.82
  -7   6  -8    7.07    1.37
  -7   6  -8    8.47    1.30
  -7   6  -8    7.77    1.24
  -7   6  -8    8.54    1.02
  -7   6  -8   12.85    1.77
  -8   6  -8   16.64    2.17
  -8   6  -8   12.55    1.57
  -8   6  -8   15.38    1.84
  -9   6  -8    1.99    1.15
  -9   6  -8    1.39    1.36
   6   5  -8   23.37    2.37
  -6  -5   8   32.62    2.35
   5   5  -8   38.94    2.44
  -5  -5   8   39.13    2.31
  -5  -5   8   37.66    2.51
   4   5  -8   14.03    1.94
   4   5  -8   13.25    1.77
  -4  -5   8   17.87    1.74
  -4  -5   8   16.30    1.83
   3   5  -8    9.72    1.23
   3   5  -8   10.66    1.57
  -3  -5   8    8.65    1.07
   2   5  -8   30.97    1.81
   2   5  -8   30.76    1.90
  -2  -5   8   35.32    1.78
  -2  -5   8   33.71    1.78
   1   5  -8   12.45    1.42
   1   5  -8   14.07    1.38
  -1  -5   8    8.39    1.33
  -1  -5   8   12.38    1.23
   0   5  -8  116.00    3.08
   0   5  -8  111.47    3.51
   0   5  -8  112.96    3.02
   0  -5   8  116.04    3.05
  -1   5  -8    0.45    0.49
  -1   5  -8    1.10    0.53
  -1   5  -8    0.29    0.69
  -1   5  -8    0.98    0.47
  -1   5  -8    1.23    0.63
  -1   5  -8   -0.14    0.59
  -2   5  -8   27.57    1.31
  -2   5  -8   28.62    1.45
  -2   5  -8   26.30    1.59
  -2   5  -8   27.51    1.79
  -2   5  -8   27.59    1.49
  -2   5  -8   26.21    1.42
  -3   5  -8    2.69    0.75
  -3   5  -8    1.20    0.68
  -3   5  -8    2.65    0.80
  -3   5  -8    0.89    0.55
  -3   5  -8    1.73    0.62
  -3   5  -8    2.41    0.58
  -3   5  -8    2.24    0.66
  -4   5  -8   78.92    2.28
  -4   5  -8   77.72    2.39
  -4   5  -8   78.34    2.56
  -4   5  -8   79.38    2.71
  -4   5  -8   78.00    2.49
  -4   5  -8   79.50    2.66
  -4   5  -8   79.61    2.52
  -5   5  -8    1.81    0.81
  -5   5  -8    3.49    0.77
  -5   5  -8    2.73    0.69
  -5   5  -8    3.37    1.02
  -5   5  -8    2.39    0.77
  -5   5  -8    2.45    0.79
  -6   5  -8   17.95    1.69
  -6   5  -8   17.46    1.43
  -6   5  -8   19.49    2.03
  -6   5  -8   19.34    1.76
  -6   5  -8   20.06    1.87
  -7   5  -8    1.49    0.89
  -7   5  -8    0.89    0.87
  -7   5  -8    2.60    0.90
  -7   5  -8    0.03    0.74
  -8   5  -8   44.93    2.33
  -8   5  -8   35.06    2.15
  -9   5  -8    4.15    1.13
  -9   5  -8    1.86    1.02
   7   4  -8   -1.18    1.32
  -7  -4   8   -2.36    1.06
   6   4  -8   49.20    2.79
  -6  -4   8   60.69    2.75
  -6  -4   8   55.69    2.92
   5   4  -8    1.22    0.93
  -5  -4   8    1.64    1.00
  -5  -4   8    2.90    1.00
   4   4  -8   47.77    2.44
   4   4  -8   47.75    2.39
  -4  -4   8   52.68    2.30
  -4  -4   8   49.95    2.15
   3   4  -8    0.75    0.67
   3   4  -8    2.46    0.87
  -3  -4   8    2.44    0.71
  -3  -4   8    2.09    0.74
   2   4  -8    4.19    0.79
   2   4  -8    3.51    0.82
  -2  -4   8    3.06    0.69
  -2  -4   8    3.13    0.74
   1   4  -8   53.31    1.99
   1   4  -8   49.60    2.08
  -1  -4   8   50.82    1.90
  -1  -4   8   50.26    1.85
   0   4  -8   19.99    1.47
   0   4  -8   17.11    1.32
   0   4  -8   19.79    1.19
   0  -4   8   19.82    1.31
  -1   4  -8   12.06    0.89
  -1   4  -8   13.03    1.21
  -1   4  -8   13.19    1.15
  -1   4  -8   11.79    0.83
  -1   4  -8   12.78    1.37
  -1   4  -8   12.47    1.02
  -2   4  -8   33.53    1.58
  -2   4  -8   34.87    1.44
  -2   4  -8   34.17    1.54
  -2   4  -8   33.47    1.42
  -2   4  -8   34.69    1.77
  -2   4  -8   34.11    1.45
  -3   4  -8   35.00    1.72
  -3   4  -8   34.39    1.50
  -3   4  -8   32.88    1.57
  -3   4  -8   34.30    1.54
  -3   4  -8   33.13    1.49
  -3   4  -8   34.63    1.43
  -3   4  -8   35.25    1.48
  -4   4  -8   89.60    2.64
  -4   4  -8   95.26    2.55
  -4   4  -8   97.32    2.65
  -4   4  -8   94.42    2.83
  -4   4  -8   93.03    2.69
  -4   4  -8   96.55    2.86
  -4   4  -8   96.67    2.76
  -5   4  -8    3.08    0.82
  -5   4  -8    2.20    0.74
  -5   4  -8    2.66    0.62
  -5   4  -8    2.14    0.63
  -5   4  -8    2.02    0.80
  -5   4  -8    1.67    0.71
  -6   4  -8    1.75    0.74
  -6   4  -8    3.53    0.80
  -6   4  -8    2.31    0.69
  -6   4  -8    1.15    0.86
  -6   4  -8    2.87    0.81
  -7   4  -8   11.78    1.41
  -7   4  -8   11.56    1.61
  -7   4  -8    7.75    1.30
  -8   4  -8   14.14    1.90
  -8   4  -8   10.08    1.57
  -9   4  -8   23.13    1.95
  -9   4  -8   30.06    2.11
  -9   4  -8   24.31    2.22
 -10   4  -8   31.89    2.70
 -10   4  -8   29.65    2.38
   7   3  -8   45.36    2.88
  -7  -3   8   43.10    2.59
   6   3  -8    8.54    1.31
  -6  -3   8    9.00    1.32
  -6  -3   8   11.17    1.81
   5   3  -8   55.56    2.66
   5   3  -8   59.25    3.25
  -5  -3   8   56.93    2.49
  -5  -3   8   56.88    2.33
   4   3  -8    9.34    1.29
   4   3  -8   11.21    1.64
  -4  -3   8   12.37    1.77
  -4  -3   8   10.67    1.38
  -4  -3   8    8.39    1.14
   3   3  -8   18.89    1.59
   3   3  -8   19.82    1.60
  -3  -3   8   19.92    1.38
  -3  -3   8   20.57    1.51
  -3  -3   8   16.87    1.68
   2   3  -8    7.18    0.95
   2   3  -8    8.18    1.26
  -2  -3   8    6.71    1.05
  -2  -3   8    6.98    1.12
   1   3  -8   31.21    1.67
   1   3  -8   34.31    1.57
  -1  -3   8   29.83    1.51
  -1  -3   8   31.93    1.38
   0   3  -8    1.01    0.55
   0   3  -8    1.36    0.46
   0   3  -8    0.97    0.58
   0  -3   8    0.97    0.54
  -1   3  -8   34.94    1.23
  -1   3  -8   34.24    1.71
  -1   3  -8   36.50    1.34
  -1   3  -8   34.85    1.25
  -1   3  -8   35.64    1.51
   1  -3   8   35.05    1.49
  -2   3  -8    7.31    0.97
  -2   3  -8    9.35    1.11
  -2   3  -8    8.38    0.98
  -2   3  -8    7.17    0.89
  -2   3  -8    8.34    0.83
  -2   3  -8    7.66    0.83
  -3   3  -8   21.05    1.23
  -3   3  -8   21.72    1.39
  -3   3  -8   17.56    1.45
  -3   3  -8   21.47    1.11
  -3   3  -8   20.25    1.19
  -3   3  -8   22.66    1.24
  -4   3  -8    9.88    1.11
  -4   3  -8   11.48    1.14
  -4   3  -8   10.03    1.03
  -4   3  -8    9.66    1.00
  -4   3  -8   10.07    1.14
  -4   3  -8   10.76    0.99
  -4   3  -8    9.77    0.98
  -5   3  -8   16.86    1.14
  -5   3  -8   15.31    1.24
  -5   3  -8   16.14    1.33
  -5   3  -8   15.38    1.27
  -5   3  -8   15.82    1.43
  -6   3  -8   23.62    1.39
  -6   3  -8   17.59    1.35
  -6   3  -8   18.07    1.70
  -6   3  -8   18.86    1.70
  -6   3  -8   18.68    1.44
  -7   3  -8   16.10    1.49
  -7   3  -8   16.76    1.96
  -7   3  -8   19.01    1.61
  -7   3  -8   16.76    1.37
  -8   3  -8    3.19    0.77
  -8   3  -8    1.91    0.89
  -8   3  -8    1.68    0.79
  -9   3  -8   52.43    2.70
  -9   3  -8   53.29    2.45
  -9   3  -8   55.51    2.29
 -10   3  -8    2.15    1.09
 -10   3  -8    0.60    1.13
   8   2  -8   -2.39    1.37
  -8  -2   8   -0.03    1.85
   7   2  -8   15.57    2.40
  -7  -2   8   16.28    2.55
  -7  -2   8   21.01    2.12
   6   2  -8    6.59    1.25
  -6  -2   8    7.27    1.14
  -6  -2   8    7.28    1.11
   5   2  -8    0.01    0.99
   5   2  -8    1.44    1.00
  -5  -2   8    0.61    1.74
  -5  -2   8    1.43    0.77
  -5  -2   8    2.05    0.87
   4   2  -8    6.16    0.97
   4   2  -8    8.95    1.16
  -4  -2   8    9.83    1.20
  -4  -2   8    6.02    0.98
  -4  -2   8    7.31    0.99
   3   2  -8    3.58    1.41
   3   2  -8    4.68    0.83
  -3  -2   8    3.14    0.81
  -3  -2   8    4.10    1.08
  -3  -2   8    3.57    0.76
   2   2  -8    3.03    0.71
   2   2  -8    1.83    0.73
  -2  -2   8    2.68    0.77
  -2  -2   8    2.65    0.52
  -2  -2   8    1.83    0.63
   1   2  -8    0.30    0.53
   1   2  -8   -0.02    0.49
  -1  -2   8    0.35    0.49
  -1  -2   8    0.63    0.38
  -1  -2   8    0.45    0.52
   0   2  -8  181.64    4.26
   0   2  -8  183.86    4.19
   0  -2   8  178.49    4.15
  -1   2  -8  156.84    3.65
  -1   2  -8  146.76    3.30
  -1   2  -8  154.39    3.36
  -1   2  -8  157.71    3.70
   1  -2   8  153.24    3.62
  -2   2  -8   72.89    2.00
  -2   2  -8   70.59    1.91
  -2   2  -8   72.78    2.18
  -2   2  -8   72.22    2.12
  -3   2  -8  238.09    5.07
  -3   2  -8  232.51    4.93
  -3   2  -8  243.05    5.13
  -3   2  -8  236.73    5.11
  -4   2  -8   20.87    1.11
  -4   2  -8   20.21    1.13
  -4   2  -8   20.09    1.29
  -4   2  -8   19.84    1.18
  -4   2  -8   19.46    1.19
  -5   2  -8  191.75    4.55
  -5   2  -8  190.38    4.38
  -5   2  -8  192.44    4.30
  -5   2  -8  189.59    4.18
  -5   2  -8  186.39    4.26
  -5   2  -8  194.98    4.53
  -6   2  -8   -0.04    0.48
  -6   2  -8    0.17    0.56
  -6   2  -8   -0.23    0.69
  -6   2  -8   -0.28    0.48
  -7   2  -8    1.76    0.82
  -7   2  -8    1.23    0.83
  -7   2  -8    2.36    0.71
  -7   2  -8    2.60    0.63
  -8   2  -8    4.77    1.22
  -8   2  -8    4.55    0.81
  -8   2  -8    3.57    0.88
  -8   2  -8    6.09    1.20
  -9   2  -8    1.23    0.90
  -9   2  -8   -0.29    0.83
  -9   2  -8    1.15    0.96
 -10   2  -8   10.06    1.34
 -10   2  -8   11.55    1.91
 -11   2  -8    5.12    2.08
 -11   2  -8    2.65    1.25
   8   1  -8   14.39    1.85
  -8  -1   8   17.26    2.38
   7   1  -8   -0.95    1.11
  -7  -1   8    0.29    0.98
   6   1  -8   23.50    2.10
  -6  -1   8   23.86    1.91
  -6  -1   8   26.04    1.95
   5   1  -8    0.02    0.94
   5   1  -8    0.23    0.98
  -5  -1   8   -1.09    0.80
  -5  -1   8   -1.32    0.65
  -5  -1   8   -0.36    0.70
   4   1  -8   34.85    2.01
   4   1  -8   33.06    1.96
  -4  -1   8   33.20    1.54
  -4  -1   8   34.22    1.89
  -4  -1   8   34.73    1.80
   3   1  -8   13.89    1.44
   3   1  -8   13.37    1.41
  -3  -1   8   13.79    1.34
  -3  -1   8   13.78    1.32
  -3  -1   8   13.57    1.03
   2   1  -8   -0.11    0.57
   2   1  -8   -0.42    0.51
  -2  -1   8    0.15    0.38
  -2  -1   8    0.16    0.52
  -2  -1   8    0.42    0.58
   1   1  -8    1.77    0.54
   1   1  -8    1.65    0.56
  -1  -1   8    2.34    0.62
  -1  -1   8    2.17    0.40
  -1  -1   8    2.70    0.61
   0   1  -8   22.11    1.25
   0   1  -8   20.83    1.19
   0  -1   8   20.34    1.16
   0  -1   8   20.52    1.24
   0  -1   8   19.14    0.84
  -1   1  -8    5.55    0.84
  -1   1  -8    5.92    0.89
  -1   1  -8    4.28    0.63
  -1   1  -8    6.18    0.57
   1  -1   8    4.93    0.81
  -2   1  -8   49.82    1.55
  -2   1  -8   49.64    1.40
  -2   1  -8   49.37    1.63
  -2   1  -8   49.80    1.74
  -3   1  -8    7.28    0.76
  -3   1  -8    8.89    0.88
  -3   1  -8    8.50    0.87
  -3   1  -8    8.03    0.69
  -3   1  -8    7.49    0.83
  -4   1  -8   96.22    2.57
  -4   1  -8   95.13    2.49
  -4   1  -8   93.93    2.44
  -4   1  -8   92.49    2.61
  -4   1  -8   92.41    2.35
  -5   1  -8    5.17    0.77
  -5   1  -8    4.95    0.75
  -5   1  -8    5.74    0.85
  -5   1  -8    6.10    0.77
  -5   1  -8    6.30    0.97
  -6   1  -8   69.66    1.89
  -6   1  -8   66.75    1.91
  -6   1  -8   70.76    2.44
  -6   1  -8   68.51    2.16
  -7   1  -8    2.72    0.84
  -7   1  -8    4.11    0.60
  -7   1  -8    3.84    0.70
  -7   1  -8    2.30    0.87
  -8   1  -8   19.61    1.91
  -8   1  -8   18.85    1.49
  -8   1  -8   19.53    1.70
  -9   1  -8   16.08    1.82
  -9   1  -8   17.56    1.65
 -10   1  -8   52.23    2.63
 -10   1  -8   51.74    2.50
 -11   1  -8    4.84    1.31
 -11   1  -8    3.67    1.15
   8   0  -8    1.10    1.27
  -8   0   8    3.18    1.38
   7   0  -8   15.87    2.20
  -7   0   8   11.84    1.94
   6   0  -8   13.46    1.99
  -6   0   8   16.53    1.78
   5   0  -8   41.32    2.25
   5   0  -8   40.17    2.30
  -5   0   8   40.42    2.06
  -5   0   8   45.74    2.28
   4   0  -8   52.50    2.49
   4   0  -8   53.58    2.31
  -4   0   8   51.67    1.82
  -4   0   8   53.88    2.26
  -4   0   8   51.57    2.19
   3   0  -8   19.24    1.53
   3   0  -8   20.65    1.47
  -3   0   8   21.36    1.50
  -3   0   8   18.15    1.37
  -3   0   8   19.14    1.04
   2   0  -8  130.13    3.45
   2   0  -8  132.88    3.42
  -2   0   8  133.22    2.89
  -2   0   8  135.02    3.43
  -2   0   8  129.85    3.38
   1   0  -8    2.63    0.60
   1   0  -8    3.72    0.65
   1   0  -8    2.02    0.56
  -1   0   8    3.99    0.56
  -1   0   8    2.45    0.62
  -1   0   8    2.76    0.57
  -1   0   8    3.74    0.55
   0   0  -8  134.11    3.26
   0   0  -8  130.80    2.89
   0   0  -8  136.63    3.29
   0   0   8  129.77    3.24
   0   0   8  137.85    3.26
   0   0   8  129.24    2.89
  -1   0  -8  115.81    3.31
  -1   0  -8  117.35    2.69
  -1   0  -8  115.38    2.46
  -1   0  -8  118.72    2.89
   1   0   8  117.80    2.96
   1   0   8  121.17    2.89
   1   0   8  119.46    2.72
  -2   0  -8  226.99    4.59
  -2   0  -8  236.73    4.90
  -2   0  -8  237.22    4.88
   2   0   8  239.06    4.93
  -3   0  -8    5.24    0.77
  -3   0  -8    4.63    0.75
  -3   0  -8    4.42    0.64
   3   0   8    4.45    0.79
  -4   0  -8   36.56    1.39
  -4   0  -8   36.44    1.28
  -4   0  -8   35.18    1.19
  -4   0  -8   35.48    1.45
  -4   0  -8   35.32    1.48
  -5   0  -8   37.56    1.25
  -5   0  -8   38.97    1.65
  -5   0  -8   36.26    1.46
  -5   0  -8   37.35    1.20
  -6   0  -8   -0.01    0.61
  -6   0  -8    0.35    0.30
  -7   0  -8   13.39    1.47
  -7   0  -8   11.80    1.19
  -8   0  -8   23.69    1.57
  -8   0  -8   22.90    1.88
  -9   0  -8   18.29    1.61
  -9   0  -8   18.62    1.71
 -10   0  -8    2.20    0.95
 -10   0  -8    2.17    1.14
 -11   0  -8   20.21    2.17
 -11   0  -8   20.74    2.08
   8  -1  -8    1.51    1.40
  -8   1   8    3.61    1.36
   7  -1  -8    4.72    1.33
  -7   1   8    5.44    1.25
   6  -1  -8    4.32    1.05
  -6   1   8    5.06    1.06
   5  -1  -8   71.27    2.77
   5  -1  -8   71.13    2.85
  -5   1   8   67.88    2.56
  -5   1   8   69.21    2.70
   4  -1  -8    3.95    0.86
  -4   1   8    2.94    0.70
   3  -1  -8   73.23    2.41
   3  -1  -8   72.29    2.52
  -3   1   8   68.58    1.84
  -3   1   8   72.00    2.37
  -3   1   8   73.51    2.38
   2  -1  -8   43.46    1.77
   2  -1  -8   43.19    1.81
   2  -1  -8   40.74    1.34
  -2   1   8   42.47    1.22
  -2   1   8   41.84    1.71
  -2   1   8   41.97    1.29
   1  -1  -8   27.72    1.35
   1  -1  -8   27.64    1.11
   1  -1  -8   26.82    1.36
  -1   1   8   26.84    0.99
  -1   1   8   25.96    1.31
   0  -1  -8    2.53    0.53
   0  -1  -8    2.50    0.47
   0  -1  -8    1.91    0.48
   0   1   8    2.48    0.53
   0   1   8    2.57    0.42
   0   1   8    2.26    0.45
  -1  -1  -8   88.36    2.20
  -1  -1  -8   88.29    2.31
   1   1   8   92.18    2.51
   1   1   8   90.12    2.29
   1   1   8   82.81    2.36
  -2  -1  -8   12.42    0.82
  -2  -1  -8   11.61    1.10
  -2  -1  -8   12.73    0.85
   2   1   8   13.42    0.83
   2   1   8   12.79    0.88
  -3  -1  -8   70.55    1.79
  -3  -1  -8   69.68    2.00
   3   1   8   66.64    2.00
  -4  -1  -8    7.49    0.77
  -4  -1  -8    7.18    0.60
  -4  -1  -8    7.44    0.65
  -4  -1  -8    6.90    0.84
  -4  -1  -8    6.25    0.88
   4   1   8    7.29    0.86
  -5  -1  -8  259.21    5.53
  -5  -1  -8  243.34    5.34
  -6  -1  -8   13.56    1.31
  -6  -1  -8   12.62    1.04
  -7  -1  -8    0.81    0.58
  -7  -1  -8    0.05    0.63
  -8  -1  -8    6.92    1.07
  -8  -1  -8    5.68    0.84
  -9  -1  -8    7.41    1.27
  -9  -1  -8    8.65    1.40
 -10  -1  -8   11.97    1.67
 -10  -1  -8   15.23    1.80
 -11  -1  -8   28.30    2.30
 -11  -1  -8   23.70    2.19
   8  -2  -8    6.23    1.39
  -8   2   8    4.37    1.31
  -8   2   8    5.22    1.24
   7  -2  -8   22.57    2.31
  -7   2   8   19.58    1.80
  -7   2   8   22.43    2.13
   6  -2  -8   24.79    2.15
   6  -2  -8   22.50    1.53
  -6   2   8   24.48    1.93
  -6   2   8   23.09    1.60
   5  -2  -8  105.78    3.50
   5  -2  -8  113.51    3.49
   5  -2  -8  108.73    2.77
  -5   2   8  107.41    3.28
  -5   2   8  103.79    2.81
  -5   2   8  104.62    3.35
   4  -2  -8   16.06    1.61
   4  -2  -8   14.23    1.08
   4  -2  -8   15.46    2.22
  -4   2   8   15.13    1.50
  -4   2   8   12.87    1.71
  -4   2   8   14.43    1.16
   3  -2  -8  101.83    2.92
   3  -2  -8   98.03    3.02
   3  -2  -8  100.31    2.49
  -3   2   8   99.93    2.49
  -3   2   8   96.08    2.86
  -3   2   8  102.18    2.92
   2  -2  -8   17.49    0.99
   2  -2  -8   18.86    1.29
   2  -2  -8   18.55    1.34
  -2   2   8   17.93    1.19
  -2   2   8   16.84    1.22
  -2   2   8   18.14    0.98
   1  -2  -8   90.25    2.53
   1  -2  -8   91.74    2.27
   1  -2  -8   90.74    2.55
  -1   2   8   91.32    2.49
  -1   2   8   89.28    2.22
   0  -2  -8    1.75    0.49
   0  -2  -8    1.65    0.47
   0  -2  -8    1.22    0.44
   0   2   8    2.06    0.51
   0   2   8    2.11    0.48
   0   2   8    1.67    0.40
  -1  -2  -8   -0.03    0.36
  -1  -2  -8   -0.01    0.41
  -1  -2  -8    0.67    0.40
   1   2   8   -0.11    0.34
   1   2   8   -0.07    0.35
   1   2   8    0.11    0.31
  -2  -2  -8  206.56    4.52
  -2  -2  -8  211.11    4.43
  -2  -2  -8  205.51    4.30
   2   2   8  211.71    4.30
   2   2   8  205.99    4.43
  -3  -2  -8    4.93    0.79
  -3  -2  -8    5.55    0.59
   3   2   8    5.01    0.74
   3   2   8    5.26    0.59
  -4  -2  -8   82.17    1.87
  -4  -2  -8   81.83    2.22
  -4  -2  -8   84.70    2.30
  -4  -2  -8   80.44    2.67
   4   2   8   82.60    2.37
  -5  -2  -8    1.88    0.53
  -5  -2  -8    1.44    0.43
   5   2   8    1.76    0.51
  -6  -2  -8   61.16    2.16
  -6  -2  -8   61.69    1.97
  -7  -2  -8    2.66    0.74
  -7  -2  -8    2.71    0.64
  -8  -2  -8   11.35    1.26
  -8  -2  -8    8.34    1.12
  -9  -2  -8   21.25    2.06
  -9  -2  -8   19.68    1.66
   9   2   8   21.29    1.86
 -10  -2  -8   23.12    1.89
 -11  -2  -8    3.61    1.04
 -11  -2  -8    5.39    1.25
 -12  -2  -8   28.86    2.67
 -12  -2  -8   26.21    3.05
   8  -3  -8    5.38    1.28
  -8   3   8    4.55    1.67
   7  -3  -8   -0.06    1.04
  -7   3   8    2.59    1.06
  -7   3   8    0.66    0.99
   6  -3  -8   85.75    3.31
   6  -3  -8   88.88    2.75
  -6   3   8   91.46    3.13
  -6   3   8   87.00    2.80
   5  -3  -8    0.91    0.92
   5  -3  -8    0.83    0.93
   5  -3  -8    1.15    0.68
  -5   3   8    0.87    0.85
  -5   3   8    1.40    0.76
  -5   3   8    1.12    0.72
   4  -3  -8   89.13    2.80
   4  -3  -8   77.56    4.10
   4  -3  -8   89.47    2.84
  -4   3   8   90.86    2.86
  -4   3   8   91.94    2.52
  -4   3   8   84.12    2.89
   3  -3  -8   12.92    1.31
   3  -3  -8   11.30    1.43
   3  -3  -8   12.31    1.03
  -3   3   8   12.57    1.12
  -3   3   8   13.17    1.22
  -3   3   8   11.47    1.25
   2  -3  -8   50.11    1.85
   2  -3  -8   48.76    1.97
   2  -3  -8   49.17    1.63
  -2   3   8   49.82    1.81
  -2   3   8   48.89    1.83
  -2   3   8   47.57    1.64
   1  -3  -8   62.31    1.82
   1  -3  -8   61.00    1.99
   1  -3  -8   60.50    2.02
  -1   3   8   61.70    1.96
  -1   3   8   61.56    1.97
  -1   3   8   61.58    1.81
   0  -3  -8    8.14    1.08
   0  -3  -8    9.49    0.90
   0  -3  -8    9.63    0.96
   0   3   8    8.54    0.77
   0   3   8    9.93    0.86
   0   3   8    7.68    0.82
  -1  -3  -8   56.08    1.77
  -1  -3  -8   58.35    1.70
  -1  -3  -8   57.53    1.74
   1   3   8   56.36    1.64
   1   3   8   55.25    1.77
   1   3   8   54.64    1.68
  -2  -3  -8   20.69    1.09
  -2  -3  -8   20.00    1.07
  -2  -3  -8   20.98    0.96
   2   3   8   21.42    0.92
   2   3   8   19.65    1.02
  -3  -3  -8  133.50    3.11
  -3  -3  -8  125.30    3.13
  -3  -3  -8  126.02    2.73
   3   3   8  126.74    2.73
   3   3   8  128.40    3.11
  -4  -3  -8   98.85    2.53
  -4  -3  -8  103.74    2.78
  -4  -3  -8   98.45    2.60
   4   3   8   99.62    2.67
  -5  -3  -8   84.66    2.42
  -5  -3  -8   75.61    2.19
   5   3   8   80.68    2.42
  -6  -3  -8   59.98    1.93
  -6  -3  -8   63.42    2.15
   6   3   8   60.21    2.16
  -7  -3  -8    3.74    0.72
  -7  -3  -8    3.83    0.79
  -8  -3  -8   24.64    1.75
  -8  -3  -8   24.77    1.53
  -9  -3  -8    1.34    0.81
  -9  -3  -8    2.41    1.06
   9   3   8    1.34    0.90
 -10  -3  -8    7.52    1.09
 -11  -3  -8    3.74    1.21
 -11  -3  -8    3.93    1.09
 -12  -3  -8   20.94    2.49
 -12  -3  -8   21.90    2.52
   8  -4  -8    7.63    1.40
  -8   4   8    4.87    1.45
  -8   4   8    4.19    1.39
   7  -4  -8    2.40    1.17
   7  -4  -8    0.86    1.11
  -7   4   8    0.00    1.75
  -7   4   8    1.25    1.05
   6  -4  -8   10.15    1.55
   6  -4  -8    8.75    1.33
  -6   4   8   10.61    1.73
  -6   4   8   10.57    1.71
   5  -4  -8   45.93    1.97
   5  -4  -8   41.97    2.33
   5  -4  -8   45.83    2.32
  -5   4   8   45.58    2.12
  -5   4   8   43.43    2.30
  -5   4   8   48.20    2.10
   4  -4  -8    8.14    1.04
   4  -4  -8   10.94    1.28
   4  -4  -8    7.26    1.77
  -4   4   8    8.16    1.36
  -4   4   8    7.13    1.27
  -4   4   8    8.16    1.15
   3  -4  -8   54.83    1.99
   3  -4  -8   56.26    2.09
   3  -4  -8   51.81    2.25
  -3   4   8   55.89    1.96
  -3   4   8   52.58    2.01
  -3   4   8   54.80    2.12
   2  -4  -8   11.71    1.34
   2  -4  -8   12.99    1.15
   2  -4  -8   11.04    1.05
  -2   4   8   12.61    1.16
  -2   4   8    8.89    1.08
  -2   4   8   12.64    1.07
   1  -4  -8   46.43    1.79
   1  -4  -8   48.67    1.65
   1  -4  -8   45.00    1.70
  -1   4   8   48.37    1.73
  -1   4   8   46.33    1.67
  -1   4   8   45.57    1.60
   0  -4  -8   15.44    1.11
   0  -4  -8   15.57    1.08
   0   4   8   14.75    0.96
   0   4   8   13.68    0.95
   0   4   8   15.69    0.99
  -1  -4  -8   30.03    1.28
  -1  -4  -8   32.50    1.38
  -1  -4  -8   32.78    1.31
   1   4   8   29.86    1.26
   1   4   8   32.08    1.21
   1   4   8   31.56    1.28
  -2  -4  -8   36.26    1.42
  -2  -4  -8   34.05    1.33
  -2  -4  -8   34.39    1.24
   2   4   8   34.14    1.15
   2   4   8   32.34    1.32
  -3  -4  -8   74.51    2.10
  -3  -4  -8   77.49    2.20
  -3  -4  -8   76.53    1.85
   3   4   8   76.23    2.17
   3   4   8   73.90    1.78
  -4  -4  -8  102.27    2.71
  -4  -4  -8  100.68    2.61
  -4  -4  -8  100.90    2.56
   4   4   8  101.15    2.72
  -5  -4  -8   27.36    1.41
  -5  -4  -8   23.89    1.16
   5   4   8   25.95    1.34
  -6  -4  -8   70.76    2.31
  -6  -4  -8   66.98    2.09
   6   4   8   72.03    2.35
  -7  -4  -8    4.42    0.67
  -7  -4  -8    4.96    0.83
   7   4   8    3.81    0.72
  -8  -4  -8   79.79    2.75
  -8  -4  -8   75.37    2.55
  -9  -4  -8    3.96    0.87
  -9  -4  -8    4.99    1.05
   9   4   8    4.87    1.00
 -10  -4  -8    3.71    0.93
 -11  -4  -8   27.82    2.16
 -12  -4  -8   -0.20    1.14
 -12  -4  -8   -1.71    1.14
  -8   5   8    2.17    1.36
   7  -5  -8   14.27    1.99
   7  -5  -8   10.84    1.60
  -7   5   8   13.42    2.00
  -7   5   8    9.93    1.59
   6  -5  -8    1.73    0.96
   6  -5  -8    1.77    1.02
  -6   5   8    3.52    0.93
   5  -5  -8   68.82    2.52
   5  -5  -8   66.01    2.72
   5  -5  -8   64.87    2.71
  -5   5   8   69.53    2.54
  -5   5   8   68.29    2.81
  -5   5   8   70.71    2.56
   4  -5  -8    4.19    0.89
   4  -5  -8    2.37    0.78
   4  -5  -8    2.06    0.79
  -4   5   8    2.15    0.72
  -4   5   8    3.53    0.98
  -4   5   8    3.70    0.84
   3  -5  -8   16.15    1.33
   3  -5  -8   13.70    1.46
   3  -5  -8   14.48    1.27
  -3   5   8   14.45    1.46
  -3   5   8   12.68    1.32
  -3   5   8   12.07    1.19
   2  -5  -8    0.24    0.56
   2  -5  -8   -0.09    0.56
   2  -5  -8    0.08    0.54
  -2   5   8    0.04    0.47
  -2   5   8   -0.71    0.54
  -2   5   8    0.73    0.56
   1  -5  -8    9.01    1.00
   1  -5  -8   10.17    1.12
  -1   5   8    9.71    1.08
  -1   5   8   10.59    0.93
  -1   5   8   11.01    1.08
   0  -5  -8    1.06    0.49
   0  -5  -8    1.26    0.52
   0  -5  -8    0.57    0.75
   0   5   8    0.96    0.43
   0   5   8    0.78    0.51
   0   5   8    1.04    0.50
  -1  -5  -8    0.54    0.50
  -1  -5  -8    0.37    0.42
  -1  -5  -8    0.23    0.43
   1   5   8    0.44    0.39
   1   5   8    0.50    0.38
   1   5   8    0.10    0.38
  -2  -5  -8   88.30    2.29
  -2  -5  -8   83.21    2.13
  -2  -5  -8   85.06    2.44
   2   5   8   83.58    2.36
   2   5   8   85.42    2.10
  -3  -5  -8   68.69    2.29
  -3  -5  -8   75.99    2.07
  -3  -5  -8   75.06    1.81
   3   5   8   72.87    1.76
   3   5   8   71.61    2.14
  -4  -5  -8   61.55    1.83
  -4  -5  -8   64.82    2.04
  -4  -5  -8   61.31    1.95
   4   5   8   60.80    1.99
  -5  -5  -8  128.47    3.14
  -5  -5  -8  134.06    3.37
   5   5   8  131.08    3.38
  -6  -5  -8    9.08    0.97
  -6  -5  -8    7.72    1.15
   6   5   8    8.83    1.13
  -7  -5  -8   56.28    2.20
  -7  -5  -8   55.38    1.98
   7   5   8   55.67    2.20
  -8  -5  -8    1.29    0.75
  -8  -5  -8    0.10    0.70
  -9  -5  -8   16.62    1.88
  -9  -5  -8   17.16    1.55
   9   5   8   13.62    1.65
 -10  -5  -8    1.70    0.85
 -11  -5  -8    5.29    1.17
 -12  -5  -8    8.28    1.71
 -12  -5  -8    8.62    1.53
   8  -6  -8    3.87    1.50
  -8   6   8    0.88    1.32
   7  -6  -8    2.00    0.99
  -7   6   8   -0.45    1.12
  -7   6   8   -0.71    0.93
   6  -6  -8   17.70    2.11
   6  -6  -8   15.53    1.89
  -6   6   8   15.89    1.95
  -6   6   8   14.38    1.85
   5  -6  -8    3.66    1.02
   5  -6  -8    3.75    0.98
   5  -6  -8    1.50    0.85
  -5   6   8    4.16    0.96
  -5   6   8    1.65    1.03
  -5   6   8    0.99    1.29
   4  -6  -8   57.76    2.31
   4  -6  -8   57.62    2.39
  -4   6   8   60.38    2.53
  -4   6   8   54.69    2.18
  -4   6   8   60.69    2.38
   3  -6  -8    0.31    0.61
   3  -6  -8    0.17    0.64
   3  -6  -8   -0.05    0.61
  -3   6   8   -1.12    0.53
  -3   6   8   -0.27    0.71
  -3   6   8   -0.64    0.63
   2  -6  -8   53.09    1.94
   2  -6  -8   51.04    1.94
   2  -6  -8   47.25    1.96
  -2   6   8   50.90    2.04
  -2   6   8   51.37    2.01
  -2   6   8   49.86    1.85
   1  -6  -8    9.32    1.11
   1  -6  -8    9.02    1.08
   1  -6  -8    9.57    1.02
  -1   6   8    9.86    1.14
  -1   6   8    9.45    0.97
  -1   6   8    8.44    1.18
   0  -6  -8   46.72    1.68
   0  -6  -8   46.28    1.76
   0  -6  -8   45.80    1.67
   0   6   8   46.81    1.59
   0   6   8   44.23    1.73
   0   6   8   43.34    1.91
  -1  -6  -8   61.16    2.02
  -1  -6  -8   59.03    1.82
  -1  -6  -8   60.34    1.84
   1   6   8   61.56    1.85
   1   6   8   61.59    1.82
   1   6   8   57.60    1.94
  -2  -6  -8    1.84    0.59
  -2  -6  -8    0.82    0.39
  -2  -6  -8    0.88    0.40
   2   6   8    1.24    0.43
   2   6   8    1.31    0.47
  -3  -6  -8   17.50    0.73
  -3  -6  -8   17.70    1.22
  -3  -6  -8   17.04    0.99
  -3  -6  -8   16.85    0.81
   3   6   8   17.24    0.87
   3   6   8   15.92    1.10
  -4  -6  -8   58.27    1.99
  -4  -6  -8   54.30    2.05
  -4  -6  -8   58.63    1.77
   4   6   8   56.53    1.93
  -5  -6  -8  125.81    3.09
  -5  -6  -8  131.02    3.35
   5   6   8  126.22    3.34
  -6  -6  -8   20.61    1.45
  -6  -6  -8   20.11    1.20
   6   6   8   19.42    1.34
  -7  -6  -8   28.09    1.51
  -7  -6  -8   31.05    1.72
   7   6   8   30.15    1.73
  -8  -6  -8   22.31    1.73
  -8  -6  -8   20.54    1.48
   8   6   8   17.59    2.39
  -9  -6  -8    0.36    0.74
  -9  -6  -8    1.12    0.99
   9   6   8    2.60    0.96
 -10  -6  -8    2.63    0.98
 -11  -6  -8   11.64    1.92
 -12  -6  -8   24.86    3.16
   7  -7  -8    2.88    1.19
  -7   7   8   -1.05    1.14
  -7   7   8   -1.02    1.08
   6  -7  -8    3.57    0.92
   6  -7  -8    0.80    1.52
  -6   7   8    2.26    1.00
  -6   7   8    0.50    1.06
   5  -7  -8   20.65    2.11
   5  -7  -8   22.49    2.08
   5  -7  -8   25.08    1.88
  -5   7   8   18.47    1.87
  -5   7   8   23.64    1.77
   4  -7  -8   31.87    1.96
   4  -7  -8   29.89    1.90
   4  -7  -8   29.51    1.88
  -4   7   8   29.99    2.11
  -4   7   8   27.13    2.06
  -4   7   8   30.50    1.75
   3  -7  -8    0.80    0.98
   3  -7  -8    0.80    0.66
  -3   7   8   -0.38    0.75
  -3   7   8   -0.20    0.84
  -3   7   8    0.41    0.56
   2  -7  -8   16.94    1.30
   2  -7  -8   14.19    1.31
   2  -7  -8   15.33    1.36
  -2   7   8   16.56    1.22
  -2   7   8   13.82    1.45
  -2   7   8   16.91    0.87
  -2   7   8   16.69    1.48
   1  -7  -8   16.93    1.34
   1  -7  -8   12.80    1.20
   1  -7  -8   14.36    1.18
  -1   7   8   15.61    0.77
  -1   7   8   17.27    1.34
  -1   7   8   13.75    1.06
  -1   7   8   14.39    1.33
   0  -7  -8   84.77    2.32
   0  -7  -8   78.93    2.37
   0  -7  -8   86.11    2.55
   0   7   8   81.97    2.26
   0   7   8   85.66    2.47
   0   7   8   80.04    2.51
  -1  -7  -8   20.93    1.38
  -1  -7  -8   19.39    1.10
  -1  -7  -8   22.08    1.13
   1   7   8   20.66    1.30
   1   7   8   19.99    1.05
   1   7   8   23.11    1.27
  -2  -7  -8   11.65    0.88
  -2  -7  -8   11.00    1.24
  -2  -7  -8   10.42    0.85
  -2  -7  -8   11.00    0.60
   2   7   8   11.48    0.98
   2   7   8   10.30    1.02
  -3  -7  -8   77.01    1.98
  -3  -7  -8   75.78    2.11
  -3  -7  -8   75.04    2.37
  -3  -7  -8   76.93    1.86
   3   7   8   76.25    2.35
   3   7   8   76.79    1.99
  -4  -7  -8   78.82    2.19
  -4  -7  -8   82.68    1.94
  -4  -7  -8   83.23    2.53
  -4  -7  -8   83.41    2.09
   4   7   8   79.65    2.44
  -5  -7  -8   44.82    1.87
  -5  -7  -8   46.73    1.64
   5   7   8   45.09    1.84
  -6  -7  -8   71.84    2.44
  -6  -7  -8   70.44    2.47
   6   7   8   65.81    2.38
  -7  -7  -8   26.99    1.51
  -7  -7  -8   28.56    1.71
   7   7   8   29.55    1.68
  -8  -7  -8    8.45    1.13
  -8  -7  -8    7.99    0.98
   8   7   8    6.03    1.01
  -9  -7  -8    5.44    1.17
  -9  -7  -8    6.85    1.05
   9   7   8    6.43    1.15
   9   7   8    4.26    1.04
 -10  -7  -8   12.91    1.72
 -11  -7  -8    2.34    1.12
   7  -8  -8    4.42    1.29
  -7   8   8    1.89    1.13
  -7   8   8    0.09    1.27
  -6   8   8   -0.51    1.06
  -6   8   8   -1.17    0.90
   5  -8  -8   15.37    2.20
   5  -8  -8   18.70    2.12
   5  -8  -8   16.46    1.81
  -5   8   8   14.99    1.95
  -5   8   8   14.85    1.70
   4  -8  -8   -0.50    0.86
   4  -8  -8   -0.70    0.92
   4  -8  -8    1.58    0.85
  -4   8   8    0.45    1.03
  -4   8   8    1.27    0.74
  -4   8   8    0.75    0.86
   3  -8  -8   26.94    1.74
   3  -8  -8   30.98    1.79
   3  -8  -8   31.79    1.94
  -3   8   8   32.39    1.61
  -3   8   8   31.84    1.99
  -3   8   8   30.25    3.03
  -3   8   8   32.05    1.42
   2  -8  -8    9.38    1.25
   2  -8  -8   10.86    1.40
   2  -8  -8   10.81    1.28
  -2   8   8   11.38    1.12
  -2   8   8   10.99    1.52
  -2   8   8   11.90    0.91
  -2   8   8    8.37    1.45
   1  -8  -8   63.10    2.23
   1  -8  -8   66.30    2.08
   1  -8  -8   67.48    2.36
  -1   8   8   66.00    1.76
  -1   8   8   63.85    2.36
  -1   8   8   62.83    2.00
  -1   8   8   67.45    2.39
   0  -8  -8   49.22    1.84
   0  -8  -8   53.02    2.05
   0  -8  -8   50.13    1.73
   0   8   8   51.34    2.00
   0   8   8   48.17    2.01
   0   8   8   50.47    1.66
   0   8   8   49.75    1.44
  -1  -8  -8    9.49    0.97
  -1  -8  -8    9.87    0.91
  -1  -8  -8   10.48    1.26
   1   8   8    9.06    1.11
   1   8   8   11.01    1.19
  -2  -8  -8   61.19    2.19
  -2  -8  -8   60.01    1.81
  -2  -8  -8   55.98    1.56
  -2  -8  -8   59.63    1.86
   2   8   8   60.54    1.93
   2   8   8   58.16    2.06
  -3  -8  -8   91.02    2.36
  -3  -8  -8   91.67    2.77
  -3  -8  -8   87.89    2.18
  -3  -8  -8   88.38    2.30
  -3  -8  -8   90.25    2.30
   3   8   8   85.55    2.61
   3   8   8   89.56    2.34
  -4  -8  -8    0.27    0.42
  -4  -8  -8    0.36    0.39
  -4  -8  -8   -0.07    0.31
  -4  -8  -8   -0.23    0.59
   4   8   8    0.62    0.45
   4   8   8    0.14    0.50
  -5  -8  -8   77.66    2.57
  -5  -8  -8   74.92    2.51
  -5  -8  -8   78.54    2.19
   5   8   8   76.62    2.50
  -6  -8  -8   -0.32    0.46
  -6  -8  -8    0.35    0.87
   6   8   8    0.05    0.67
  -7  -8  -8   45.64    2.20
  -7  -8  -8   49.04    1.94
   7   8   8   50.42    2.16
  -8  -8  -8   19.64    1.84
  -8  -8  -8   15.76    1.44
   8   8   8   15.14    1.62
  -9  -8  -8   17.26    1.71
  -9  -8  -8   23.43    2.13
   9   8   8   17.59    1.85
 -10  -8  -8    0.94    0.94
 -11  -8  -8   -1.65    1.03
  -7   9   8    9.53    1.62
  -7   9   8    9.18    1.38
   6  -9  -8    2.52    1.04
  -6   9   8   -0.60    1.11
  -6   9   8    1.64    1.05
   5  -9  -8    2.97    1.18
   5  -9  -8    2.50    1.02
  -5   9   8    3.17    1.13
  -5   9   8    2.80    1.01
   4  -9  -8   21.13    2.21
   4  -9  -8   21.22    1.87
   4  -9  -8   25.05    1.92
  -4   9   8   25.48    1.72
  -4   9   8   23.87    2.00
  -4   9   8   22.68    1.55
   3  -9  -8   54.49    2.41
   3  -9  -8   57.79    2.54
   3  -9  -8   57.33    2.20
  -3   9   8   55.46    2.63
  -3   9   8   56.50    2.09
  -3   9   8   55.92    1.91
  -3   9   8   54.84    2.52
   2  -9  -8    0.45    0.67
   2  -9  -8    1.29    0.83
   2  -9  -8   -0.16    0.65
  -2   9   8    0.23    0.91
  -2   9   8    0.61    0.51
  -2   9   8    0.99    0.60
  -2   9   8   -0.05    0.92
   1  -9  -8   58.68    1.98
   1  -9  -8   56.60    2.34
   1  -9  -8   54.75    2.19
  -1   9   8   57.56    1.86
  -1   9   8   57.36    1.76
  -1   9   8   58.09    2.44
  -1   9   8   58.37    2.72
   0  -9  -8    7.04    1.06
   0  -9  -8    7.41    1.26
   0  -9  -8    7.35    0.97
   0   9   8    5.59    0.80
   0   9   8    5.76    0.98
   0   9   8    5.91    0.81
   0   9   8    6.29    0.99
  -1  -9  -8  136.40    3.50
  -1  -9  -8  140.15    3.69
  -1  -9  -8  140.66    3.25
   1   9   8  138.23    3.52
   1   9   8  131.75    3.63
  -2  -9  -8    2.83    0.45
  -2  -9  -8    2.04    0.73
  -2  -9  -8    1.96    0.57
  -2  -9  -8    2.58    0.59
   2   9   8    2.89    0.71
   2   9   8    2.56    0.71
  -3  -9  -8    3.74    0.79
  -3  -9  -8    4.22    0.62
  -3  -9  -8    3.90    0.58
  -3  -9  -8    3.61    0.52
  -3  -9  -8    4.68    0.80
   3   9   8    4.07    0.75
   3   9   8    4.77    0.70
  -4  -9  -8   60.58    1.79
  -4  -9  -8   63.04    2.35
  -4  -9  -8   61.53    1.84
  -4  -9  -8   60.23    2.16
   4   9   8   61.62    2.27
   4   9   8   60.00    1.85
  -5  -9  -8    3.84    0.63
  -5  -9  -8    3.05    0.64
  -5  -9  -8    4.42    0.72
  -5  -9  -8    4.60    0.83
  -6  -9  -8   42.37    1.68
  -6  -9  -8   39.17    2.04
  -6  -9  -8   41.08    1.78
   6   9   8   41.24    1.95
  -7  -9  -8   13.35    1.34
  -7  -9  -8   17.19    1.73
  -8  -9  -8    8.15    1.34
   8   9   8    5.77    1.03
  -9  -9  -8   14.12    1.70
  -9  -9  -8   21.14    2.37
   9   9   8   17.44    1.93
 -10  -9  -8    0.14    0.99
  10   9   8    1.28    0.96
 -11  -9  -8    7.27    1.28
   6 -10  -8    2.00    1.23
  -6  10   8   -0.18    1.21
   5 -10  -8    7.96    1.39
  -5  10   8    6.29    1.08
  -5  10   8    4.47    1.19
  -5  10   8    6.41    1.10
   4 -10  -8   17.10    2.02
   4 -10  -8   22.68    1.95
  -4  10   8   18.96    2.08
  -4  10   8   19.06    1.63
  -4  10   8   19.57    1.66
   3 -10  -8    3.82    0.95
   3 -10  -8    5.30    1.16
   3 -10  -8    2.90    0.89
  -3  10   8    1.58    1.79
  -3  10   8    4.27    0.81
  -3  10   8    1.63    0.94
  -3  10   8    3.30    0.71
   2 -10  -8   77.96    2.91
   2 -10  -8   79.87    2.82
   2 -10  -8   79.88    2.49
  -2  10   8   81.20    2.39
  -2  10   8   76.96    2.89
  -2  10   8   79.64    2.34
  -2  10   8   78.25    2.98
   1 -10  -8   10.07    1.54
  -1  10   8   10.84    1.02
  -1  10   8   10.57    1.65
  -1  10   8    9.52    1.55
  -1  10   8    9.96    1.17
   0 -10  -8   78.63    2.79
   0 -10  -8   80.15    2.25
   0 -10  -8   78.22    2.63
   0  10   8   76.88    2.15
   0  10   8   81.79    2.95
   0  10   8   79.31    2.22
   0  10   8   79.49    3.23
  -1 -10  -8   34.82    1.68
  -1 -10  -8   36.15    1.44
  -1 -10  -8   32.43    1.87
   1  10   8   31.01    1.83
   1  10   8   35.33    1.43
   1  10   8   34.56    1.79
  -2 -10  -8   77.90    2.20
  -2 -10  -8   78.18    2.74
  -2 -10  -8   79.70    2.11
  -2 -10  -8   80.28    2.44
  -2 -10  -8   79.36    2.18
   2  10   8   79.58    2.48
   2  10   8   76.73    2.68
  -3 -10  -8    5.75    0.96
  -3 -10  -8    4.78    0.77
  -3 -10  -8    4.75    0.70
  -3 -10  -8    5.23    0.63
  -3 -10  -8    6.04    0.71
   3  10   8    7.01    1.14
   3  10   8    5.20    0.95
  -4 -10  -8   56.89    2.39
  -4 -10  -8   61.54    2.01
  -4 -10  -8   61.15    1.92
  -4 -10  -8   61.32    1.96
  -4 -10  -8   59.33    1.81
   4  10   8   59.74    2.32
   4  10   8   60.09    1.97
  -5 -10  -8   15.27    1.26
  -5 -10  -8   14.64    1.12
  -5 -10  -8   15.04    1.67
  -5 -10  -8   15.86    1.04
  -5 -10  -8   17.07    1.27
   5  10   8   15.90    1.11
   5  10   8   13.73    1.40
  -6 -10  -8   67.20    2.15
  -6 -10  -8   65.38    2.63
  -6 -10  -8   67.72    2.34
   6  10   8   65.05    3.16
  -7 -10  -8    5.37    0.86
  -7 -10  -8    3.80    0.89
  -7 -10  -8    5.19    1.11
   7  10   8    4.37    0.97
  -8 -10  -8   18.63    2.21
  -8 -10  -8   19.86    1.65
  -8 -10  -8   16.02    1.89
   8  10   8   18.34    1.81
  -9 -10  -8    0.47    0.90
  -9 -10  -8    2.74    1.60
   9  10   8    0.80    1.06
 -10 -10  -8    8.46    1.27
  10  10   8    8.80    1.31
 -11 -10  -8   -1.53    1.18
  -6  11   8    7.86    1.78
   5 -11  -8    0.41    1.42
   5 -11  -8    1.83    1.07
  -5  11   8    3.98    1.09
  -5  11   8    3.09    1.13
  -5  11   8    4.76    1.25
   4 -11  -8   10.78    1.37
   4 -11  -8    6.86    1.29
  -4  11   8    9.57    1.33
  -4  11   8   11.39    1.54
   3 -11  -8    2.31    0.94
   3 -11  -8    2.56    1.06
  -3  11   8    2.90    0.85
  -3  11   8    2.72    0.78
  -3  11   8    0.93    1.02
   2 -11  -8   53.67    2.06
   2 -11  -8   53.17    2.47
   2 -11  -8   57.96    3.99
  -2  11   8   55.22    1.90
  -2  11   8   54.99    2.07
  -2  11   8   52.55    2.77
  -2  11   8   51.82    2.58
   1 -11  -8    5.52    0.88
   1 -11  -8    4.36    1.12
   1 -11  -8    3.60    0.83
  -1  11   8    4.02    1.00
  -1  11   8    3.28    1.04
  -1  11   8    4.50    0.76
  -1  11   8    5.29    0.68
   0 -11  -8   12.85    1.18
   0 -11  -8   15.44    2.40
   0 -11  -8   13.06    1.83
   0  11   8   14.97    1.24
   0  11   8   14.40    1.65
   0  11   8   12.73    1.66
  -1 -11  -8    3.45    0.86
  -1 -11  -8    4.59    0.83
  -1 -11  -8    5.47    0.70
   1  11   8    5.22    1.27
   1  11   8    4.10    0.69
   1  11   8    4.86    0.98
  -2 -11  -8   19.80    1.08
  -2 -11  -8   21.16    1.47
  -2 -11  -8   21.03    1.17
  -2 -11  -8   20.26    1.80
   2  11   8   16.28    1.95
   2  11   8   20.82    1.55
  -3 -11  -8   -0.39    0.78
  -3 -11  -8    0.03    0.49
  -3 -11  -8   -0.69    0.54
  -3 -11  -8   -0.42    0.45
  -3 -11  -8    0.66    0.56
   3  11   8    0.02    0.64
  -4 -11  -8   18.39    1.36
  -4 -11  -8   21.30    1.36
  -4 -11  -8   19.26    1.84
  -4 -11  -8   17.97    1.16
  -4 -11  -8   19.57    1.23
   4  11   8   20.06    1.41
  -5 -11  -8   14.05    1.16
  -5 -11  -8   16.46    1.41
  -5 -11  -8   16.34    1.34
  -5 -11  -8   16.75    1.84
   5  11   8   16.60    1.30
   5  11   8   16.47    1.59
  -6 -11  -8    3.03    0.75
  -6 -11  -8    3.15    0.81
  -6 -11  -8    3.51    1.10
   6  11   8    3.11    0.91
  -7 -11  -8   14.90    1.50
  -7 -11  -8   12.91    2.13
  -7 -11  -8   12.77    1.76
   7  11   8   13.93    1.78
  -8 -11  -8   24.39    2.48
  -8 -11  -8   25.46    1.80
   8  11   8   23.25    2.05
  -9 -11  -8    5.81    1.13
   9  11   8    5.03    1.22
 -10 -11  -8   17.61    2.23
  10  11   8   19.03    2.22
   5 -12  -8    8.77    1.55
  -5  12   8   10.16    1.38
  -5  12   8    8.32    1.54
  -5  12   8    9.03    1.23
   4 -12  -8    1.12    1.00
   4 -12  -8   -2.33    1.16
  -4  12   8    1.26    1.19
  -4  12   8   -0.14    0.93
  -4  12   8   -0.76    1.60
   3 -12  -8   31.63    1.96
   3 -12  -8   32.34    2.27
  -3  12   8   32.19    1.69
  -3  12   8   25.58    2.42
   2 -12  -8    0.34    0.87
   2 -12  -8    0.70    0.79
  -2  12   8   -1.35    0.98
  -2  12   8    0.72    0.63
  -2  12   8    0.35    0.78
   1 -12  -8   73.23    2.22
   1 -12  -8   75.36    2.90
  -1  12   8   73.47    3.12
  -1  12   8   76.61    2.52
  -1  12   8   74.92    3.05
   0 -12  -8    5.49    1.38
   0 -12  -8    6.66    1.12
   0 -12  -8    5.02    0.71
   0  12   8    2.90    1.01
   0  12   8    3.75    0.79
   0  12   8    2.72    1.07
  -1 -12  -8   38.65    3.32
  -1 -12  -8   40.78    2.44
  -1 -12  -8   42.79    1.44
  -1 -12  -8   44.86    1.54
   1  12   8   45.12    2.25
   1  12   8   45.46    2.30
   1  12   8   41.53    1.90
  -2 -12  -8   11.58    1.45
  -2 -12  -8    9.33    1.04
  -2 -12  -8    8.89    0.87
  -2 -12  -8    9.57    1.44
   2  12   8   12.20    1.53
   2  12   8   12.58    1.59
  -3 -12  -8    6.20    1.02
  -3 -12  -8    6.32    1.23
  -3 -12  -8    7.49    1.21
  -3 -12  -8    4.58    0.86
  -3 -12  -8    6.10    0.89
   3  12   8    8.42    1.39
   3  12   8    4.27    0.99
  -4 -12  -8    0.73    0.62
  -4 -12  -8    0.48    0.96
  -4 -12  -8    0.60    0.53
  -4 -12  -8    1.34    0.71
  -4 -12  -8    1.30    0.68
   4  12   8    0.87    0.81
   4  12   8    2.66    0.76
  -5 -12  -8   10.02    1.39
  -5 -12  -8   12.49    1.33
  -5 -12  -8   13.59    1.54
  -5 -12  -8    8.48    1.10
   5  12   8   11.91    1.60
   5  12   8   11.81    1.38
  -6 -12  -8    2.42    0.98
  -6 -12  -8    3.47    0.80
  -6 -12  -8    2.80    0.85
  -6 -12  -8    4.12    1.27
   6  12   8    3.92    0.80
   6  12   8    3.18    0.98
  -7 -12  -8   13.39    2.00
  -7 -12  -8   14.63    1.57
  -7 -12  -8   11.57    1.66
   7  12   8   14.09    1.84
  -8 -12  -8   -0.93    0.91
   8  12   8    0.07    1.01
  -9 -12  -8   23.46    2.11
   9  12   8   21.66    2.35
 -10 -12  -8    1.36    1.23
  10  12   8    3.15    1.30
   4 -13  -8    0.11    1.30
  -4  13   8    0.17    1.05
  -4  13   8   -2.48    1.31
  -4  13   8    0.40    1.08
   3 -13  -8    0.37    0.99
  -3  13   8    0.72    1.16
  -3  13   8    1.82    1.01
  -3  13   8   -0.77    0.70
   2 -13  -8   10.92    1.48
   2 -13  -8   15.90    1.92
  -2  13   8   14.00    2.09
  -2  13   8   18.44    1.25
  -2  13   8   13.77    1.75
   1 -13  -8    5.49    0.82
   1 -13  -8    7.83    1.32
  -1  13   8    5.39    1.12
   0 -13  -8    6.69    1.27
   0  13   8    5.66    1.29
   0  13   8    5.42    1.72
  -1 -13  -8    0.33    0.85
   1  13   8   -0.18    0.73
   1  13   8    1.06    0.95
   1  13   8    1.08    1.00
  -2 -13  -8    4.57    1.33
  -2 -13  -8    4.92    0.99
   2  13   8    5.28    1.12
   2  13   8    5.64    1.17
  -3 -13  -8    2.66    0.62
  -3 -13  -8    4.45    0.88
  -3 -13  -8    5.52    1.04
  -3 -13  -8    1.85    1.09
  -3 -13  -8    4.45    0.67
   3  13   8    3.48    1.03
   3  13   8    3.63    0.97
  -4 -13  -8    9.92    1.62
  -4 -13  -8    7.64    0.99
  -4 -13  -8   11.73    1.59
  -4 -13  -8   10.34    1.22
  -4 -13  -8    8.78    1.33
   4  13   8   13.25    1.89
   4  13   8    9.44    1.61
  -5 -13  -8    4.43    0.74
  -5 -13  -8    2.04    1.22
  -5 -13  -8    3.93    0.99
   5  13   8    4.27    1.08
   5  13   8    4.89    1.00
  -6 -13  -8   26.82    1.67
  -6 -13  -8   19.73    2.98
  -6 -13  -8   27.05    1.86
  -6 -13  -8   24.85    2.25
   6  13   8   31.09    1.83
   6  13   8   27.60    2.07
  -7 -13  -8   20.14    2.02
  -7 -13  -8   18.48    1.77
   7  13   8   24.08    1.82
   7  13   8   19.70    2.07
   7  13   8   21.12    1.66
  -8 -13  -8   22.33    2.06
   8  13   8   30.09    2.37
  -9 -13  -8   28.12    2.41
   9  13   8   25.74    2.53
   3 -14  -8    2.65    1.39
  -3  14   8    1.52    1.08
  -3  14   8   -1.76    1.34
   2 -14  -8    6.23    1.46
  -2  14   8    7.30    1.39
  -2  14   8    6.74    1.19
   1 -14  -8   -0.33    0.99
  -1  14   8   -0.60    1.12
   0 -14  -8   15.46    2.10
   0  14   8   15.64    1.80
   0  14   8   13.44    2.06
  -1 -14  -8    0.24    0.95
   1  14   8    0.27    0.92
  -2 -14  -8   13.75    1.95
   2  14   8   14.18    1.93
   2  14   8   17.06    2.17
  -3 -14  -8    4.45    1.12
  -3 -14  -8    3.07    1.12
   3  14   8    4.14    1.10
   3  14   8    6.45    1.23
  -4 -14  -8   14.29    2.02
  -4 -14  -8   18.06    1.92
   4  14   8   19.00    2.03
   4  14   8   24.71    2.59
  -5 -14  -8    0.13    0.66
  -5 -14  -8    1.09    0.81
   5  14   8    3.67    1.10
   5  14   8    2.68    1.10
  -6 -14  -8    2.00    0.83
  -6 -14  -8    1.24    0.99
   6  14   8    3.59    1.11
   6  14   8    2.71    1.10
  -7 -14  -8    9.96    1.23
   7  14   8    9.68    1.41
   7  14   8   12.51    1.90
  -8 -14  -8   27.58    2.23
   8  14   8   32.80    2.57
   2 -15  -8   -2.70    1.49
  -2  15   8    1.53    1.90
  -2  15   8   -0.98    1.10
   1 -15  -8   16.44    2.62
  -1  15   8   15.40    2.37
  -1  15   8   13.52    2.09
   0 -15  -8    8.90    1.57
   0  15   8    5.57    1.23
   0  15   8   10.31    1.46
  -1 -15  -8   19.02    2.26
   1  15   8   17.51    2.16
  -2 -15  -8   24.13    2.28
   2  15   8   16.22    2.24
  -3 -15  -8   18.63    2.21
   3  15   8   17.66    2.02
  -4 -15  -8   23.57    2.32
   4  15   8   34.05    2.61
   4  15   8   26.87    2.31
   5  15   8   24.92    2.36
   5  15   8   24.10    2.51
   6  15   8    1.25    1.15
   6  15   8    3.77    2.12
   7  15   8   31.03    2.54
   7  15   8   29.07    2.91
   0 -16  -8    1.90    1.37
   0  16   8    3.38    1.46
   0  16   8    2.45    1.19
  -1 -16  -8   35.14    2.85
   1  16   8   31.88    2.74
  -2 -16  -8    1.08    1.36
   2  16   8   -0.35    1.20
  -3 -16  -8   40.02    2.77
   3  16   8   40.52    2.64
   4  16   8    2.70    1.19
   5  16   8   16.50    2.40
   2   9  -9   -0.24    2.05
  -2  -9   9    2.51    1.38
   1   9  -9   20.42    2.37
   0   9  -9    2.47    1.11
  -1   9  -9   23.83    2.18
  -1   9  -9   20.42    2.12
  -1   9  -9   25.30    1.66
  -2   9  -9   -0.26    0.92
  -2   9  -9   -1.44    0.91
  -2   9  -9    0.13    0.81
  -2   9  -9   -0.88    0.91
  -3   9  -9    4.91    0.91
  -3   9  -9    5.34    1.09
  -3   9  -9    2.72    1.12
  -3   9  -9    4.04    1.08
  -4   9  -9    3.20    1.20
  -4   9  -9    5.71    1.20
  -4   9  -9    4.56    1.24
  -5   9  -9   15.42    2.27
  -5   9  -9   18.47    2.36
  -5   9  -9   12.18    1.69
   3   8  -9    0.70    1.18
  -3  -8   9   -0.12    1.15
   2   8  -9   29.85    2.31
   2   8  -9   28.25    2.46
  -2  -8   9   31.14    2.34
   1   8  -9    6.66    1.22
   1   8  -9    7.74    1.28
   0   8  -9   54.78    2.69
   0   8  -9   53.66    2.42
  -1   8  -9    0.34    0.92
  -1   8  -9    0.90    0.93
  -1   8  -9    0.99    0.98
  -2   8  -9   44.57    2.22
  -2   8  -9   45.42    2.44
  -2   8  -9   44.74    1.92
  -2   8  -9   45.02    1.98
  -2   8  -9   41.11    2.14
  -2   8  -9   42.72    2.39
  -3   8  -9   12.86    1.93
  -3   8  -9   10.28    1.67
  -3   8  -9   11.71    1.38
  -3   8  -9    8.40    1.30
  -3   8  -9    5.94    1.05
  -3   8  -9    7.88    1.19
  -4   8  -9   37.90    2.35
  -4   8  -9   45.32    2.28
  -4   8  -9   41.28    2.34
  -4   8  -9   38.03    2.78
  -4   8  -9   40.59    1.91
  -4   8  -9   35.07    2.37
  -5   8  -9   23.56    2.18
  -5   8  -9   19.99    1.79
  -5   8  -9   19.30    2.04
  -6   8  -9    3.18    0.95
  -6   8  -9    3.13    1.13
  -6   8  -9    1.77    1.22
   4   7  -9   28.44    2.61
  -4  -7   9   41.56    2.58
   3   7  -9    0.13    1.30
   3   7  -9    1.29    1.03
  -3  -7   9    0.47    1.06
   2   7  -9    4.66    1.15
   2   7  -9    7.44    1.25
  -2  -7   9    6.09    1.14
  -2  -7   9    5.84    1.42
   1   7  -9   12.40    1.84
   1   7  -9   13.62    1.85
  -1  -7   9   13.31    1.76
   0   7  -9   12.25    1.78
   0   7  -9   11.13    1.73
  -1   7  -9   18.62    1.76
  -1   7  -9   23.89    1.78
  -1   7  -9   25.19    1.90
  -2   7  -9   25.55    1.89
  -2   7  -9   25.28    1.81
  -2   7  -9   22.37    1.65
  -2   7  -9   21.95    1.54
  -2   7  -9   23.11    1.61
  -2   7  -9   25.27    1.84
  -3   7  -9    3.45    0.93
  -3   7  -9    4.41    1.10
  -3   7  -9    2.60    0.87
  -3   7  -9    3.66    0.93
  -3   7  -9    2.59    1.07
  -3   7  -9    1.66    0.85
  -4   7  -9   18.56    1.93
  -4   7  -9   22.11    1.58
  -4   7  -9   22.28    1.85
  -4   7  -9   24.19    1.90
  -4   7  -9   21.15    1.89
  -4   7  -9   22.59    2.19
  -5   7  -9    4.41    0.93
  -5   7  -9    3.47    0.93
  -5   7  -9    4.96    1.11
  -5   7  -9    5.77    1.21
  -5   7  -9    4.97    1.75
  -5   7  -9    6.02    1.07
  -6   7  -9   15.95    2.11
  -6   7  -9   21.27    2.03
  -6   7  -9   22.65    2.20
  -6   7  -9   21.13    1.77
  -7   7  -9    3.13    1.05
  -7   7  -9    4.15    1.09
  -7   7  -9    2.12    1.31
   5   6  -9    7.55    1.42
  -5  -6   9   10.31    1.55
   4   6  -9    0.24    1.10
  -4  -6   9   -1.01    0.96
   3   6  -9   21.04    2.07
   3   6  -9   24.35    2.38
  -3  -6   9   22.30    1.97
  -3  -6   9   25.28    2.24
   2   6  -9    0.36    0.98
   2   6  -9    0.98    0.87
  -2  -6   9    0.29    0.79
  -2  -6   9    0.11    0.98
   1   6  -9   17.29    1.79
   1   6  -9   19.79    1.81
  -1  -6   9   18.97    1.69
   0   6  -9    1.64    0.83
   0   6  -9    1.92    0.93
   0  -6   9   -0.06    0.72
  -1   6  -9   35.52    2.01
  -1   6  -9   35.17    2.01
  -1   6  -9   35.37    1.86
  -1   6  -9   36.58    2.44
  -2   6  -9   46.62    1.79
  -2   6  -9   46.67    2.53
  -2   6  -9   50.03    2.22
  -2   6  -9   46.10    1.91
  -2   6  -9   45.55    2.07
  -3   6  -9   22.14    1.66
  -3   6  -9   22.12    1.63
  -3   6  -9   25.95    1.65
  -3   6  -9   23.79    2.11
  -3   6  -9   21.60    1.76
  -3   6  -9   20.94    1.43
  -3   6  -9   22.10    1.57
  -4   6  -9   45.19    2.50
  -4   6  -9   46.34    2.06
  -4   6  -9   45.55    2.10
  -4   6  -9   46.87    2.27
  -4   6  -9   42.08    2.18
  -4   6  -9   42.82    2.07
  -4   6  -9   45.10    1.84
  -5   6  -9   23.07    2.25
  -5   6  -9   25.11    1.91
  -5   6  -9   27.38    1.87
  -5   6  -9   20.94    1.84
  -5   6  -9   22.18    2.12
  -5   6  -9   23.26    1.84
  -5   6  -9   21.56    1.61
  -6   6  -9    8.07    1.34
  -6   6  -9    5.69    1.23
  -6   6  -9    6.44    1.22
  -6   6  -9   10.70    1.68
  -6   6  -9    7.82    1.29
  -7   6  -9    7.93    1.50
  -7   6  -9    9.74    1.49
  -7   6  -9    7.84    1.15
  -8   6  -9    1.98    1.02
  -8   6  -9    1.24    1.26
  -8   6  -9    1.28    1.06
   6   5  -9    7.19    1.70
   5   5  -9    8.64    1.41
  -5  -5   9   12.92    2.07
   4   5  -9    6.01    1.15
  -4  -5   9    6.60    1.25
  -4  -5   9    7.03    1.21
   3   5  -9   60.81    2.65
   3   5  -9   58.33    2.71
  -3  -5   9   55.78    2.50
  -3  -5   9   57.18    2.53
   2   5  -9    3.58    0.96
   2   5  -9    4.10    1.06
  -2  -5   9    3.45    0.89
  -2  -5   9    3.97    0.92
   1   5  -9   11.59    1.54
   1   5  -9    8.19    1.46
  -1  -5   9    9.55    1.42
   0   5  -9    8.74    1.42
   0   5  -9   11.72    1.42
   0   5  -9   10.73    1.83
   0  -5   9   10.32    1.35
  -1   5  -9   47.33    1.59
  -1   5  -9   48.10    2.44
  -1   5  -9   53.32    2.06
  -1   5  -9   53.81    2.07
  -1   5  -9   52.77    2.20
  -2   5  -9   -0.31    0.64
  -2   5  -9    0.82    0.79
  -2   5  -9   -0.06    0.53
  -2   5  -9    0.67    0.59
  -2   5  -9    0.52    0.83
  -2   5  -9    0.42    0.68
  -3   5  -9   63.15    2.24
  -3   5  -9   63.90    2.65
  -3   5  -9   61.40    2.27
  -3   5  -9   65.98    2.13
  -3   5  -9   65.55    2.18
  -3   5  -9   65.35    2.27
  -3   5  -9   61.35    2.97
  -4   5  -9    4.80    1.08
  -4   5  -9    4.85    0.84
  -4   5  -9    4.16    0.82
  -4   5  -9    3.54    0.94
  -4   5  -9    5.25    0.83
  -4   5  -9    4.21    0.89
  -5   5  -9    8.63    1.14
  -5   5  -9    8.05    1.37
  -5   5  -9    8.08    1.16
  -5   5  -9    7.14    1.02
  -5   5  -9    9.94    1.31
  -5   5  -9    6.84    1.15
  -6   5  -9    3.64    0.95
  -6   5  -9    3.91    0.99
  -6   5  -9    3.77    1.28
  -6   5  -9    4.23    1.03
  -6   5  -9    3.32    1.09
  -7   5  -9   20.57    2.03
  -7   5  -9   21.64    2.11
  -7   5  -9   17.32    2.07
  -7   5  -9   21.40    1.73
  -8   5  -9   23.30    2.27
  -8   5  -9   18.39    2.26
  -8   5  -9   19.61    1.88
  -9   5  -9   -2.00    1.04
  -9   5  -9    0.93    1.31
   6   4  -9   21.63    2.49
  -6  -4   9   20.32    2.34
   5   4  -9    1.65    1.11
  -5  -4   9    3.58    1.21
  -5  -4   9    3.06    1.17
   4   4  -9   14.38    1.97
  -4  -4   9   16.29    1.85
  -4  -4   9   15.89    1.81
   3   4  -9   20.06    1.80
   3   4  -9   20.57    2.01
  -3  -4   9   21.09    1.73
  -3  -4   9   19.91    1.80
   2   4  -9    7.66    1.14
   2   4  -9   11.16    1.60
  -2  -4   9   11.89    1.36
  -2  -4   9   15.36    2.52
   1   4  -9   25.08    1.72
   1   4  -9   22.86    1.68
  -1  -4   9   20.35    1.52
  -1  -4   9   23.79    1.51
   0   4  -9    4.93    0.89
   0   4  -9    6.80    0.95
   0  -4   9    8.22    1.22
  -1   4  -9   12.43    1.59
  -1   4  -9   14.49    1.15
  -1   4  -9   13.10    0.92
  -1   4  -9   13.20    1.35
  -1   4  -9   13.02    1.34
  -2   4  -9   47.05    1.73
  -2   4  -9   46.40    1.64
  -2   4  -9   46.98    1.75
  -2   4  -9   46.28    2.14
  -2   4  -9   47.42    1.89
  -2   4  -9   46.06    1.99
  -3   4  -9    9.47    1.02
  -3   4  -9   11.34    1.11
  -3   4  -9   11.69    1.09
  -3   4  -9   11.38    1.26
  -3   4  -9    9.65    1.41
  -3   4  -9   10.08    1.24
  -4   4  -9   75.19    2.45
  -4   4  -9   70.74    2.41
  -4   4  -9   76.63    2.65
  -4   4  -9   75.00    2.42
  -4   4  -9   73.33    2.37
  -4   4  -9   76.82    2.55
  -4   4  -9   72.83    2.28
  -5   4  -9   -0.47    0.60
  -5   4  -9    0.33    0.75
  -5   4  -9   -0.03    0.58
  -5   4  -9    0.16    0.63
  -5   4  -9   -0.88    0.66
  -5   4  -9    1.24    0.69
  -5   4  -9    0.56    0.76
  -6   4  -9   35.71    2.03
  -6   4  -9   31.28    1.82
  -6   4  -9   32.12    2.18
  -6   4  -9   33.81    1.75
  -6   4  -9   35.77    1.78
  -6   4  -9   30.70    1.89
  -7   4  -9    0.10    0.93
  -7   4  -9    2.65    0.86
  -7   4  -9    0.41    0.76
  -7   4  -9    1.68    1.01
  -8   4  -9   13.78    1.66
  -8   4  -9   14.42    1.98
  -8   4  -9   14.90    1.71
  -8   4  -9   17.96    1.84
  -9   4  -9   22.60    2.02
  -9   4  -9   24.42    2.22
 -10   4  -9   15.39    2.12
   7   3  -9   16.38    2.04
   6   3  -9   17.96    2.29
  -6  -3   9   22.65    2.23
  -6  -3   9   27.14    2.58
   5   3  -9    2.87    1.03
  -5  -3   9    1.75    1.03
  -5  -3   9    1.79    1.08
   4   3  -9   65.11    2.85
   4   3  -9   67.29    2.93
  -4  -3   9   67.09    2.68
  -4  -3   9   67.78    2.46
   3   3  -9    0.82    0.90
   3   3  -9    0.94    0.82
  -3  -3   9    0.16    0.69
  -3  -3   9    0.16    0.80
   2   3  -9   44.25    2.10
   2   3  -9   43.31    2.07
  -2  -3   9   41.70    2.00
  -2  -3   9   44.57    1.78
   1   3  -9   -0.44    0.65
  -1  -3   9   -0.22    0.57
  -1  -3   9    0.57    0.55
   0   3  -9    3.85    0.82
   0   3  -9    4.06    0.82
   0  -3   9    4.84    0.78
  -1   3  -9    2.75    0.54
  -1   3  -9    2.81    0.53
  -1   3  -9    2.85    0.70
  -1   3  -9    2.66    0.47
  -1   3  -9    2.86    0.74
   1  -3   9    2.14    0.60
  -2   3  -9    6.64    0.92
  -2   3  -9    5.04    0.84
  -2   3  -9    4.29    0.59
  -2   3  -9    4.47    0.77
  -2   3  -9    6.36    1.06
  -2   3  -9    4.98    0.87
  -3   3  -9   50.28    2.03
  -3   3  -9   49.85    1.72
  -3   3  -9   47.81    1.83
  -3   3  -9   48.87    1.88
  -3   3  -9   50.70    1.81
  -3   3  -9   46.85    1.85
  -4   3  -9   23.42    1.40
  -4   3  -9   23.35    1.34
  -4   3  -9   20.33    1.41
  -4   3  -9   23.91    1.32
  -4   3  -9   20.43    1.44
  -4   3  -9   22.31    1.26
  -4   3  -9   20.96    1.46
  -5   3  -9   29.35    1.46
  -5   3  -9   28.14    1.47
  -5   3  -9   29.36    1.63
  -5   3  -9   30.54    1.63
  -5   3  -9   27.78    1.73
  -5   3  -9   25.10    1.65
  -6   3  -9    3.59    0.80
  -6   3  -9    4.10    0.72
  -6   3  -9    4.40    0.80
  -6   3  -9    5.00    0.93
  -6   3  -9    4.17    0.85
  -6   3  -9    3.51    0.84
  -7   3  -9   32.19    2.00
  -7   3  -9   29.92    1.72
  -7   3  -9   31.44    1.67
  -7   3  -9   32.52    1.96
  -7   3  -9   31.03    2.26
  -8   3  -9   20.46    1.60
  -8   3  -9   16.84    1.71
  -8   3  -9   14.59    1.78
  -9   3  -9   18.50    1.89
  -9   3  -9   18.23    2.06
  -9   3  -9   25.08    1.88
 -10   3  -9   20.86    2.12
 -10   3  -9   21.82    2.46
   7   2  -9    6.37    1.57
  -7  -2   9    6.96    1.48
   6   2  -9    1.30    1.25
  -6  -2   9   -0.24    0.95
  -6  -2   9    0.39    1.14
   5   2  -9   22.40    2.18
  -5  -2   9   22.06    1.86
  -5  -2   9   21.87    1.91
   4   2  -9   13.72    1.81
   4   2  -9   13.73    2.00
  -4  -2   9   13.92    1.61
  -4  -2   9   12.75    1.44
   3   2  -9   47.84    2.25
   3   2  -9   48.75    2.25
  -3  -2   9   42.26    2.26
  -3  -2   9   46.47    2.12
  -3  -2   9   46.60    1.80
   2   2  -9    7.16    1.07
   2   2  -9    7.47    1.05
  -2  -2   9    6.73    0.99
  -2  -2   9    6.69    1.00
  -2  -2   9    7.16    1.08
   1   2  -9   56.29    2.20
   1   2  -9   58.12    2.17
  -1  -2   9   56.94    2.32
  -1  -2   9   60.24    1.80
   0   2  -9   19.53    1.39
   0   2  -9   19.98    1.38
   0  -2   9   19.20    1.27
  -1   2  -9   35.39    1.59
  -1   2  -9   37.26    1.31
  -1   2  -9   33.94    1.28
  -1   2  -9   36.01    1.61
   1  -2   9   33.98    1.70
  -2   2  -9   23.28    1.34
  -2   2  -9   22.19    1.08
  -2   2  -9   23.85    1.37
  -2   2  -9   24.02    1.17
  -3   2  -9  183.55    4.25
  -3   2  -9  188.34    4.22
  -3   2  -9  180.05    4.01
  -3   2  -9  185.34    4.38
  -3   2  -9  183.88    4.23
  -4   2  -9    2.54    0.53
  -4   2  -9    2.28    0.66
  -4   2  -9    2.34    0.53
  -4   2  -9    2.75    0.67
  -4   2  -9    2.33    0.55
  -4   2  -9    2.06    0.58
  -5   2  -9   54.03    1.90
  -5   2  -9   53.80    1.96
  -5   2  -9   53.24    1.82
  -5   2  -9   55.08    2.02
  -5   2  -9   53.49    2.14
  -6   2  -9    1.61    0.60
  -6   2  -9    2.05    0.82
  -6   2  -9    2.94    0.75
  -6   2  -9    2.49    0.79
  -6   2  -9    2.71    0.82
  -7   2  -9   42.29    1.63
  -7   2  -9   39.59    1.87
  -7   2  -9   41.92    2.15
  -7   2  -9   36.67    1.70
  -7   2  -9   38.51    2.25
  -8   2  -9    0.15    0.90
  -8   2  -9    1.22    0.79
  -8   2  -9    1.33    0.70
  -9   2  -9   18.53    1.92
  -9   2  -9   18.63    1.62
  -9   2  -9   19.22    1.87
 -10   2  -9    4.04    1.15
 -10   2  -9    5.62    1.26
   7   1  -9   11.38    1.74
  -7  -1   9   10.39    1.67
  -7  -1   9   12.82    2.11
   6   1  -9   12.00    1.59
  -6  -1   9   13.89    2.00
  -6  -1   9   13.11    1.84
   5   1  -9   50.13    2.65
  -5  -1   9   52.26    2.17
  -5  -1   9   50.58    2.40
   4   1  -9    2.03    0.98
   4   1  -9    2.86    1.04
  -4  -1   9    2.57    0.71
  -4  -1   9    3.40    0.94
  -4  -1   9    1.14    0.86
   3   1  -9   41.80    2.13
   3   1  -9   44.59    2.20
  -3  -1   9   43.08    2.11
  -3  -1   9   42.98    1.98
  -3  -1   9   45.23    1.63
   2   1  -9    1.81    0.70
   2   1  -9    2.97    0.78
  -2  -1   9    2.25    0.48
  -2  -1   9    3.01    0.67
  -2  -1   9    2.53    0.68
   1   1  -9    3.76    0.70
   1   1  -9    4.38    0.80
  -1  -1   9    4.86    0.80
  -1  -1   9    5.34    0.75
  -1  -1   9    6.96    1.08
   0   1  -9    8.36    1.04
   0   1  -9    8.97    1.15
   0   1  -9    6.77    0.81
   0  -1   9    7.93    1.13
   0  -1   9   10.21    1.01
  -1   1  -9    8.56    1.04
  -1   1  -9    7.32    0.96
  -1   1  -9    4.78    0.63
  -1   1  -9    6.53    0.76
   1  -1   9    6.43    0.99
  -2   1  -9  114.78    2.61
  -2   1  -9  115.80    2.79
  -2   1  -9  111.27    2.96
  -2   1  -9  112.22    2.91
  -3   1  -9    3.93    0.61
  -3   1  -9    3.89    0.63
  -3   1  -9    5.70    0.77
  -4   1  -9   86.68    2.45
  -4   1  -9   87.84    2.54
  -4   1  -9   88.23    2.58
  -4   1  -9   87.82    2.46
  -4   1  -9   88.63    2.36
  -5   1  -9   52.08    1.85
  -5   1  -9   51.44    1.68
  -5   1  -9   52.12    2.05
  -5   1  -9   53.30    1.79
  -5   1  -9   52.27    1.97
  -6   1  -9   62.54    1.94
  -6   1  -9   67.19    1.92
  -6   1  -9   65.34    2.45
  -6   1  -9   64.62    2.28
  -6   1  -9   66.62    2.22
  -7   1  -9   24.09    1.18
  -7   1  -9   23.01    1.87
  -7   1  -9   24.12    1.21
  -7   1  -9   20.98    1.78
  -8   1  -9   22.39    2.13
  -8   1  -9   18.88    1.55
  -8   1  -9   21.21    1.17
  -8   1  -9   22.44    1.76
  -9   1  -9   18.10    1.87
  -9   1  -9   14.54    1.63
 -10   1  -9   10.46    1.45
 -10   1  -9    8.31    1.26
 -11   1  -9   -0.13    1.17
 -11   1  -9    0.08    1.22
   7   0  -9    0.53    1.17
   6   0  -9   23.47    2.31
  -6   0   9   23.28    2.00
  -6   0   9   26.78    2.05
   5   0  -9   -1.22    0.86
  -5   0   9   -0.36    0.69
  -5   0   9    0.29    0.78
   4   0  -9   96.82    3.21
   4   0  -9   88.87    3.14
  -4   0   9   89.18    3.11
  -4   0   9   85.69    2.97
  -4   0   9   91.51    2.99
   3   0  -9    0.82    0.70
   3   0  -9    0.46    0.77
  -3   0   9   -0.28    0.66
  -3   0   9    0.75    0.44
  -3   0   9   -0.18    0.75
   2   0  -9  111.71    3.25
   2   0  -9  114.74    3.24
  -2   0   9  111.64    3.16
  -2   0   9  109.49    3.16
  -2   0   9  112.19    2.57
   1   0  -9   13.96    1.30
   1   0  -9   14.41    1.28
  -1   0   9   15.17    0.79
  -1   0   9   13.97    1.21
  -1   0   9   14.48    1.19
   0   0  -9  115.00    3.01
   0   0  -9  108.45    2.94
   0   0  -9  108.08    2.57
   0   0   9  114.88    2.98
   0   0   9  105.50    2.92
   0   0   9  110.54    2.57
  -1   0  -9    2.17    0.51
  -1   0  -9    1.46    0.29
  -1   0  -9    1.94    0.57
  -1   0  -9    1.04    0.45
   1   0   9    1.61    0.45
   1   0   9    1.00    0.51
   1   0   9    2.06    0.64
  -2   0  -9   51.53    1.73
  -2   0  -9   53.64    1.85
  -2   0  -9   53.26    1.40
  -2   0  -9   52.28    1.67
   2   0   9   52.62    1.70
  -3   0  -9   12.71    0.72
  -3   0  -9   11.82    1.05
  -3   0  -9   10.24    1.19
  -3   0  -9   12.65    0.93
   3   0   9   11.87    1.00
  -4   0  -9  139.85    3.49
  -4   0  -9  136.32    3.38
  -4   0  -9  144.61    3.51
  -4   0  -9  141.28    3.29
  -4   0  -9  141.02    3.20
  -5   0  -9   59.87    1.77
  -5   0  -9   59.70    1.96
  -5   0  -9   58.79    2.14
  -5   0  -9   57.75    2.04
  -5   0  -9   58.76    1.69
  -6   0  -9   24.17    1.39
  -6   0  -9   21.50    1.62
  -6   0  -9   20.79    1.04
  -6   0  -9   21.01    1.00
  -7   0  -9    0.42    0.82
  -7   0  -9    1.69    1.09
  -8   0  -9    3.88    0.78
  -8   0  -9    4.51    1.08
  -9   0  -9   -0.54    0.75
  -9   0  -9    1.20    0.85
 -10   0  -9    1.84    0.99
 -10   0  -9    4.97    1.05
 -11   0  -9   14.48    2.11
 -11   0  -9    8.48    1.29
   7  -1  -9   -1.30    1.13
  -7   1   9    0.30    0.93
   6  -1  -9    2.30    1.18
  -6   1   9    2.64    0.96
   5  -1  -9   40.17    2.47
  -5   1   9   40.81    2.13
   4  -1  -9   42.25    2.24
   4  -1  -9   39.06    2.14
  -4   1   9   38.28    1.95
  -4   1   9   41.09    1.59
  -4   1   9   43.18    2.19
   3  -1  -9   22.11    1.64
   3  -1  -9   16.94    2.55
  -3   1   9   20.18    1.60
  -3   1   9   20.02    1.03
   2  -1  -9    1.54    0.49
   2  -1  -9    0.91    0.67
   2  -1  -9    1.54    0.67
  -2   1   9    1.06    0.60
  -2   1   9    1.43    0.60
  -2   1   9    1.41    0.35
   1  -1  -9   18.19    1.05
   1  -1  -9   18.92    1.35
   1  -1  -9   18.03    1.30
  -1   1   9   16.52    0.88
  -1   1   9   17.12    1.24
  -1   1   9   19.04    1.28
   0  -1  -9    8.93    0.89
   0  -1  -9    8.92    1.09
   0  -1  -9    8.82    1.05
   0   1   9    8.71    0.77
   0   1   9    8.30    1.00
   0   1   9    7.40    0.92
  -1  -1  -9   11.47    0.87
  -1  -1  -9   10.49    1.03
  -1  -1  -9    9.47    0.95
   1   1   9   10.66    0.99
   1   1   9   10.37    0.85
  -2  -1  -9    0.76    0.51
  -2  -1  -9    0.58    0.43
  -2  -1  -9    0.81    0.42
   2   1   9    0.57    0.41
   2   1   9    0.75    0.42
  -3  -1  -9   58.14    2.18
  -3  -1  -9   61.64    1.76
  -3  -1  -9   63.07    1.99
   3   1   9   62.11    1.96
  -4  -1  -9   18.26    1.17
  -4  -1  -9   14.76    1.39
  -4  -1  -9   17.57    0.89
  -4  -1  -9   18.77    1.16
   4   1   9   17.96    1.17
  -5  -1  -9  208.86    4.30
  -5  -1  -9  224.44    4.95
  -5  -1  -9  209.13    4.73
  -5  -1  -9  215.32    4.82
  -5  -1  -9  207.40    4.37
  -6  -1  -9   62.50    2.10
  -6  -1  -9   62.45    2.29
  -7  -1  -9   86.14    2.77
  -7  -1  -9   86.74    2.91
  -8  -1  -9   30.80    1.67
  -8  -1  -9   30.18    2.07
  -9  -1  -9   25.52    1.74
 -10  -1  -9    0.43    0.90
 -10  -1  -9    0.56    0.91
 -11  -1  -9    4.98    1.23
 -11  -1  -9    4.59    1.11
   7  -2  -9   -0.48    1.14
  -7   2   9    0.90    1.02
  -7   2   9   -0.84    0.96
   6  -2  -9    5.73    1.22
  -6   2   9    8.42    1.29
  -6   2   9    7.41    1.00
   5  -2  -9   54.41    1.90
   5  -2  -9   56.66    2.74
  -5   2   9   54.11    1.94
  -5   2   9   57.82    2.42
   4  -2  -9    6.02    0.76
   4  -2  -9    4.49    1.09
   4  -2  -9    6.41    1.08
  -4   2   9    5.31    0.94
  -4   2   9    7.99    1.44
  -4   2   9    5.89    0.72
   3  -2  -9   62.96    2.38
   3  -2  -9   61.73    2.54
   3  -2  -9   62.82    1.90
  -3   2   9   64.10    1.71
  -3   2   9   62.74    1.87
  -3   2   9   63.58    2.74
  -3   2   9   65.07    2.36
   2  -2  -9   17.59    1.11
   2  -2  -9   20.15    1.45
   2  -2  -9   21.01    1.53
  -2   2   9   19.96    1.34
  -2   2   9   19.37    1.37
  -2   2   9   18.50    1.04
   1  -2  -9   40.66    1.76
   1  -2  -9   39.37    1.71
   1  -2  -9   39.63    1.45
  -1   2   9   38.19    1.37
  -1   2   9   39.52    1.64
  -1   2   9   38.76    1.65
   0  -2  -9   12.39    1.01
   0  -2  -9   10.64    1.11
   0  -2  -9   10.33    1.06
   0   2   9   10.39    0.97
   0   2   9    9.23    0.81
   0   2   9   11.00    1.00
  -1  -2  -9   65.69    1.96
  -1  -2  -9   64.73    1.88
  -1  -2  -9   64.46    2.05
   1   2   9   63.94    1.92
   1   2   9   59.98    2.00
   1   2   9   64.78    1.87
  -2  -2  -9    6.75    0.83
  -2  -2  -9    6.55    0.87
  -2  -2  -9    7.54    0.81
   2   2   9    6.31    0.83
   2   2   9    7.57    0.76
  -3  -2  -9    0.95    0.74
  -3  -2  -9    0.49    0.35
  -3  -2  -9    0.84    0.44
   3   2   9   -0.15    0.41
   3   2   9    1.00    0.37
  -4  -2  -9    3.53    0.62
  -4  -2  -9    3.40    0.63
  -4  -2  -9    4.81    0.63
  -4  -2  -9    2.52    0.56
   4   2   9    3.82    0.69
  -5  -2  -9  117.11    3.08
  -5  -2  -9  110.93    2.97
   5   2   9  110.44    3.09
  -6  -2  -9   29.76    1.45
  -6  -2  -9   28.92    1.63
   6   2   9   28.99    1.59
  -7  -2  -9    2.31    0.75
  -7  -2  -9    2.85    0.70
  -8  -2  -9    2.78    0.94
  -8  -2  -9    2.74    0.73
  -9  -2  -9   16.29    1.58
 -10  -2  -9    5.31    1.11
 -11  -2  -9    6.30    1.27
 -11  -2  -9    8.22    1.27
   7  -3  -9    3.17    1.20
  -7   3   9    2.71    1.03
  -7   3   9    4.46    1.17
   6  -3  -9    4.11    1.23
   6  -3  -9    4.39    0.96
  -6   3   9    2.92    0.96
  -6   3   9    2.26    0.92
   5  -3  -9   -0.83    0.68
   5  -3  -9    0.18    1.10
  -5   3   9    0.79    0.82
  -5   3   9    0.77    0.71
   4  -3  -9   51.94    2.02
   4  -3  -9   51.15    2.46
   4  -3  -9   53.37    2.40
  -4   3   9   50.73    1.90
  -4   3   9   52.07    2.34
  -4   3   9   51.56    2.19
   3  -3  -9   13.89    1.55
   3  -3  -9   12.60    1.16
   3  -3  -9   13.18    1.44
  -3   3   9   12.86    1.33
  -3   3   9   13.40    1.13
  -3   3   9   12.87    1.45
   2  -3  -9   12.27    1.45
   2  -3  -9   11.26    1.07
   2  -3  -9   12.52    1.31
  -2   3   9   13.42    1.20
  -2   3   9   11.61    1.03
  -2   3   9   11.90    1.24
   1  -3  -9   10.99    1.16
   1  -3  -9    9.27    1.23
   1  -3  -9   10.17    0.99
  -1   3   9   10.25    1.05
  -1   3   9    9.35    0.93
  -1   3   9    9.39    1.06
   0  -3  -9    2.32    0.57
   0  -3  -9    3.55    0.69
   0  -3  -9    2.84    0.58
   0   3   9    2.21    0.52
   0   3   9    2.89    0.55
   0   3   9    2.26    0.59
  -1  -3  -9  105.50    2.70
  -1  -3  -9  110.62    2.71
  -1  -3  -9  109.12    2.85
   1   3   9  102.31    2.65
   1   3   9  105.22    2.83
   1   3   9  108.71    2.67
  -2  -3  -9   11.53    0.98
  -2  -3  -9   12.31    0.92
  -2  -3  -9   11.33    1.25
   2   3   9   11.15    0.90
   2   3   9   11.64    0.84
  -3  -3  -9   23.32    1.00
  -3  -3  -9   22.58    1.20
  -3  -3  -9   24.07    1.38
   3   3   9   21.06    1.20
   3   3   9   22.18    0.95
  -4  -3  -9  132.96    3.28
  -4  -3  -9  125.83    3.17
  -4  -3  -9  127.41    2.78
  -4  -3  -9  138.44    3.34
   4   3   9  131.17    3.33
  -5  -3  -9   65.05    2.04
  -5  -3  -9   67.76    2.13
  -5  -3  -9   68.39    2.24
   5   3   9   67.07    2.23
  -6  -3  -9  120.67    3.18
  -6  -3  -9  127.89    3.39
   6   3   9  122.22    3.40
  -7  -3  -9    9.86    1.16
  -7  -3  -9    9.50    1.31
  -8  -3  -9   53.38    2.10
  -8  -3  -9   54.97    2.48
  -9  -3  -9    8.78    1.36
  -9  -3  -9   10.45    1.41
 -10  -3  -9    9.56    1.29
 -11  -3  -9   -0.85    0.94
 -12  -3  -9   10.58    1.78
   7  -4  -9    2.16    1.69
   7  -4  -9    3.41    1.15
  -7   4   9    2.80    1.20
  -7   4   9    3.74    1.14
   6  -4  -9   -0.69    0.99
   6  -4  -9   -0.39    1.04
  -6   4   9    0.76    0.96
  -6   4   9    0.42    0.94
   5  -4  -9   15.04    1.99
   5  -4  -9   13.78    1.58
  -5   4   9   15.09    1.61
  -5   4   9   14.26    1.66
   4  -4  -9   18.66    1.48
   4  -4  -9   20.05    1.87
   4  -4  -9   17.38    1.83
  -4   4   9   20.70    1.50
  -4   4   9   17.49    1.52
  -4   4   9   17.90    1.72
   3  -4  -9   31.84    1.62
   3  -4  -9   32.75    1.86
   3  -4  -9   31.51    2.11
  -3   4   9   32.01    1.69
  -3   4   9   31.58    1.60
  -3   4   9   33.09    1.86
   2  -4  -9   18.01    1.39
   2  -4  -9   19.87    1.57
   2  -4  -9   16.76    1.58
  -2   4   9   18.21    1.24
  -2   4   9   18.28    1.30
  -2   4   9   17.22    1.38
   1  -4  -9    2.36    0.70
   1  -4  -9    1.17    0.60
   1  -4  -9    3.25    0.61
  -1   4   9    1.56    0.57
  -1   4   9    2.53    0.60
  -1   4   9    2.75    0.63
   0  -4  -9   88.57    2.53
   0  -4  -9   82.75    2.44
   0  -4  -9   87.27    2.42
   0   4   9   86.69    2.47
   0   4   9   86.42    2.41
   0   4   9   83.92    2.36
  -1  -4  -9    3.56    0.64
  -1  -4  -9    2.33    0.56
  -1  -4  -9    3.55    0.62
   1   4   9    2.55    0.52
   1   4   9    3.02    0.58
   1   4   9    2.96    0.54
  -2  -4  -9   62.31    1.82
  -2  -4  -9   63.33    1.97
   2   4   9   64.13    1.77
   2   4   9   62.30    1.94
  -3  -4  -9    0.87    0.40
  -3  -4  -9    1.22    0.49
  -3  -4  -9    0.53    0.54
   3   4   9    1.28    0.47
   3   4   9    1.11    0.37
  -4  -4  -9   13.42    1.06
  -4  -4  -9   12.39    0.96
  -4  -4  -9   12.50    1.10
   4   4   9   11.80    1.06
  -5  -4  -9   13.25    1.02
  -5  -4  -9   15.01    1.14
  -5  -4  -9   14.83    1.23
   5   4   9   14.45    1.19
  -6  -4  -9   60.57    2.07
  -6  -4  -9   65.03    2.29
   6   4   9   63.24    2.28
  -7  -4  -9    1.98    0.64
  -7  -4  -9    3.46    0.84
   7   4   9    1.69    0.74
  -8  -4  -9   29.22    1.65
  -8  -4  -9   33.06    2.00
  -9  -4  -9   10.50    1.80
  -9  -4  -9    6.08    0.91
 -10  -4  -9   15.92    1.70
 -11  -4  -9    5.41    1.10
 -12  -4  -9    5.05    1.44
   7  -5  -9    4.24    1.28
   7  -5  -9    2.14    1.46
  -7   5   9    1.76    1.16
  -7   5   9   -1.08    1.22
   6  -5  -9    2.23    1.15
   6  -5  -9    3.35    1.14
  -6   5   9    1.35    1.11
  -6   5   9    3.24    1.11
   5  -5  -9    7.97    1.19
   5  -5  -9    6.32    1.12
   5  -5  -9    6.15    2.12
  -5   5   9    6.23    1.09
  -5   5   9    5.53    0.99
   4  -5  -9    0.67    0.93
   4  -5  -9   -0.06    0.75
   4  -5  -9    1.42    0.86
  -4   5   9    1.03    0.75
  -4   5   9   -0.20    0.76
  -4   5   9   -0.12    0.69
   3  -5  -9   54.85    2.06
   3  -5  -9   52.67    2.23
  -3   5   9   51.26    2.04
  -3   5   9   53.42    2.27
  -3   5   9   53.02    2.10
   2  -5  -9   63.08    2.40
   2  -5  -9   67.81    2.32
   2  -5  -9   66.45    2.24
  -2   5   9   65.67    2.20
  -2   5   9   69.92    2.36
  -2   5   9   64.18    2.23
   1  -5  -9    1.31    0.63
   1  -5  -9    2.24    0.63
   1  -5  -9    2.59    0.69
  -1   5   9    1.84    0.63
  -1   5   9    0.96    0.57
  -1   5   9    2.52    0.64
   0  -5  -9   52.67    1.91
   0  -5  -9   56.06    1.96
   0  -5  -9   54.54    1.90
   0   5   9   54.98    1.89
   0   5   9   52.93    1.84
   0   5   9   54.59    1.87
  -1  -5  -9   21.02    1.23
  -1  -5  -9   20.31    1.21
  -1  -5  -9   21.62    1.35
   1   5   9   19.69    1.17
   1   5   9   19.32    1.13
   1   5   9   21.41    1.13
  -2  -5  -9   20.47    1.16
  -2  -5  -9   20.09    1.11
  -2  -5  -9   21.41    1.29
   2   5   9   19.16    1.18
   2   5   9   19.89    1.00
  -3  -5  -9   11.58    0.83
  -3  -5  -9   12.25    0.99
  -3  -5  -9   14.85    1.14
   3   5   9   11.58    1.02
   3   5   9   12.50    0.79
  -4  -5  -9   14.69    1.09
  -4  -5  -9   14.41    1.02
  -4  -5  -9   14.94    1.20
   4   5   9   13.97    1.12
  -5  -5  -9   98.87    2.81
  -5  -5  -9   96.30    2.65
  -5  -5  -9   91.98    2.55
   5   5   9   94.43    2.79
  -6  -5  -9   -0.04    0.47
  -6  -5  -9    0.52    0.59
   6   5   9    0.36    0.62
  -7  -5  -9   84.36    2.82
  -7  -5  -9   86.38    2.61
   7   5   9   85.37    2.82
  -8  -5  -9    1.41    0.64
  -8  -5  -9   -1.11    0.86
   8   5   9   -0.98    0.61
  -9  -5  -9   14.71    1.52
  -9  -5  -9   14.90    2.00
 -10  -5  -9   -0.60    0.81
 -11  -5  -9    6.98    1.17
  -7   6   9    8.73    1.54
  -7   6   9    7.73    1.34
   6  -6  -9    1.49    1.27
   6  -6  -9    3.79    1.24
  -6   6   9    1.71    0.97
  -6   6   9    2.20    1.18
   5  -6  -9   14.22    1.93
   5  -6  -9   13.49    1.76
  -5   6   9   10.91    1.64
  -5   6   9   10.48    1.39
   4  -6  -9   34.26    2.01
   4  -6  -9   36.57    2.24
  -4   6   9   31.99    2.14
  -4   6   9   31.08    1.82
  -4   6   9   29.42    1.91
   3  -6  -9   79.51    2.67
   3  -6  -9   75.16    2.73
   3  -6  -9   75.34    2.57
  -3   6   9   78.13    2.58
  -3   6   9   75.76    2.79
  -3   6   9   80.24    2.65
   2  -6  -9   13.81    1.38
   2  -6  -9   15.80    1.43
   2  -6  -9   11.32    1.39
  -2   6   9   13.74    1.44
  -2   6   9   12.02    1.35
  -2   6   9   13.39    1.24
   1  -6  -9  135.46    3.43
   1  -6  -9  138.70    3.51
   1  -6  -9  128.95    3.50
  -1   6   9  132.91    3.42
  -1   6   9  140.56    3.55
  -1   6   9  133.65    3.48
   0  -6  -9    2.18    0.62
   0  -6  -9    1.86    0.59
   0  -6  -9    1.59    0.63
   0   6   9    2.78    0.64
   0   6   9    2.75    0.58
   0   6   9    1.35    0.58
  -1  -6  -9  144.15    3.44
  -1  -6  -9  145.05    3.57
  -1  -6  -9  137.04    3.35
   1   6   9  141.95    3.41
   1   6   9  142.03    3.42
   1   6   9  135.16    3.48
  -2  -6  -9    9.59    0.98
  -2  -6  -9   11.52    1.19
  -2  -6  -9    9.24    0.87
   2   6   9   10.79    0.89
   2   6   9    9.44    1.01
  -3  -6  -9   54.89    1.81
  -3  -6  -9   54.41    1.58
  -3  -6  -9   56.62    2.02
   3   6   9   51.45    1.90
   3   6   9   53.40    1.55
  -4  -6  -9    0.88    0.47
  -4  -6  -9    0.17    0.57
  -4  -6  -9    0.84    0.48
   4   6   9    0.15    0.47
  -5  -6  -9    6.33    0.94
  -5  -6  -9    7.87    0.91
  -5  -6  -9    7.43    0.98
   5   6   9    6.93    1.09
  -6  -6  -9   36.29    1.80
  -6  -6  -9   30.55    1.47
   6   6   9   31.53    1.69
  -7  -6  -9   34.18    1.63
  -7  -6  -9   33.62    1.86
   7   6   9   35.16    1.88
  -8  -6  -9   40.30    1.86
  -8  -6  -9   39.71    2.15
   8   6   9   38.96    2.06
  -9  -6  -9    3.50    0.83
  -9  -6  -9    5.15    1.22
   9   6   9    5.65    0.98
 -10  -6  -9   13.16    1.71
 -11  -6  -9    4.36    1.08
   7  -7  -9   16.64    2.27
  -7   7   9   10.12    1.54
  -7   7   9   14.41    2.49
  -6   7   9    4.37    1.27
  -6   7   9    3.39    1.22
   5  -7  -9   12.12    1.73
   5  -7  -9    9.49    1.44
  -5   7   9   10.16    1.29
  -5   7   9   11.80    1.45
   4  -7  -9   13.05    1.40
   4  -7  -9   11.24    1.82
   4  -7  -9   13.21    1.66
  -4   7   9   10.15    1.64
  -4   7   9    9.95    1.25
  -4   7   9   13.06    1.57
   3  -7  -9    0.12    0.74
   3  -7  -9    0.25    0.79
   3  -7  -9   -0.68    0.61
  -3   7   9    0.42    0.78
  -3   7   9    1.29    0.70
  -3   7   9    0.03    0.88
   2  -7  -9   51.39    2.12
   2  -7  -9   53.03    2.08
   2  -7  -9   49.45    2.09
  -2   7   9   49.67    2.19
  -2   7   9   50.23    1.98
  -2   7   9   48.85    2.12
   1  -7  -9    0.35    0.63
   1  -7  -9    0.52    0.66
   1  -7  -9    0.61    0.64
  -1   7   9    1.10    0.69
  -1   7   9    0.16    0.69
  -1   7   9    0.39    0.49
   0  -7  -9   22.23    1.35
   0  -7  -9   25.08    1.55
   0  -7  -9   22.80    1.39
   0   7   9   22.93    1.45
   0   7   9   22.18    1.41
   0   7   9   23.56    1.27
  -1  -7  -9    1.10    0.55
  -1  -7  -9    0.97    0.51
  -1  -7  -9    0.89    0.59
   1   7   9    0.75    0.55
   1   7   9    1.81    0.61
   1   7   9    1.26    0.49
  -2  -7  -9   51.76    2.07
  -2  -7  -9   52.68    1.79
  -2  -7  -9   51.51    1.68
   2   7   9   51.39    1.72
   2   7   9   48.18    1.88
  -3  -7  -9   17.78    0.78
  -3  -7  -9   18.47    1.15
  -3  -7  -9   18.00    1.40
  -3  -7  -9   17.02    0.97
   3   7   9   18.04    1.26
   3   7   9   18.90    1.03
  -4  -7  -9   30.91    1.65
  -4  -7  -9   28.94    1.10
  -4  -7  -9   28.89    1.32
  -4  -7  -9   28.33    1.37
  -4  -7  -9   29.28    1.03
   4   7   9   28.12    1.49
  -5  -7  -9   29.88    1.36
  -5  -7  -9   29.59    1.46
  -5  -7  -9   29.68    1.65
   5   7   9   29.07    1.60
  -6  -7  -9   93.78    2.96
  -6  -7  -9   94.13    2.72
   6   7   9   96.65    2.98
  -7  -7  -9    0.72    0.72
  -7  -7  -9   -0.15    0.58
  -8  -7  -9   36.76    1.85
  -8  -7  -9   35.58    2.21
   8   7   9   35.72    2.08
  -9  -7  -9    8.61    1.18
  -9  -7  -9    8.76    1.30
   9   7   9    8.00    1.15
 -10  -7  -9    1.65    0.91
 -11  -7  -9    7.39    1.25
   6  -8  -9   60.17    2.88
  -6   8   9   56.33    2.76
  -6   8   9   59.65    3.08
   5  -8  -9    1.63    0.99
  -5   8   9   -0.56    0.88
  -5   8   9    1.48    1.06
   4  -8  -9   24.42    2.16
   4  -8  -9   24.20    1.85
   4  -8  -9   24.28    2.18
  -4   8   9   22.17    2.02
  -4   8   9   25.83    1.80
   3  -8  -9    8.05    1.22
   3  -8  -9    7.89    1.10
   3  -8  -9    6.10    1.03
  -3   8   9    8.42    0.96
  -3   8   9    8.42    1.32
  -3   8   9    6.66    1.12
  -3   8   9    6.05    1.10
   2  -8  -9   66.67    2.29
   2  -8  -9   62.46    2.45
   2  -8  -9   50.31    2.68
  -2   8   9   62.33    1.72
  -2   8   9   61.01    2.41
  -2   8   9   63.13    2.22
  -2   8   9   63.30    2.53
   1  -8  -9    7.71    1.19
   1  -8  -9    8.84    1.09
   1  -8  -9    9.85    1.34
  -1   8   9    8.16    1.07
  -1   8   9    9.40    1.37
  -1   8   9    9.80    1.08
   0  -8  -9   53.33    2.17
   0  -8  -9   54.17    1.91
   0  -8  -9   48.81    1.92
   0   8   9   52.00    1.80
   0   8   9   51.21    2.04
   0   8   9   46.62    2.05
  -1  -8  -9   27.50    1.44
  -1  -8  -9   30.59    1.75
  -1  -8  -9   29.90    1.43
   1   8   9   31.64    1.60
   1   8   9   27.30    1.60
   1   8   9   28.90    1.31
  -2  -8  -9   25.10    1.61
  -2  -8  -9   24.23    1.25
  -2  -8  -9   23.11    1.29
   2   8   9   22.67    1.46
   2   8   9   25.47    1.42
  -3  -8  -9    6.85    0.96
  -3  -8  -9    8.81    1.35
  -3  -8  -9    7.55    0.69
  -3  -8  -9    6.65    0.82
   3   8   9    6.91    1.09
   3   8   9    9.84    1.02
  -4  -8  -9    4.93    0.74
  -4  -8  -9    5.33    0.71
  -4  -8  -9    5.45    0.68
  -4  -8  -9    5.80    0.91
  -4  -8  -9    6.14    0.88
   4   8   9    4.71    0.75
   4   8   9    7.12    0.85
  -5  -8  -9   13.24    1.05
  -5  -8  -9   11.81    1.47
  -5  -8  -9   14.92    1.20
  -5  -8  -9   12.31    1.06
   5   8   9   12.60    1.28
  -6  -8  -9   12.55    1.18
  -6  -8  -9   12.38    1.48
   6   8   9    9.52    1.34
  -7  -8  -9   91.00    3.11
  -7  -8  -9   94.12    2.77
   7   8   9   93.58    3.09
  -8  -8  -9   16.90    1.48
  -8  -8  -9   17.60    1.93
   8   8   9   16.87    1.70
  -9  -8  -9   28.98    2.87
  -9  -8  -9   24.87    1.88
   9   8   9   24.61    2.16
 -10  -8  -9   20.38    1.92
 -11  -8  -9    4.43    1.25
   6  -9  -9   22.98    2.35
  -6   9   9   25.91    2.58
  -6   9   9   19.64    2.21
   5  -9  -9   17.93    1.96
  -5   9   9   14.54    1.91
  -5   9   9   15.90    2.18
   4  -9  -9    0.10    1.07
   4  -9  -9    3.08    1.07
  -4   9   9    1.46    0.70
  -4   9   9    0.22    0.79
  -4   9   9   -0.41    0.97
   3  -9  -9    5.61    1.08
   3  -9  -9    4.05    0.92
   3  -9  -9    4.33    1.01
  -3   9   9    2.60    1.16
  -3   9   9    3.02    0.80
  -3   9   9    2.26    1.01
  -3   9   9    3.85    0.66
   2  -9  -9   12.92    1.44
   2  -9  -9   12.22    1.67
   2  -9  -9   10.56    1.44
  -2   9   9   11.12    1.72
  -2   9   9   11.91    1.62
  -2   9   9   10.60    1.63
  -2   9   9   12.57    1.03
   1  -9  -9   41.16    2.21
   1  -9  -9   40.68    1.90
   1  -9  -9   42.58    1.85
  -1   9   9   43.49    1.69
  -1   9   9   40.47    3.28
  -1   9   9   43.43    2.14
  -1   9   9   41.75    1.43
   0  -9  -9    9.46    1.17
   0  -9  -9    8.47    1.41
   0  -9  -9    8.55    1.21
   0   9   9   10.58    0.83
   0   9   9   11.10    1.07
   0   9   9    9.03    1.47
   0   9   9   10.89    1.67
  -1  -9  -9   12.05    1.17
  -1  -9  -9   13.50    1.51
  -1  -9  -9   13.27    1.20
   1   9   9   12.52    1.45
   1   9   9   11.95    1.38
  -2  -9  -9    9.65    1.15
  -2  -9  -9    8.19    1.02
  -2  -9  -9    9.04    1.57
   2   9   9    9.09    1.25
   2   9   9    8.70    1.23
  -3  -9  -9  122.08    2.99
  -3  -9  -9  114.04    2.76
  -3  -9  -9  123.69    3.05
  -3  -9  -9  125.71    3.49
  -3  -9  -9  121.57    3.02
   3   9   9  122.95    3.05
   3   9   9  116.85    3.36
  -4  -9  -9    1.02    0.43
  -4  -9  -9    0.76    0.73
  -4  -9  -9    1.04    0.54
  -4  -9  -9    0.39    0.56
  -4  -9  -9    0.86    0.44
   4   9   9    0.77    0.73
   4   9   9    0.88    0.56
  -5  -9  -9    6.77    1.01
  -5  -9  -9    8.33    0.77
  -5  -9  -9    5.99    0.97
  -5  -9  -9    8.90    1.15
  -5  -9  -9    8.28    1.06
   5   9   9    5.91    0.92
  -6  -9  -9    0.45    0.61
  -6  -9  -9   -0.08    0.57
  -6  -9  -9   -0.11    0.78
  -7  -9  -9   56.54    2.47
  -7  -9  -9   52.56    2.06
   7   9   9   51.61    2.35
  -8  -9  -9    7.86    1.05
   8   9   9    9.95    1.68
  -9  -9  -9   29.95    2.01
   9   9   9   28.66    2.20
 -10  -9  -9   20.95    2.02
  10   9   9   14.98    2.08
 -11  -9  -9    6.55    1.30
  -6  10   9    0.64    1.18
  -6  10   9    1.78    1.19
  -6  10   9    3.55    1.37
   5 -10  -9   11.29    1.97
  -5  10   9   12.99    2.20
  -5  10   9   10.94    1.55
  -5  10   9   10.28    1.34
   4 -10  -9    1.62    1.16
   4 -10  -9   -0.28    0.88
  -4  10   9   -0.99    0.88
  -4  10   9   -0.92    0.71
  -4  10   9   -1.46    0.98
   3 -10  -9    0.92    0.96
   3 -10  -9    1.00    0.82
  -3  10   9   -0.16    0.62
  -3  10   9    0.53    0.89
  -3  10   9    0.65    0.77
   2 -10  -9   27.79    1.81
   2 -10  -9   26.19    1.84
   2 -10  -9   31.14    2.14
  -2  10   9   30.37    2.10
  -2  10   9   27.99    2.26
  -2  10   9   30.06    1.57
  -2  10   9   27.17    1.43
   1 -10  -9    5.11    1.11
   1 -10  -9    7.03    1.08
   1 -10  -9    6.20    0.89
  -1  10   9    6.38    0.84
  -1  10   9    5.82    1.09
  -1  10   9    4.84    0.66
  -1  10   9    5.36    1.04
   0 -10  -9   12.68    1.62
   0 -10  -9   13.08    1.36
   0 -10  -9   14.28    1.30
   0  10   9   11.58    1.06
   0  10   9   13.17    1.58
   0  10   9   13.97    1.59
   0  10   9   12.15    1.02
  -1 -10  -9   59.31    2.33
  -1 -10  -9   58.42    2.21
  -1 -10  -9   60.90    2.54
   1  10   9   63.44    2.36
  -2 -10  -9    0.58    0.79
  -2 -10  -9    1.66    0.62
   2  10   9    1.03    0.75
   2  10   9    1.51    0.74
  -3 -10  -9   36.09    1.54
  -3 -10  -9   32.30    1.52
  -3 -10  -9   33.27    1.41
  -3 -10  -9   31.52    2.01
  -3 -10  -9   33.32    1.38
   3  10   9   30.95    1.81
   3  10   9   33.59    1.71
  -4 -10  -9    5.65    0.91
  -4 -10  -9    6.90    0.99
  -4 -10  -9    6.21    0.77
  -4 -10  -9    6.66    1.03
  -4 -10  -9    5.83    0.92
   4  10   9    4.86    1.06
   4  10   9    5.82    0.81
  -5 -10  -9   17.28    1.07
  -5 -10  -9   17.02    1.37
  -5 -10  -9   18.72    1.26
  -5 -10  -9   20.66    1.81
  -5 -10  -9   17.02    1.28
   5  10   9   14.32    1.84
   5  10   9   16.39    1.24
  -6 -10  -9   12.03    1.81
  -6 -10  -9   13.59    1.35
  -6 -10  -9   13.45    1.40
  -6 -10  -9   14.07    1.58
   6  10   9   13.62    1.50
  -7 -10  -9    9.69    1.54
  -7 -10  -9   13.90    2.01
  -7 -10  -9   12.16    1.39
   7  10   9   11.85    1.61
  -8 -10  -9   25.41    2.46
  -8 -10  -9   25.57    1.74
  -8 -10  -9   23.18    2.01
   8  10   9   25.48    2.00
  -9 -10  -9   19.12    1.88
   9  10   9   20.75    2.20
 -10 -10  -9    4.77    1.21
  10  10   9    1.52    1.18
 -11 -10  -9   -0.41    1.21
   5 -11  -9    1.39    1.29
  -5  11   9    1.77    1.21
  -5  11   9    1.24    1.01
  -5  11   9    4.93    1.25
   4 -11  -9   -0.71    1.32
   4 -11  -9    0.55    1.01
  -4  11   9   -0.61    1.15
  -4  11   9    1.95    0.89
  -4  11   9    2.23    0.97
   3 -11  -9    1.66    0.90
   3 -11  -9    0.24    1.01
  -3  11   9   -0.01    0.81
  -3  11   9    0.38    0.74
   2 -11  -9    1.72    0.89
   2 -11  -9    3.08    0.92
  -2  11   9    1.19    0.69
  -2  11   9    1.86    0.94
  -2  11   9    2.90    1.05
   1 -11  -9   15.40    1.96
   1 -11  -9   16.32    1.51
   1 -11  -9   18.81    1.68
  -1  11   9   18.88    1.84
  -1  11   9   14.83    1.29
  -1  11   9   17.14    2.05
  -1  11   9   17.75    1.33
   0 -11  -9   32.87    1.66
   0 -11  -9   32.91    1.90
   0 -11  -9   31.44    2.15
   0  11   9   33.51    1.54
   0  11   9   32.29    2.13
   0  11   9   32.50    2.06
  -1 -11  -9    1.16    0.76
  -1 -11  -9   -0.54    0.93
   1  11   9    0.05    0.73
   1  11   9    0.29    0.83
  -2 -11  -9   40.67    1.85
  -2 -11  -9   39.28    2.21
  -2 -11  -9   40.06    1.52
  -2 -11  -9   37.03    1.80
   2  11   9   37.40    2.06
   2  11   9   39.91    1.99
  -3 -11  -9   -0.19    0.57
  -3 -11  -9   -0.38    0.53
  -3 -11  -9   -0.72    1.04
  -3 -11  -9   -0.81    0.51
  -3 -11  -9   -1.02    0.80
   3  11   9   -0.21    0.69
   3  11   9   -0.02    0.69
  -4 -11  -9   48.59    1.86
  -4 -11  -9   51.72    1.88
  -4 -11  -9   47.34    1.74
  -4 -11  -9   49.56    1.85
  -4 -11  -9   48.77    2.45
   4  11   9   49.39    2.23
   4  11   9   52.82    2.00
  -5 -11  -9   21.23    1.49
  -5 -11  -9   22.59    1.50
  -5 -11  -9   21.67    1.58
  -5 -11  -9   21.00    1.28
  -5 -11  -9   20.34    2.10
   5  11   9   21.18    1.70
   5  11   9   20.88    1.42
  -6 -11  -9   13.92    1.51
  -6 -11  -9   11.88    1.36
  -6 -11  -9   13.07    2.04
  -6 -11  -9   12.53    1.46
   6  11   9   13.04    1.58
  -7 -11  -9   -0.82    0.76
  -7 -11  -9    1.30    0.84
  -7 -11  -9   -0.37    1.16
   7  11   9    0.40    0.94
  -8 -11  -9   44.82    2.55
  -8 -11  -9   48.85    2.24
   8  11   9   46.12    2.54
  -9 -11  -9    2.27    1.09
   9  11   9    1.42    1.16
 -10 -11  -9   21.26    2.25
  10  11   9   19.57    2.34
   4 -12  -9    7.44    1.59
   4 -12  -9    6.29    1.26
  -4  12   9    8.11    1.15
  -4  12   9    8.09    1.22
   3 -12  -9    3.18    1.07
   3 -12  -9    3.24    1.21
  -3  12   9    3.63    1.22
  -3  12   9    5.19    1.05
  -3  12   9    3.27    0.95
   2 -12  -9    1.17    1.00
  -2  12   9    0.82    0.78
  -2  12   9    2.18    1.05
  -2  12   9   -0.09    0.64
   1 -12  -9   50.41    2.51
   1 -12  -9   52.05    2.10
  -1  12   9   50.05    1.82
  -1  12   9   46.74    2.54
  -1  12   9   47.96    2.02
   0 -12  -9   46.66    2.36
   0  12   9   49.71    1.97
   0  12   9   48.24    2.57
   0  12   9   46.07    2.53
  -1 -12  -9   14.17    2.04
  -1 -12  -9   19.48    1.70
  -1 -12  -9   18.04    1.37
   1  12   9   16.80    1.94
   1  12   9   15.52    1.74
  -2 -12  -9   63.25    2.45
  -2 -12  -9   59.85    2.80
  -2 -12  -9   60.87    2.00
  -2 -12  -9   61.01    1.90
   2  12   9   61.62    2.49
   2  12   9   62.41    2.67
  -3 -12  -9    1.03    0.69
  -3 -12  -9    0.59    0.66
  -3 -12  -9    0.25    0.54
  -3 -12  -9    0.99    0.62
  -3 -12  -9    1.83    1.17
   3  12   9   -0.05    0.83
   3  12   9    0.50    0.82
  -4 -12  -9   22.17    1.60
  -4 -12  -9   22.10    1.33
  -4 -12  -9   19.57    2.18
  -4 -12  -9   21.86    1.53
  -4 -12  -9   23.92    1.47
   4  12   9   23.68    1.72
   4  12   9   21.62    1.79
  -5 -12  -9    0.22    0.75
  -5 -12  -9   -0.11    0.61
  -5 -12  -9    0.55    1.20
  -5 -12  -9   -0.36    0.66
  -5 -12  -9    0.11    0.67
   5  12   9    1.50    0.86
   5  12   9    0.67    0.78
  -6 -12  -9    1.96    0.80
  -6 -12  -9    2.48    1.27
  -6 -12  -9    2.42    0.85
  -6 -12  -9    1.89    0.92
   6  12   9    2.82    0.97
   6  12   9    2.84    0.93
  -7 -12  -9    3.67    1.05
  -7 -12  -9    4.29    1.07
  -7 -12  -9    2.88    0.86
   7  12   9    3.85    1.19
  -8 -12  -9    1.61    0.93
   8  12   9    2.58    1.16
  -9 -12  -9   21.46    2.12
   9  12   9   17.18    2.34
  10  12   9    2.71    1.36
  -4  13   9   -1.75    1.14
  -4  13   9    3.09    1.27
  -4  13   9    0.52    1.72
   3 -13  -9   -0.94    1.10
  -3  13   9   -1.03    1.14
  -3  13   9    0.97    1.01
  -3  13   9    0.94    0.83
   2 -13  -9    3.74    1.12
   2 -13  -9    3.60    1.06
  -2  13   9    1.38    1.65
  -2  13   9    2.52    1.20
  -2  13   9    3.84    0.82
   1 -13  -9   10.19    1.54
   1 -13  -9   10.33    1.85
  -1  13   9   12.26    2.00
  -1  13   9    7.68    1.48
   0 -13  -9    3.32    1.11
   0 -13  -9    4.10    0.84
   0  13   9    3.23    0.92
   0  13   9    2.80    1.08
  -1 -13  -9   54.31    2.55
  -1 -13  -9   46.21    1.68
  -1 -13  -9   48.92    1.84
   1  13   9   48.39    2.53
   1  13   9   48.24    2.63
  -2 -13  -9    5.29    1.01
  -2 -13  -9    3.94    0.64
  -2 -13  -9    4.74    0.80
   2  13   9    6.76    1.19
   2  13   9    4.41    1.09
  -3 -13  -9   15.60    1.16
  -3 -13  -9   15.74    1.69
  -3 -13  -9   20.60    1.70
  -3 -13  -9   20.24    1.40
   3  13   9   15.45    1.78
   3  13   9   16.47    1.87
  -4 -13  -9    0.56    0.74
  -4 -13  -9    0.00    0.61
  -4 -13  -9    0.34    0.83
   4  13   9    0.81    0.90
   4  13   9    1.94    0.88
  -5 -13  -9   33.93    1.83
  -5 -13  -9   28.87    1.54
  -5 -13  -9   30.25    1.89
  -5 -13  -9   32.78    2.07
   5  13   9   34.03    2.28
   5  13   9   33.00    1.96
  -6 -13  -9   -1.59    0.92
  -6 -13  -9    0.05    0.93
  -6 -13  -9    0.79    0.75
   6  13   9    1.66    0.87
   6  13   9   -1.10    0.93
  -7 -13  -9   11.20    1.42
  -7 -13  -9    8.82    1.11
   7  13   9    9.33    1.36
  -8 -13  -9   27.75    2.18
   8  13   9   31.00    2.46
  -9 -13  -9   29.85    2.44
   9  13   9   30.94    2.58
   3 -14  -9   14.92    2.80
  -3  14   9   14.88    2.28
   2 -14  -9    2.30    1.19
  -2  14   9    1.91    1.17
  -2  14   9    3.65    1.14
   1 -14  -9   16.13    2.22
  -1  14   9   10.52    1.28
  -1  14   9   14.95    2.22
   0 -14  -9   19.33    2.16
   0  14   9   14.52    1.82
   0  14   9   16.14    2.20
  -1 -14  -9   19.00    2.05
   1  14   9   15.42    2.00
  -2 -14  -9    1.66    1.01
   2  14   9    2.06    1.25
   2  14   9    2.51    1.06
  -3 -14  -9    5.57    1.11
  -3 -14  -9    6.02    0.82
   3  14   9    3.35    1.07
   3  14   9    5.97    1.30
  -4 -14  -9   12.12    1.86
  -4 -14  -9   14.19    1.89
  -4 -14  -9   14.09    1.50
  -4 -14  -9   13.18    1.36
   4  14   9   16.16    2.08
   4  14   9   11.58    1.89
  -5 -14  -9    3.07    0.98
  -5 -14  -9    1.86    0.75
  -5 -14  -9    2.62    1.27
   5  14   9    1.97    1.14
   5  14   9    2.74    1.09
  -6 -14  -9    4.94    1.13
  -6 -14  -9    4.87    0.97
   6  14   9    6.14    1.22
   6  14   9    5.43    1.20
  -7 -14  -9    2.50    1.15
   7  14   9    5.58    1.12
   7  14   9    4.07    1.19
  -8 -14  -9   15.46    2.16
   8  14   9   18.59    2.43
   1 -15  -9   -1.13    1.24
  -1  15   9    3.38    1.36
  -1  15   9   -1.68    1.08
   0 -15  -9   14.19    2.17
   0  15   9   15.64    2.38
   0  15   9    9.89    1.29
  -1 -15  -9    7.77    1.33
   1  15   9   12.60    1.99
  -2 -15  -9   29.38    2.43
   2  15   9   29.33    2.45
  -3 -15  -9   -1.37    1.07
   3  15   9    0.39    1.07
  -4 -15  -9   34.17    2.41
   4  15   9   30.33    2.75
   4  15   9   32.83    2.41
   5  15   9    4.73    1.38
   5  15   9    6.41    1.38
   6  15   9   10.19    1.44
   7  15   9   11.39    2.15
   7  15   9    8.15    1.50
  -1 -16  -9   18.40    2.62
   1  16   9   22.57    2.50
  -2 -16  -9    0.39    1.24
   2  16   9    1.54    1.42
  -3 -16  -9    9.92    1.54
   3  16   9    8.08    1.42
  -4 -16  -9    2.05    1.35
   4  16   9    0.64    1.26
   5  16   9   23.79    2.61
  -1   9 -10   26.39    2.37
  -2   9 -10    3.24    1.30
  -2   9 -10    3.15    1.12
  -2  -8  10   -0.41    1.31
   1   8 -10    6.87    1.38
   0   8 -10   -0.17    1.05
  -1   8 -10    0.36    1.01
  -1   8 -10    0.49    0.94
  -2   8 -10    1.33    1.03
  -2   8 -10    3.33    1.09
  -2   8 -10    5.14    1.26
  -2   8 -10    2.51    0.95
  -3   8 -10    8.25    1.23
  -3   8 -10    7.21    1.22
  -3   8 -10    7.24    1.27
  -3   8 -10    7.97    1.99
  -4   8 -10    0.94    1.14
  -4   8 -10    1.39    1.68
  -4   8 -10    1.79    1.00
  -4   8 -10    2.32    1.70
  -4   8 -10    2.85    1.22
  -5   8 -10   16.01    2.21
  -5   8 -10   13.74    2.32
  -5   8 -10   13.95    2.09
  -5   8 -10   16.60    1.80
   3   7 -10    6.85    1.68
  -3  -7  10   10.59    1.55
   2   7 -10    7.83    1.36
  -2  -7  10    8.93    1.37
   1   7 -10    6.26    1.08
   1   7 -10    6.72    1.39
   0   7 -10    8.49    1.33
   0   7 -10    5.79    1.15
  -1   7 -10   -0.97    0.96
  -1   7 -10    1.85    1.06
  -1   7 -10   -0.10    0.89
  -2   7 -10   18.08    1.67
  -2   7 -10   12.67    1.77
  -2   7 -10   15.02    1.57
  -2   7 -10   15.42    1.92
  -2   7 -10   14.80    1.99
  -2   7 -10   13.26    1.47
  -3   7 -10    0.28    0.92
  -3   7 -10    1.79    0.94
  -3   7 -10    1.81    1.06
  -3   7 -10    2.14    1.12
  -3   7 -10    1.47    1.08
  -3   7 -10    1.39    0.86
  -4   7 -10   48.46    2.36
  -4   7 -10   48.88    2.54
  -4   7 -10   45.17    2.41
  -4   7 -10   47.42    2.72
  -4   7 -10   49.55    2.50
  -5   7 -10   -0.90    0.99
  -5   7 -10   -0.96    0.88
  -5   7 -10    0.74    1.07
  -5   7 -10    2.24    1.21
  -5   7 -10   -0.12    0.88
  -6   7 -10   13.93    2.19
  -6   7 -10   14.64    2.21
  -6   7 -10   13.39    2.05
  -6   7 -10   10.97    1.32
   4   6 -10   21.91    2.48
  -4  -6  10   27.29    2.45
   3   6 -10    2.12    1.17
  -3  -6  10    0.87    1.64
  -3  -6  10    2.05    1.11
   2   6 -10   11.47    1.98
   2   6 -10    9.27    1.46
  -2  -6  10    7.86    1.26
   1   6 -10    4.64    1.20
   1   6 -10    2.94    1.09
  -1  -6  10    5.29    1.09
   0   6 -10   29.92    2.18
   0   6 -10   28.71    2.10
  -1   6 -10    5.88    0.97
  -1   6 -10    5.61    1.11
  -1   6 -10    6.63    1.15
  -2   6 -10   19.19    1.56
  -2   6 -10   18.21    1.40
  -2   6 -10   20.31    1.70
  -2   6 -10   17.88    1.80
  -2   6 -10   17.42    1.81
  -3   6 -10   13.69    1.74
  -3   6 -10   18.44    1.52
  -3   6 -10   12.24    1.69
  -3   6 -10   12.13    1.53
  -3   6 -10   14.74    1.75
  -3   6 -10   15.18    1.62
  -4   6 -10   87.35    2.81
  -4   6 -10   86.87    2.98
  -4   6 -10   89.47    3.16
  -4   6 -10   82.50    3.37
  -4   6 -10   87.03    3.01
  -4   6 -10   88.95    3.12
  -5   6 -10    2.61    1.30
  -5   6 -10    1.76    1.01
  -5   6 -10    2.33    0.93
  -5   6 -10    2.65    0.87
  -5   6 -10    1.72    1.04
  -5   6 -10    1.82    1.00
  -6   6 -10   22.75    2.25
  -6   6 -10   26.91    1.85
  -6   6 -10   18.61    1.99
  -6   6 -10   22.04    1.96
  -6   6 -10   21.57    2.11
  -7   6 -10    0.98    1.04
  -7   6 -10    0.38    1.25
  -7   6 -10    3.16    1.07
  -7   6 -10    4.60    1.80
  -7   6 -10    3.15    1.08
  -8   6 -10   17.14    2.32
  -8   6 -10   10.79    1.39
   5   5 -10   10.68    2.16
  -5  -5  10    9.58    1.51
   4   5 -10   12.26    2.16
  -4  -5  10   17.25    2.72
  -4  -5  10   14.39    2.15
   3   5 -10    3.80    1.18
  -3  -5  10    4.02    1.10
  -3  -5  10    4.23    1.19
   2   5 -10    1.92    0.96
   2   5 -10    4.50    1.25
  -2  -5  10    4.43    1.11
  -2  -5  10    3.52    1.00
   1   5 -10   20.36    1.97
   1   5 -10   21.90    2.09
  -1  -5  10   23.66    1.79
   0   5 -10    6.41    1.05
   0   5 -10    5.94    1.02
   0  -5  10    7.30    1.67
  -1   5 -10   18.88    1.58
  -1   5 -10   17.77    1.70
  -1   5 -10   17.81    1.71
  -1   5 -10   19.23    2.17
  -2   5 -10   22.24    1.75
  -2   5 -10   26.74    2.24
  -2   5 -10   21.54    1.55
  -2   5 -10   24.36    1.39
  -2   5 -10   24.11    1.82
  -2   5 -10   25.48    1.52
  -3   5 -10   75.24    2.45
  -3   5 -10   74.37    2.62
  -3   5 -10   77.97    2.77
  -3   5 -10   72.52    2.54
  -3   5 -10   71.60    2.65
  -3   5 -10   74.11    3.02
  -3   5 -10   77.45    2.47
  -4   5 -10   -0.97    0.87
  -4   5 -10    0.53    0.76
  -4   5 -10    0.59    0.85
  -4   5 -10    1.65    0.99
  -4   5 -10    0.01    0.72
  -4   5 -10    0.56    0.75
  -4   5 -10    0.87    0.89
  -5   5 -10   82.51    3.08
  -5   5 -10   81.62    2.81
  -5   5 -10   80.72    2.85
  -5   5 -10   79.20    2.79
  -5   5 -10   78.57    3.13
  -5   5 -10   70.43    3.07
  -5   5 -10   76.61    2.79
  -6   5 -10    1.48    0.84
  -6   5 -10    1.84    0.98
  -6   5 -10    0.25    0.83
  -6   5 -10    0.80    1.15
  -6   5 -10    1.23    0.90
  -6   5 -10    0.22    0.92
  -7   5 -10   20.99    1.94
  -7   5 -10   26.88    2.44
  -7   5 -10   28.47    2.39
  -7   5 -10   26.62    2.26
  -7   5 -10   25.56    2.01
  -7   5 -10   25.96    2.02
  -8   5 -10    1.25    1.10
  -8   5 -10    3.98    1.41
  -8   5 -10    0.50    1.11
  -8   5 -10    0.37    0.93
   5   4 -10   14.47    1.83
  -5  -4  10   12.31    1.62
  -5  -4  10   14.21    1.57
   4   4 -10    1.62    1.04
  -4  -4  10   -0.14    1.11
  -4  -4  10    1.77    1.07
   3   4 -10   62.91    2.83
  -3  -4  10   61.91    2.60
  -3  -4  10   62.48    2.67
   2   4 -10    1.55    1.01
   2   4 -10    1.74    0.95
  -2  -4  10    1.31    0.84
  -2  -4  10    1.36    0.82
   1   4 -10   26.53    2.01
   1   4 -10   24.64    1.92
  -1  -4  10   22.94    1.67
   0   4 -10   26.13    1.85
   0   4 -10   24.75    1.84
   0  -4  10   28.26    2.13
  -1   4 -10   37.06    1.94
  -1   4 -10   35.19    1.64
  -1   4 -10   33.88    1.92
  -1   4 -10   36.25    2.27
  -2   4 -10    0.41    0.86
  -2   4 -10    0.35    0.57
  -2   4 -10    0.04    0.75
  -2   4 -10   -0.66    0.65
  -2   4 -10   -0.24    0.67
  -2   4 -10   -0.02    0.53
  -3   4 -10   12.20    1.47
  -3   4 -10   12.33    1.75
  -3   4 -10   11.24    1.25
  -3   4 -10   13.78    1.24
  -3   4 -10   12.85    1.36
  -4   4 -10   30.85    1.76
  -4   4 -10   30.66    1.66
  -4   4 -10   28.64    1.71
  -4   4 -10   28.37    1.77
  -4   4 -10   32.25    1.84
  -4   4 -10   29.86    2.00
  -4   4 -10   31.85    1.69
  -5   4 -10   14.09    1.68
  -5   4 -10   14.59    1.81
  -5   4 -10   13.12    1.57
  -5   4 -10   15.30    1.68
  -5   4 -10   14.52    1.46
  -5   4 -10   11.57    1.65
  -5   4 -10   14.82    1.60
  -6   4 -10    2.69    1.19
  -6   4 -10    2.40    0.86
  -6   4 -10    2.28    0.91
  -6   4 -10    0.79    0.98
  -6   4 -10    2.36    0.83
  -6   4 -10    0.99    0.78
  -6   4 -10    1.08    0.94
  -7   4 -10   -0.74    0.86
  -7   4 -10    0.13    1.20
  -7   4 -10   -0.30    1.00
  -7   4 -10    1.21    0.83
  -7   4 -10    2.50    1.06
  -8   4 -10    8.34    1.97
  -8   4 -10    4.43    1.29
  -9   4 -10    0.46    1.11
  -9   4 -10   -0.52    1.16
  -9   4 -10    0.94    1.12
   6   3 -10   14.60    1.95
   5   3 -10    4.43    1.20
  -5  -3  10    4.19    1.15
  -5  -3  10    3.42    1.27
   4   3 -10   79.40    3.26
  -4  -3  10   78.67    3.07
  -4  -3  10   79.91    2.84
   3   3 -10    1.70    0.96
   3   3 -10    2.64    1.14
  -3  -3  10    1.65    0.95
  -3  -3  10    2.46    0.85
   2   3 -10   50.22    2.43
   2   3 -10   43.44    2.29
  -2  -3  10   46.51    1.92
  -2  -3  10   44.05    2.16
   1   3 -10    9.46    1.50
   1   3 -10   11.73    1.67
  -1  -3  10    9.28    1.36
   0   3 -10   67.16    2.46
   0   3 -10   68.42    2.53
   0  -3  10   68.09    2.43
  -1   3 -10    3.21    1.00
  -1   3 -10    4.16    0.60
  -1   3 -10    2.67    0.59
  -1   3 -10    2.87    0.85
   1  -3  10    3.49    0.76
  -2   3 -10   27.33    1.32
  -2   3 -10   26.59    1.61
  -2   3 -10   26.76    1.64
  -2   3 -10   27.74    1.34
  -2   3 -10   28.24    1.65
  -2   3 -10   27.46    1.79
  -3   3 -10   19.00    1.46
  -3   3 -10   20.43    1.25
  -3   3 -10   17.77    1.62
  -3   3 -10   18.79    1.39
  -3   3 -10   18.65    1.45
  -3   3 -10   18.65    1.33
  -4   3 -10   88.10    2.89
  -4   3 -10   88.66    2.80
  -4   3 -10   93.00    2.75
  -4   3 -10   90.87    2.67
  -4   3 -10   87.43    2.56
  -4   3 -10   90.56    2.77
  -4   3 -10   89.80    2.76
  -5   3 -10    5.39    0.84
  -5   3 -10    7.80    1.06
  -5   3 -10    6.10    0.95
  -5   3 -10    5.63    0.83
  -5   3 -10    3.99    0.89
  -5   3 -10    8.05    1.16
  -5   3 -10    5.60    0.84
  -6   3 -10   33.91    1.71
  -6   3 -10   32.49    1.79
  -6   3 -10   29.74    1.95
  -6   3 -10   29.98    1.98
  -6   3 -10   33.08    2.18
  -6   3 -10   33.62    1.75
  -7   3 -10   11.59    1.43
  -7   3 -10   14.83    1.58
  -7   3 -10   14.91    1.78
  -7   3 -10   11.91    1.59
  -7   3 -10   11.77    1.91
  -8   3 -10    4.06    0.96
  -8   3 -10    5.09    1.22
  -8   3 -10    3.22    0.91
  -9   3 -10    0.60    1.01
  -9   3 -10    0.43    0.84
  -9   3 -10   -0.08    0.95
 -10   3 -10   13.64    1.59
 -10   3 -10   19.72    2.77
   6   2 -10    8.43    1.65
  -6  -2  10    9.48    1.56
   5   2 -10   10.96    1.47
  -5  -2  10   14.56    2.00
  -5  -2  10   16.89    1.97
   4   2 -10   13.19    1.92
  -4  -2  10   18.31    1.86
  -4  -2  10   12.78    1.63
   3   2 -10   10.23    1.29
   3   2 -10    9.10    1.25
  -3  -2  10   12.31    1.40
  -3  -2  10    7.77    1.07
   2   2 -10   14.88    1.77
   2   2 -10   11.84    1.60
  -2  -2  10   15.38    1.53
  -2  -2  10   16.75    1.82
  -2  -2  10   14.46    1.43
   1   2 -10   45.03    2.09
   1   2 -10   46.27    2.11
  -1  -2  10   42.46    2.32
   0   2 -10    3.40    0.80
   0   2 -10    3.86    0.79
   0  -2  10    3.54    0.78
  -1   2 -10   40.05    1.45
  -1   2 -10   40.52    1.88
  -1   2 -10   41.39    1.90
  -1   2 -10   40.16    1.46
   1  -2  10   40.11    1.80
  -2   2 -10    0.47    0.56
  -2   2 -10    0.48    0.42
  -2   2 -10    1.36    0.64
  -2   2 -10    0.73    0.54
  -3   2 -10   23.90    1.46
  -3   2 -10   26.06    1.46
  -3   2 -10   25.72    1.51
  -3   2 -10   26.08    1.24
  -3   2 -10   25.84    1.57
  -4   2 -10    2.31    0.75
  -4   2 -10    3.25    0.67
  -4   2 -10    3.13    0.73
  -4   2 -10    2.65    0.75
  -4   2 -10    1.99    0.55
  -4   2 -10    3.35    0.78
  -5   2 -10   29.68    1.61
  -5   2 -10   29.44    1.51
  -5   2 -10   28.25    1.82
  -5   2 -10   29.87    1.67
  -5   2 -10   27.44    1.54
  -5   2 -10   26.82    1.43
  -6   2 -10   21.89    1.68
  -6   2 -10   19.55    1.83
  -6   2 -10   19.30    1.42
  -6   2 -10   22.02    1.64
  -6   2 -10   17.19    1.71
  -6   2 -10   21.05    1.33
  -7   2 -10    3.32    1.05
  -7   2 -10    4.10    1.19
  -7   2 -10    3.24    0.84
  -7   2 -10    3.84    1.03
  -7   2 -10    3.84    0.74
  -8   2 -10    3.42    1.00
  -8   2 -10    3.89    0.73
  -8   2 -10    4.67    0.88
  -8   2 -10    3.28    1.15
  -9   2 -10   17.79    1.46
  -9   2 -10   20.97    2.06
  -9   2 -10   18.90    1.89
 -10   2 -10   17.09    2.06
 -10   2 -10   15.18    2.26
   6   1 -10   -1.48    1.14
  -6  -1  10   -1.11    1.00
  -6  -1  10   -0.92    1.23
   5   1 -10   23.75    2.34
  -5  -1  10   24.82    1.91
  -5  -1  10   25.40    2.05
   4   1 -10   12.27    1.85
  -4  -1  10   14.10    1.50
  -4  -1  10   12.87    1.68
   3   1 -10  111.69    3.57
   3   1 -10  107.42    3.50
  -3  -1  10  112.54    3.55
  -3  -1  10  106.25    3.37
   2   1 -10   -0.10    0.74
   2   1 -10    1.05    0.82
  -2  -1  10    0.83    0.51
  -2  -1  10   -1.23    0.64
  -2  -1  10    1.55    0.77
   1   1 -10   22.03    2.09
   1   1 -10   25.32    1.66
  -1  -1  10   22.56    1.68
  -1  -1  10   24.27    1.58
   0   1 -10   -0.07    0.56
   0   1 -10   -0.24    0.45
   0   1 -10    0.11    0.65
   0  -1  10    0.03    0.54
  -1   1 -10   14.34    1.29
  -1   1 -10   14.54    0.84
  -1   1 -10   11.14    0.97
  -1   1 -10   16.39    1.29
   1  -1  10   14.21    1.27
  -2   1 -10    0.87    0.36
  -2   1 -10    1.09    0.65
  -2   1 -10    2.24    0.61
  -2   1 -10    0.63    0.52
  -3   1 -10    6.11    0.95
  -3   1 -10    4.49    0.75
  -3   1 -10    4.30    0.75
  -3   1 -10    5.18    0.73
  -4   1 -10    3.37    0.72
  -4   1 -10    3.02    0.53
  -4   1 -10    3.37    0.64
  -4   1 -10    2.71    0.65
  -4   1 -10    2.61    0.69
  -4   1 -10    4.23    0.77
  -5   1 -10   72.45    2.13
  -5   1 -10   64.38    2.56
  -5   1 -10   72.96    2.33
  -5   1 -10   73.13    2.42
  -5   1 -10   72.44    2.50
  -6   1 -10    0.13    0.56
  -6   1 -10    0.69    0.85
  -6   1 -10    0.34    0.74
  -6   1 -10    1.01    0.51
  -7   1 -10   61.54    2.68
  -7   1 -10   58.47    2.44
  -7   1 -10   61.77    2.01
  -7   1 -10   63.56    2.31
  -7   1 -10   59.84    1.87
  -8   1 -10    0.80    0.83
  -8   1 -10    1.58    0.87
  -9   1 -10   57.56    2.55
  -9   1 -10   53.70    2.72
 -10   1 -10   14.11    2.01
 -10   1 -10   17.69    2.04
   7   0 -10    7.43    2.31
   6   0 -10   11.70    1.70
  -6   0  10   13.94    2.02
  -6   0  10   11.99    1.40
  -5   0  10   -1.23    0.81
  -5   0  10    1.62    1.02
   4   0 -10   67.13    2.88
  -4   0  10   66.83    2.68
  -4   0  10   69.82    2.22
   3   0 -10   24.47    1.91
   3   0 -10   27.03    2.01
  -3   0  10   25.42    1.91
  -3   0  10   24.82    1.76
  -3   0  10   27.29    1.33
   2   0 -10   65.63    2.53
   2   0 -10   66.19    2.52
  -2   0  10   63.06    2.39
  -2   0  10   63.62    2.44
  -2   0  10   62.79    1.77
   1   0 -10   37.53    1.87
   1   0 -10   38.39    2.27
  -1   0  10   34.74    1.72
  -1   0  10   36.40    1.81
   0   0 -10   16.65    1.09
   0   0 -10   19.29    1.38
   0   0 -10   16.78    1.42
   0   0  10   18.07    1.30
   0   0  10   18.94    1.39
   0   0  10   17.55    1.03
  -1   0 -10   39.60    1.47
  -1   0 -10   40.77    1.70
  -1   0 -10   41.44    1.78
   1   0  10   38.36    1.71
   1   0  10   39.80    1.46
   1   0  10   38.59    1.71
  -2   0 -10   10.59    1.01
  -2   0 -10   11.00    0.68
  -2   0 -10   10.91    1.07
  -2   0 -10   10.67    1.18
   2   0  10   10.49    0.97
  -3   0 -10    2.19    0.60
  -3   0 -10    2.47    0.59
  -3   0 -10    2.30    0.39
  -3   0 -10    1.38    0.51
  -4   0 -10    0.94    0.59
  -4   0 -10    0.33    0.44
  -4   0 -10    1.54    0.59
  -4   0 -10    0.62    0.52
  -5   0 -10   19.93    1.21
  -5   0 -10   19.64    1.45
  -5   0 -10   21.35    1.41
  -5   0 -10   20.14    1.11
  -5   0 -10   19.41    1.34
  -6   0 -10   55.41    2.18
  -6   0 -10   54.32    2.29
  -6   0 -10   54.63    1.67
  -6   0 -10   53.72    2.02
  -6   0 -10   53.25    1.74
  -7   0 -10   12.91    1.40
  -7   0 -10   12.67    1.73
  -8   0 -10    4.18    0.85
  -8   0 -10    3.42    1.62
  -9   0 -10    3.00    1.09
  -9   0 -10    2.73    0.97
 -10   0 -10   27.17    2.33
 -10   0 -10   23.05    2.11
 -11   0 -10   -1.53    1.10
 -11   0 -10    4.60    1.24
   7  -1 -10    2.76    1.49
  -7   1  10    3.37    1.91
   6  -1 -10    8.11    1.39
  -6   1  10   10.38    1.44
  -6   1  10    9.26    1.40
   5  -1 -10    3.85    1.29
  -5   1  10    3.05    0.88
  -5   1  10    0.82    0.88
   4  -1 -10    9.02    1.41
  -4   1  10    9.11    1.17
  -4   1  10   10.06    1.59
   3  -1 -10    4.90    0.98
   3  -1 -10    4.12    1.02
  -3   1  10    4.30    1.02
  -3   1  10    4.15    0.96
   2  -1 -10   55.60    2.32
  -2   1  10   56.46    2.27
  -2   1  10   54.83    3.12
   1  -1 -10    5.03    0.93
   1  -1 -10    5.18    0.92
   1  -1 -10    4.78    0.91
  -1   1  10    4.59    0.97
  -1   1  10    5.39    0.83
  -1   1  10    4.37    0.79
   0  -1 -10    5.33    0.84
   0  -1 -10    5.07    0.81
   0  -1 -10    5.28    0.68
   0   1  10    4.90    0.81
   0   1  10    5.01    0.79
   0   1  10    4.36    0.73
  -1  -1 -10    0.70    0.49
  -1  -1 -10    0.72    0.53
  -1  -1 -10    0.02    0.49
   1   1  10   -0.76    0.37
   1   1  10    0.23    0.52
   1   1  10    0.75    0.55
  -2  -1 -10   37.16    1.66
  -2  -1 -10   36.63    1.45
  -2  -1 -10   37.14    1.53
   2   1  10   37.61    1.54
   2   1  10   38.44    1.53
  -3  -1 -10    9.46    1.13
  -3  -1 -10    9.46    0.63
  -3  -1 -10   10.29    0.94
  -3  -1 -10   10.15    1.05
   3   1  10    9.72    1.08
  -4  -1 -10   77.71    2.40
  -4  -1 -10   79.67    2.43
  -4  -1 -10   77.24    2.10
   4   1  10   76.26    2.43
  -5  -1 -10    1.41    0.81
  -5  -1 -10    0.79    0.57
  -5  -1 -10   -0.02    0.37
  -5  -1 -10    0.56    0.46
  -5  -1 -10    0.07    0.51
  -6  -1 -10  141.73    3.79
  -6  -1 -10  137.74    3.53
  -6  -1 -10  135.86    3.63
  -6  -1 -10  136.56    3.01
  -7  -1 -10   12.65    1.28
  -7  -1 -10   12.79    1.63
  -8  -1 -10   63.08    2.80
  -8  -1 -10   60.58    2.35
  -9  -1 -10    2.41    0.90
 -10  -1 -10   18.09    2.02
 -10  -1 -10   14.57    1.83
 -11  -1 -10    7.04    1.47
 -11  -1 -10    7.90    1.48
   7  -2 -10   10.54    1.91
  -7   2  10    8.44    1.49
   6  -2 -10    4.58    1.32
  -6   2  10    2.84    1.10
   5  -2 -10   19.40    2.22
  -5   2  10   16.01    1.84
   4  -2 -10   33.46    2.97
   4  -2 -10   29.81    2.24
   4  -2 -10   26.18    1.46
  -4   2  10   29.01    1.42
  -4   2  10   29.58    1.40
  -4   2  10   37.01    3.54
  -4   2  10   28.06    1.93
   3  -2 -10   42.19    2.20
   3  -2 -10   41.94    1.61
   3  -2 -10   41.35    2.20
  -3   2  10   43.15    2.17
  -3   2  10   45.41    2.06
  -3   2  10   42.08    1.56
   2  -2 -10   43.74    2.05
   2  -2 -10   42.27    2.07
   2  -2 -10   41.82    1.61
  -2   2  10   43.30    1.55
  -2   2  10   42.98    1.99
   1  -2 -10   10.42    1.07
   1  -2 -10    8.87    1.42
   1  -2 -10    9.06    1.37
  -1   2  10    8.41    1.23
  -1   2  10    8.57    1.20
  -1   2  10    9.10    0.91
   0  -2 -10   73.21    2.12
   0  -2 -10   71.21    2.34
   0  -2 -10   66.00    2.26
   0   2  10   67.46    2.20
   0   2  10   67.48    1.97
   0   2  10   66.96    2.25
  -1  -2 -10    1.98    0.63
  -1  -2 -10    0.98    0.57
  -1  -2 -10    0.49    0.53
   1   2  10    1.32    0.49
   1   2  10    1.20    0.51
   1   2  10    0.88    0.54
  -2  -2 -10    7.96    1.06
  -2  -2 -10    8.45    0.96
  -2  -2 -10    5.93    1.13
   2   2  10    7.75    0.95
   2   2  10    7.79    0.93
   2   2  10    8.28    0.94
  -3  -2 -10   -0.05    0.47
  -3  -2 -10    0.34    0.48
  -3  -2 -10    0.41    0.44
   3   2  10    0.13    0.50
  -4  -2 -10    1.22    0.61
  -4  -2 -10    2.56    0.59
  -4  -2 -10    1.51    0.44
   4   2  10    2.06    0.61
  -5  -2 -10  100.99    2.40
  -5  -2 -10  104.71    2.97
  -5  -2 -10   96.07    2.32
  -5  -2 -10   99.74    2.79
  -5  -2 -10  101.95    2.89
   5   2  10  101.25    2.97
  -6  -2 -10    8.45    1.19
  -6  -2 -10    6.26    1.03
  -6  -2 -10    7.82    1.25
   6   2  10    5.75    0.87
  -7  -2 -10   91.99    2.80
  -7  -2 -10   97.56    3.12
  -8  -2 -10    4.92    0.87
  -8  -2 -10    5.64    1.02
  -9  -2 -10   24.90    1.84
 -11  -2 -10   16.08    2.18
 -11  -2 -10   15.32    2.11
   7  -3 -10    5.22    1.43
  -7   3  10    5.68    1.44
   6  -3 -10    2.08    1.27
   6  -3 -10    2.02    1.26
  -6   3  10   -0.08    1.01
  -6   3  10    3.06    0.92
   5  -3 -10   18.36    1.61
   5  -3 -10   20.98    2.26
  -5   3  10   16.39    1.51
  -5   3  10   15.09    1.80
   4  -3 -10    2.62    0.80
   4  -3 -10    1.48    1.03
   4  -3 -10    1.56    1.10
  -4   3  10    1.93    0.68
  -4   3  10    2.76    1.43
  -4   3  10    0.84    0.81
   3  -3 -10   11.11    1.60
   3  -3 -10   13.49    1.70
  -3   3  10    9.02    1.16
  -3   3  10    9.60    1.09
  -3   3  10    8.90    1.32
   2  -3 -10   22.18    1.66
   2  -3 -10   20.69    1.74
   2  -3 -10   21.63    1.37
  -2   3  10   23.44    1.61
  -2   3  10   19.64    1.65
  -2   3  10   21.13    1.25
   1  -3 -10   75.12    2.49
   1  -3 -10   72.89    2.19
   1  -3 -10   70.29    2.47
  -1   3  10   70.67    2.10
  -1   3  10   71.38    2.43
  -1   3  10   73.75    2.38
   0  -3 -10    9.61    1.12
   0  -3 -10   10.71    1.22
   0  -3 -10    9.54    1.20
   0   3  10    9.18    1.04
   0   3  10    8.81    0.93
   0   3  10    8.70    1.08
  -1  -3 -10   26.57    1.44
  -1  -3 -10   24.76    1.59
  -1  -3 -10   25.40    1.37
   1   3  10   25.39    1.39
   1   3  10   27.88    1.34
   1   3  10   24.73    1.23
  -2  -3 -10   29.14    1.47
  -2  -3 -10   28.52    1.38
  -2  -3 -10   30.49    1.34
   2   3  10   28.59    1.35
   2   3  10   27.21    1.39
   2   3  10   30.18    1.29
  -3  -3 -10   48.97    1.84
  -3  -3 -10   51.35    1.63
  -3  -3 -10   51.82    1.84
   3   3  10   50.09    1.57
   3   3  10   47.86    1.80
  -4  -3 -10   47.26    1.83
  -4  -3 -10   44.73    1.41
  -4  -3 -10   46.12    1.76
   4   3  10   43.91    1.80
  -5  -3 -10   63.01    2.19
  -5  -3 -10   61.18    2.08
  -5  -3 -10   68.67    2.32
   5   3  10   63.29    2.26
  -6  -3 -10   34.43    1.60
  -6  -3 -10   35.92    1.72
  -6  -3 -10   36.22    1.81
   6   3  10   35.77    1.80
  -7  -3 -10   17.75    1.59
  -7  -3 -10   19.77    1.39
   7   3  10   18.96    1.58
  -8  -3 -10   13.73    1.73
  -8  -3 -10   10.17    1.34
  -9  -3 -10   25.55    1.82
 -10  -3 -10    1.19    0.88
 -11  -3 -10    2.35    1.12
   7  -4 -10   13.75    2.44
  -7   4  10    7.50    1.53
  -7   4  10    8.95    1.43
   6  -4 -10    6.63    1.19
   6  -4 -10    5.57    1.22
  -6   4  10    5.63    1.21
  -6   4  10    6.93    1.27
   5  -4 -10   22.60    1.84
   5  -4 -10   18.92    2.18
  -5   4  10   19.63    1.90
  -5   4  10   17.93    1.77
   4  -4 -10    3.33    0.85
   4  -4 -10    3.22    1.13
   4  -4 -10    1.80    1.09
  -4   4  10    3.27    0.81
  -4   4  10    5.59    1.93
  -4   4  10    3.08    0.94
   3  -4 -10    3.46    1.03
   3  -4 -10    4.28    0.84
   3  -4 -10    5.92    1.03
  -3   4  10    6.11    1.09
  -3   4  10    4.16    0.83
  -3   4  10    4.77    0.77
   2  -4 -10   39.53    2.07
   2  -4 -10   38.51    1.80
   2  -4 -10   42.23    1.99
  -2   4  10   41.07    1.97
  -2   4  10   40.24    1.69
  -2   4  10   41.54    1.91
   1  -4 -10    8.89    1.36
   1  -4 -10    9.55    1.20
   1  -4 -10    8.58    1.25
  -1   4  10    8.17    1.05
  -1   4  10    8.15    1.13
  -1   4  10    7.90    1.19
   0  -4 -10   21.64    1.44
   0  -4 -10   23.53    1.41
   0  -4 -10   24.49    1.45
   0   4  10   21.93    1.32
   0   4  10   19.78    1.23
   0   4  10   21.97    1.34
  -1  -4 -10    0.93    0.60
  -1  -4 -10   -0.86    0.53
  -1  -4 -10    0.87    0.59
   1   4  10   -0.02    0.49
   1   4  10    1.06    0.51
   1   4  10    0.21    0.45
  -2  -4 -10   21.41    1.23
  -2  -4 -10   21.39    1.35
  -2  -4 -10   19.09    1.27
   2   4  10   20.92    1.21
   2   4  10   22.14    1.12
  -3  -4 -10    2.96    0.70
  -3  -4 -10    3.57    0.58
  -3  -4 -10    4.07    0.73
   3   4  10    2.73    0.62
   3   4  10    3.41    0.52
  -4  -4 -10   65.56    2.18
  -4  -4 -10   64.24    2.12
  -4  -4 -10   61.33    1.71
   4   4  10   63.04    1.68
   4   4  10   62.45    2.16
  -5  -4 -10   -0.49    0.53
  -5  -4 -10    0.09    0.61
  -5  -4 -10    0.61    0.51
   5   4  10    0.71    0.62
  -6  -4 -10   34.10    1.82
  -6  -4 -10   33.70    1.68
  -6  -4 -10   32.45    1.55
   6   4  10   34.52    1.81
  -7  -4 -10    0.49    0.63
  -7  -4 -10    0.23    0.73
   7   4  10    0.62    0.68
  -8  -4 -10   73.48    2.85
  -8  -4 -10   72.59    2.52
  -9  -4 -10   19.89    1.71
 -10  -4 -10   12.78    1.68
 -11  -4 -10    0.15    1.05
   7  -5 -10    4.76    1.60
  -7   5  10    0.78    1.27
  -7   5  10    2.27    1.34
   6  -5 -10   19.30    2.16
   6  -5 -10   17.97    2.26
  -6   5  10   14.99    1.99
  -6   5  10   17.74    2.14
   5  -5 -10    3.07    1.10
   5  -5 -10    1.01    1.04
  -5   5  10    0.95    0.90
  -5   5  10    1.00    0.91
   4  -5 -10   16.38    1.68
   4  -5 -10   16.82    1.87
   4  -5 -10   13.99    2.11
  -4   5  10   15.01    1.62
  -4   5  10   20.30    1.70
   3  -5 -10    2.44    0.96
   3  -5 -10    2.53    0.84
   3  -5 -10    2.72    1.01
  -3   5  10    2.58    0.82
  -3   5  10    2.99    0.81
  -3   5  10    0.61    0.80
   2  -5 -10   12.53    1.49
   2  -5 -10    9.36    1.55
   2  -5 -10    9.66    1.38
  -2   5  10    9.84    1.26
  -2   5  10    7.68    1.23
  -2   5  10    9.26    1.40
   1  -5 -10  118.31    3.28
   1  -5 -10  114.88    3.35
   1  -5 -10  120.24    3.20
  -1   5  10  119.79    3.15
  -1   5  10  116.71    3.27
  -1   5  10  121.23    3.27
   0  -5 -10   79.25    2.54
   0  -5 -10   82.58    2.56
   0  -5 -10   85.95    2.58
   0   5  10   82.62    2.51
   0   5  10   81.30    2.46
   0   5  10   80.33    2.44
  -1  -5 -10   36.96    1.73
  -1  -5 -10   37.72    1.65
  -1  -5 -10   36.17    1.63
   1   5  10   36.98    1.61
   1   5  10   35.67    1.58
   1   5  10   37.22    1.54
  -2  -5 -10   22.76    1.43
  -2  -5 -10   22.51    1.35
  -2  -5 -10   24.17    1.31
   2   5  10   22.67    1.31
   2   5  10   22.93    1.17
  -3  -5 -10  126.01    2.92
  -3  -5 -10  123.13    3.21
  -3  -5 -10  126.50    3.29
   3   5  10  122.63    3.25
   3   5  10  123.42    2.86
  -4  -5 -10   25.17    1.38
  -4  -5 -10   23.29    1.04
  -4  -5 -10   27.10    1.56
   4   5  10   25.48    1.48
  -5  -5 -10   29.30    1.61
  -5  -5 -10   27.08    1.47
  -5  -5 -10   27.56    1.43
   5   5  10   27.13    1.58
  -6  -5 -10    4.19    0.72
  -6  -5 -10    3.80    0.79
  -6  -5 -10    4.34    0.90
   6   5  10    4.18    1.00
  -7  -5 -10   15.58    1.60
  -7  -5 -10   16.05    1.99
   7   5  10   17.65    1.55
  -8  -5 -10   37.69    2.28
  -8  -5 -10   38.63    1.86
   8   5  10   34.93    2.02
  -9  -5 -10    1.39    0.80
 -10  -5 -10    9.01    1.25
 -11  -5 -10   -0.38    1.00
   6  -6 -10    1.39    1.38
   6  -6 -10    0.34    0.96
  -6   6  10    1.98    1.21
  -6   6  10    1.30    1.12
   5  -6 -10   25.61    2.12
   5  -6 -10   24.00    2.27
  -5   6  10   23.86    2.07
  -5   6  10   21.93    2.04
   4  -6 -10    0.94    0.87
   4  -6 -10   -1.33    0.86
   4  -6 -10    1.06    1.06
  -4   6  10    2.41    0.88
  -4   6  10    1.70    0.87
   3  -6 -10   28.02    1.83
   3  -6 -10   26.88    1.90
   3  -6 -10   27.52    1.94
  -3   6  10   26.23    1.74
  -3   6  10   25.58    1.79
  -3   6  10   26.71    1.99
   2  -6 -10    5.04    0.93
   2  -6 -10    4.45    0.93
  -2   6  10    3.46    0.82
  -2   6  10    4.14    0.85
  -2   6  10    3.79    0.94
   1  -6 -10  151.21    3.85
   1  -6 -10  152.86    3.85
   1  -6 -10  143.54    3.88
  -1   6  10  151.19    3.90
  -1   6  10  151.38    3.81
  -1   6  10  152.39    3.85
   0  -6 -10    0.44    0.65
   0  -6 -10    0.18    0.56
   0  -6 -10    0.54    0.60
   0   6  10    0.09    0.49
   0   6  10   -0.41    0.53
   0   6  10    0.14    0.63
  -1  -6 -10   32.63    1.57
  -1  -6 -10   30.89    1.69
  -1  -6 -10   31.53    1.89
   1   6  10   29.94    1.51
   1   6  10   30.91    1.47
   1   6  10   31.22    1.50
  -2  -6 -10   18.47    1.46
  -2  -6 -10   16.59    1.14
  -2  -6 -10   17.77    1.26
   2   6  10   17.17    1.11
   2   6  10   15.75    1.26
  -3  -6 -10   18.28    1.24
  -3  -6 -10   18.06    1.45
  -3  -6 -10   15.62    1.02
   3   6  10   16.26    1.23
   3   6  10   17.45    1.01
  -4  -6 -10    4.30    0.52
  -4  -6 -10    5.29    0.88
  -4  -6 -10    4.88    0.77
  -4  -6 -10    5.86    0.93
   4   6  10    4.54    0.70
   4   6  10    4.45    0.72
  -5  -6 -10    5.78    0.81
  -5  -6 -10    6.38    0.89
  -5  -6 -10    6.08    0.93
   5   6  10    4.91    0.78
  -6  -6 -10   34.69    1.74
  -6  -6 -10   35.20    1.84
  -6  -6 -10   35.02    1.59
   6   6  10   36.62    1.84
  -7  -6 -10   22.97    1.77
  -7  -6 -10   18.62    2.19
   7   6  10   21.11    1.68
  -8  -6 -10    1.56    0.76
  -8  -6 -10    2.93    0.96
   8   6  10    1.43    0.81
  -9  -6 -10   37.89    2.04
   9   6  10   38.26    2.31
 -10  -6 -10    0.82    0.87
 -11  -6 -10   11.68    1.39
   6  -7 -10    2.35    1.19
  -6   7  10   -0.46    1.18
   5  -7 -10   16.58    1.96
   5  -7 -10   16.83    2.39
  -5   7  10   16.85    2.00
  -5   7  10   12.50    2.05
   4  -7 -10    3.32    0.92
   4  -7 -10    4.38    1.16
   4  -7 -10    5.58    1.35
  -4   7  10    3.57    0.99
  -4   7  10    4.00    0.99
   3  -7 -10   11.30    1.73
   3  -7 -10   13.84    1.86
   3  -7 -10   11.26    1.58
  -3   7  10   11.31    1.51
  -3   7  10   13.05    1.51
  -3   7  10   15.13    2.66
   2  -7 -10   38.04    2.03
   2  -7 -10   36.16    1.95
   2  -7 -10   38.37    2.00
  -2   7  10   40.49    2.11
  -2   7  10   38.35    1.89
  -2   7  10   41.04    2.04
   1  -7 -10    8.67    1.33
   1  -7 -10    8.67    1.13
   1  -7 -10    7.29    0.97
  -1   7  10    6.35    0.92
  -1   7  10    9.21    1.16
  -1   7  10    7.73    1.14
   0  -7 -10  143.83    3.77
   0  -7 -10  156.01    3.82
   0  -7 -10  149.91    3.87
   0   7  10  146.37    3.84
   0   7  10  151.27    3.76
   0   7  10  151.08    3.81
  -1  -7 -10   49.76    1.88
  -1  -7 -10   49.72    2.07
  -1  -7 -10   45.84    1.81
   1   7  10   49.86    1.87
   1   7  10   45.28    1.91
   1   7  10   47.39    1.82
  -2  -7 -10    0.88    0.72
  -2  -7 -10   -0.08    0.46
  -2  -7 -10   -0.51    0.53
   2   7  10   -0.04    0.50
   2   7  10    0.74    0.63
  -3  -7 -10   16.00    1.52
  -3  -7 -10   17.30    1.05
  -3  -7 -10   18.10    1.26
   3   7  10   19.65    1.11
   3   7  10   18.12    1.32
  -4  -7 -10   16.04    1.15
  -4  -7 -10   14.71    0.86
  -4  -7 -10   15.66    1.47
  -4  -7 -10   14.94    1.16
  -4  -7 -10   15.73    0.83
   4   7  10   15.57    0.91
   4   7  10   14.94    1.26
  -5  -7 -10   22.65    1.42
  -5  -7 -10   22.96    1.33
  -5  -7 -10   25.24    1.62
   5   7  10   21.05    1.52
  -6  -7 -10   -0.10    0.60
  -6  -7 -10    0.15    0.60
  -6  -7 -10    0.37    0.79
   6   7  10    0.51    0.68
  -7  -7 -10    8.44    1.71
  -7  -7 -10   11.75    1.54
   7   7  10    9.71    1.41
  -8  -7 -10   26.44    2.16
  -8  -7 -10   27.26    1.68
   8   7  10   26.15    1.97
  -9  -7 -10   33.04    1.91
   9   7  10   29.94    2.09
 -10  -7 -10    2.88    0.95
 -11  -7 -10   10.18    1.40
   6  -8 -10   18.37    2.38
  -6   8  10   20.89    2.29
  -6   8  10   12.96    1.67
   5  -8 -10    1.95    0.95
  -5   8  10    1.13    1.14
  -5   8  10    2.62    1.08
   4  -8 -10   41.94    2.72
   4  -8 -10   38.91    2.66
   4  -8 -10   42.33    2.40
  -4   8  10   46.65    2.35
  -4   8  10   45.83    2.46
   3  -8 -10    4.68    1.14
   3  -8 -10    6.77    1.18
   3  -8 -10    6.14    1.12
  -3   8  10    6.02    0.90
  -3   8  10    5.11    0.95
  -3   8  10    5.64    1.10
   2  -8 -10   31.10    1.99
   2  -8 -10   33.01    1.93
   2  -8 -10   30.10    1.88
  -2   8  10   32.05    2.07
  -2   8  10   30.61    1.86
  -2   8  10   27.84    2.05
   1  -8 -10   15.45    1.70
   1  -8 -10   17.13    1.57
   1  -8 -10   17.92    1.48
  -1   8  10   17.87    1.57
  -1   8  10   17.80    1.38
  -1   8  10   16.28    1.67
   0  -8 -10   59.08    2.19
   0  -8 -10   61.00    2.44
   0  -8 -10   61.82    2.19
   0   8  10   60.55    2.09
   0   8  10   58.48    2.31
   0   8  10   62.20    2.29
  -1  -8 -10   61.45    2.12
  -1  -8 -10   63.75    2.16
  -1  -8 -10   62.23    2.41
   1   8  10   60.39    2.28
   1   8  10   62.67    2.09
   1   8  10   65.12    2.21
  -2  -8 -10    2.28    0.82
  -2  -8 -10    3.03    0.64
  -2  -8 -10    2.37    0.74
   2   8  10    3.01    0.68
   2   8  10    2.26    0.67
  -3  -8 -10   54.14    1.93
  -3  -8 -10   54.34    2.26
  -3  -8 -10   52.51    1.75
   3   8  10   53.53    1.80
   3   8  10   53.76    2.16
  -4  -8 -10    1.74    0.41
  -4  -8 -10    2.05    0.82
  -4  -8 -10    1.55    0.65
  -4  -8 -10    1.71    0.43
  -4  -8 -10    1.45    0.59
   4   8  10    1.09    0.64
   4   8  10    1.23    0.48
  -5  -8 -10   12.35    1.56
  -5  -8 -10   12.28    1.29
  -5  -8 -10   12.02    0.99
  -5  -8 -10   12.54    1.11
   5   8  10   13.32    1.33
  -6  -8 -10   10.91    1.22
  -6  -8 -10   12.47    1.35
  -6  -8 -10   13.94    1.59
   6   8  10   10.59    1.47
  -7  -8 -10    2.26    1.23
  -7  -8 -10    1.73    0.90
   7   8  10    1.14    0.81
  -8  -8 -10   26.42    1.75
  -8  -8 -10   29.08    2.27
   8   8  10   26.95    2.03
  -9  -8 -10   11.03    1.61
   9   8  10   10.90    1.85
 -10  -8 -10   37.63    2.24
  10   8  10   40.53    2.57
 -11  -8 -10   -0.61    1.11
  -6   9  10   17.71    2.32
  -6   9  10   19.87    2.58
   5  -9 -10   14.62    2.03
  -5   9  10    9.85    1.36
  -5   9  10   10.56    1.74
   4  -9 -10    6.15    1.23
   4  -9 -10    5.76    1.40
  -4   9  10    5.74    0.81
  -4   9  10    5.11    1.12
  -4   9  10    5.76    1.23
   3  -9 -10    9.13    1.31
   3  -9 -10    7.93    1.39
   3  -9 -10    9.22    1.56
  -3   9  10   10.12    1.12
  -3   9  10    8.64    1.28
  -3   9  10   10.90    1.53
   2  -9 -10   12.49    1.67
   2  -9 -10   10.99    1.74
   2  -9 -10   11.92    1.51
  -2   9  10   13.56    1.41
  -2   9  10   10.37    1.42
  -2   9  10    9.50    1.23
   1  -9 -10   42.11    2.27
   1  -9 -10   43.22    1.96
   1  -9 -10   41.66    2.01
  -1   9  10   40.72    2.13
  -1   9  10   41.81    1.81
  -1   9  10   40.33    2.26
   0  -9 -10    7.28    1.02
   0  -9 -10    7.06    0.92
   0  -9 -10    6.40    1.12
   0   9  10    7.02    0.86
   0   9  10    7.48    1.09
  -1  -9 -10    0.52    0.78
  -1  -9 -10   -0.09    0.61
  -1  -9 -10    0.15    0.60
   1   9  10    0.00    0.70
   1   9  10   -0.58    0.67
  -2  -9 -10   51.41    1.91
  -2  -9 -10   50.05    1.93
  -2  -9 -10   50.83    2.32
   2   9  10   51.10    2.15
   2   9  10   52.67    1.99
  -3  -9 -10    1.51    0.64
  -3  -9 -10    0.91    0.38
  -3  -9 -10    0.41    0.71
  -3  -9 -10    1.46    0.53
   3   9  10    0.70    0.62
   3   9  10    2.29    1.13
  -4  -9 -10   17.65    1.03
  -4  -9 -10   17.25    1.22
  -4  -9 -10   17.31    1.29
  -4  -9 -10   17.33    1.70
  -4  -9 -10   16.00    1.04
   4   9  10   16.71    1.63
   4   9  10   16.21    1.18
  -5  -9 -10    5.73    1.14
  -5  -9 -10    5.76    1.05
  -5  -9 -10    6.36    0.82
  -5  -9 -10    7.95    0.95
   5   9  10    7.00    1.08
  -6  -9 -10   24.27    1.96
  -6  -9 -10   20.72    1.40
  -6  -9 -10   23.48    1.50
  -6  -9 -10   22.95    1.62
   6   9  10   21.16    1.68
  -7  -9 -10   13.44    2.10
   7   9  10   14.78    1.66
  -8  -9 -10   12.79    2.24
  -8  -9 -10    9.21    1.52
   8   9  10    8.36    1.25
  -9  -9 -10   44.72    2.29
   9   9  10   47.83    2.66
 -10  -9 -10   30.86    2.19
  10   9  10   24.46    2.26
 -11  -9 -10    8.27    1.41
  -5  10  10   11.97    1.44
  -5  10  10   11.89    1.60
  -5  10  10   16.13    1.92
   4 -10 -10    0.73    1.35
   4 -10 -10    1.05    1.44
  -4  10  10   -0.16    0.81
  -4  10  10    1.20    0.96
  -4  10  10   -0.46    1.07
   3 -10 -10   18.61    1.92
   3 -10 -10   17.96    2.25
  -3  10  10   18.76    1.42
  -3  10  10   15.13    1.74
  -3  10  10   19.99    2.05
   2 -10 -10   11.05    1.27
   2 -10 -10   15.75    2.63
   2 -10 -10    9.59    1.63
  -2  10  10   13.92    1.43
  -2  10  10   11.24    1.15
  -2  10  10    9.98    1.71
   1 -10 -10    0.75    0.99
   1 -10 -10    1.53    0.83
   1 -10 -10    2.61    0.87
  -1  10  10    1.98    0.90
  -1  10  10    1.06    0.71
  -1  10  10    1.81    0.52
  -1  10  10   -0.22    0.90
   0 -10 -10    1.47    0.95
   0 -10 -10    3.26    0.77
   0  10  10    1.80    0.78
   0  10  10    2.69    0.95
   0  10  10    1.88    0.65
  -1 -10 -10   24.93    1.54
  -1 -10 -10   23.39    1.93
  -1 -10 -10   25.62    1.59
   1  10  10   23.80    1.78
   1  10  10   24.19    1.79
  -2 -10 -10   10.47    1.21
  -2 -10 -10    9.67    1.66
  -2 -10 -10   12.66    1.28
   2  10  10   11.25    1.39
   2  10  10   11.13    1.50
  -3 -10 -10   46.20    1.75
  -3 -10 -10   44.60    1.83
  -3 -10 -10   42.57    1.49
  -3 -10 -10   45.20    1.79
  -3 -10 -10   43.60    2.32
   3  10  10   41.81    2.05
   3  10  10   45.23    1.96
  -4 -10 -10    0.60    0.55
  -4 -10 -10    0.93    0.58
  -4 -10 -10   -0.16    0.86
  -4 -10 -10   -0.49    0.64
  -4 -10 -10   -0.25    0.47
   4  10  10    0.15    0.65
   4  10  10    0.54    0.69
  -5 -10 -10   12.43    1.82
  -5 -10 -10   10.25    1.17
  -5 -10 -10    9.94    1.38
  -5 -10 -10   11.68    1.31
  -5 -10 -10   11.55    0.98
   5  10  10   10.63    1.40
   5  10  10   11.66    1.16
  -6 -10 -10   26.30    1.61
  -6 -10 -10   26.37    2.17
  -6 -10 -10   28.04    1.79
  -6 -10 -10   25.93    1.56
   6  10  10   27.66    1.87
  -7 -10 -10   24.11    1.72
  -7 -10 -10   25.05    1.91
  -7 -10 -10   22.82    2.04
  -7 -10 -10   23.25    2.30
   7  10  10   25.44    1.92
  -8 -10 -10   22.19    1.98
  -8 -10 -10   25.63    1.78
   8  10  10   26.87    2.05
  -9 -10 -10   24.32    2.00
   9  10  10   26.90    2.33
 -10 -10 -10    4.51    1.15
  10  10  10    5.04    1.33
  -5  11  10    9.95    1.45
  -5  11  10    9.26    1.33
   4 -11 -10    0.96    1.70
   4 -11 -10    2.70    1.17
  -4  11  10    1.97    1.26
  -4  11  10    3.17    1.00
  -4  11  10    2.99    1.14
   3 -11 -10   15.01    2.30
   3 -11 -10   14.49    1.90
  -3  11  10   17.60    2.09
  -3  11  10   16.39    1.72
   2 -11 -10    4.19    1.01
   2 -11 -10    5.89    1.14
  -2  11  10    3.94    1.02
  -2  11  10    4.44    0.77
  -2  11  10    5.12    0.93
   1 -11 -10    3.10    0.90
   1 -11 -10    4.69    1.01
  -1  11  10    4.42    0.72
  -1  11  10    4.19    0.84
  -1  11  10    6.29    1.27
  -1  11  10    4.53    1.05
   0 -11 -10    8.42    1.49
   0 -11 -10    8.56    1.41
   0 -11 -10    9.83    1.49
   0  11  10    8.56    1.22
   0  11  10    8.29    1.27
   0  11  10    7.93    1.18
  -1 -11 -10   15.54    1.54
  -1 -11 -10   14.16    1.47
  -1 -11 -10   12.10    1.91
   1  11  10   15.40    1.66
   1  11  10   12.03    1.82
  -2 -11 -10   14.09    1.42
  -2 -11 -10   14.50    1.43
  -2 -11 -10   13.46    1.80
   2  11  10   13.47    1.66
   2  11  10   14.49    1.52
  -3 -11 -10   18.73    1.51
  -3 -11 -10   22.32    1.46
  -3 -11 -10   18.48    2.06
  -3 -11 -10   18.93    1.92
  -3 -11 -10   20.60    1.31
   3  11  10   21.63    1.69
   3  11  10   18.93    1.63
  -4 -11 -10   11.24    1.18
  -4 -11 -10   11.36    1.32
  -4 -11 -10   10.07    1.50
  -4 -11 -10   11.41    1.21
  -4 -11 -10   11.96    1.22
   4  11  10   10.51    1.44
   4  11  10   10.81    1.58
  -5 -11 -10    2.15    0.66
  -5 -11 -10    1.84    0.79
  -5 -11 -10    0.84    1.11
  -5 -11 -10    1.56    0.67
  -5 -11 -10    2.48    0.73
   5  11  10    0.62    0.81
   5  11  10    0.83    0.71
  -6 -11 -10   14.49    2.16
  -6 -11 -10   15.62    1.66
  -6 -11 -10   16.80    1.54
  -6 -11 -10   15.63    1.48
   6  11  10   17.20    1.72
  -7 -11 -10    3.66    0.97
  -7 -11 -10    2.94    1.05
  -7 -11 -10    4.48    1.10
   7  11  10    4.82    1.15
  -8 -11 -10   16.57    1.79
  -8 -11 -10   19.23    2.38
   8  11  10   19.83    2.11
  -9 -11 -10    4.15    1.13
   9  11  10    3.60    1.33
 -10 -11 -10   19.03    2.21
  10  11  10   14.95    2.38
   4 -12 -10    7.33    1.63
  -4  12  10    8.66    1.56
  -4  12  10   12.47    2.04
  -4  12  10   10.53    1.32
   3 -12 -10    0.86    0.99
   3 -12 -10   -1.71    1.26
  -3  12  10   -0.97    0.86
  -3  12  10   -0.07    1.18
  -3  12  10    1.04    0.92
   2 -12 -10   22.50    2.05
   2 -12 -10   22.95    2.14
  -2  12  10   19.34    1.65
  -2  12  10   22.41    2.14
  -2  12  10   22.46    1.78
   1 -12 -10   -0.95    0.89
   1 -12 -10   -0.37    0.95
  -1  12  10   -0.61    0.64
  -1  12  10    0.01    0.95
  -1  12  10    0.02    0.70
   0 -12 -10   15.93    1.64
   0 -12 -10   15.45    1.83
   0  12  10   16.91    1.87
   0  12  10   14.90    1.35
   0  12  10   14.11    2.25
  -1 -12 -10   22.17    1.58
  -1 -12 -10   17.74    1.70
   1  12  10   18.64    1.89
   1  12  10   21.82    2.14
  -2 -12 -10   62.33    2.06
  -2 -12 -10   63.30    2.21
  -2 -12 -10   58.52    4.35
  -2 -12 -10   61.55    2.49
   2  12  10   55.88    2.57
   2  12  10   64.09    2.68
  -3 -12 -10    2.88    1.38
  -3 -12 -10    5.07    0.80
  -3 -12 -10    4.29    0.94
  -3 -12 -10    6.74    0.96
   3  12  10    5.25    1.04
   3  12  10    3.82    0.96
  -4 -12 -10   35.23    1.72
  -4 -12 -10   34.18    1.70
  -4 -12 -10   33.23    1.76
  -4 -12 -10   36.23    1.80
  -4 -12 -10   30.18    2.54
   4  12  10   37.02    2.15
   4  12  10   34.13    2.01
  -5 -12 -10    8.99    1.37
  -5 -12 -10   10.10    1.33
  -5 -12 -10   11.29    1.40
  -5 -12 -10   12.35    1.55
   5  12  10   12.13    1.67
   5  12  10   10.82    1.14
  -6 -12 -10   12.76    1.73
  -6 -12 -10    8.88    1.10
  -6 -12 -10   12.37    1.66
   6  12  10   11.78    1.68
  -7 -12 -10    6.83    1.26
  -7 -12 -10    7.70    1.13
  -7 -12 -10    4.54    1.20
   7  12  10    4.54    1.21
  -8 -12 -10    6.88    1.16
  -8 -12 -10    5.27    1.46
   8  12  10    7.99    1.39
  -9 -12 -10   -0.77    1.11
   9  12  10    1.40    1.27
   3 -13 -10    3.14    1.21
  -3  13  10    4.13    1.38
  -3  13  10    3.74    1.13
  -3  13  10    1.82    1.02
   2 -13 -10    1.33    1.12
   2 -13 -10    1.27    2.31
  -2  13  10    3.18    0.94
  -2  13  10    3.77    1.14
  -2  13  10    0.37    0.97
   1 -13 -10    9.53    1.23
   1 -13 -10    7.05    1.24
  -1  13  10    7.19    1.07
  -1  13  10    6.60    1.28
   0 -13 -10   -0.75    0.92
   0 -13 -10    0.50    0.88
   0  13  10    0.42    0.93
   0  13  10    0.36    0.75
  -1 -13 -10   34.03    2.20
  -1 -13 -10   32.31    1.84
   1  13  10   31.67    2.22
   1  13  10   27.56    2.54
  -2 -13 -10    0.37    0.82
  -2 -13 -10    0.90    0.63
  -2 -13 -10    0.24    0.86
   2  13  10   -0.91    1.11
   2  13  10   -0.02    1.01
  -3 -13 -10   41.90    1.91
  -3 -13 -10   34.66    3.23
  -3 -13 -10   36.55    1.65
   3  13  10   38.65    2.38
   3  13  10   37.84    2.31
  -4 -13 -10   11.04    1.35
  -4 -13 -10   11.11    1.63
  -4 -13 -10   11.16    1.18
  -4 -13 -10   10.96    1.54
   4  13  10   12.22    1.75
   4  13  10   13.34    1.89
  -5 -13 -10   15.72    1.56
  -5 -13 -10   13.21    1.46
  -5 -13 -10   15.53    1.67
  -5 -13 -10   11.64    1.74
   5  13  10   13.29    1.89
   5  13  10   16.38    1.80
  -6 -13 -10    5.77    0.97
  -6 -13 -10    8.01    1.26
  -6 -13 -10    6.03    1.16
   6  13  10    6.97    1.13
   6  13  10    4.33    1.08
  -7 -13 -10    9.62    1.46
  -7 -13 -10    8.75    1.41
   7  13  10    8.19    1.41
  -8 -13 -10   -0.22    1.47
  -8 -13 -10    0.55    1.11
   8  13  10    0.66    1.22
   9  13  10    9.09    1.54
   2 -14 -10    3.52    1.38
  -2  14  10    3.69    1.34
  -2  14  10    4.71    1.20
   1 -14 -10   23.55    2.38
  -1  14  10   22.36    2.08
  -1  14  10   28.46    2.46
   0 -14 -10    1.56    1.04
   0  14  10    2.14    1.09
   0  14  10    2.18    1.15
  -1 -14 -10    9.96    1.28
  -1 -14 -10    5.19    1.66
  -1 -14 -10    8.54    1.39
   1  14  10    7.55    1.24
  -2 -14 -10    5.69    1.26
  -2 -14 -10    7.52    1.16
  -2 -14 -10    6.03    0.81
   2  14  10    7.57    1.67
   2  14  10    5.98    1.24
  -3 -14 -10   19.11    1.38
  -3 -14 -10   17.98    1.98
   3  14  10   17.27    2.02
   3  14  10   22.58    2.35
  -4 -14 -10   -0.54    0.92
  -4 -14 -10   -0.44    0.94
  -4 -14 -10   -1.19    0.69
  -4 -14 -10    0.13    1.02
   4  14  10   -0.70    1.15
   4  14  10    0.08    0.99
  -5 -14 -10    7.00    1.20
  -5 -14 -10    8.94    1.43
  -5 -14 -10    6.26    0.90
  -5 -14 -10    8.95    1.19
   5  14  10    7.82    1.33
   5  14  10    8.25    1.39
  -6 -14 -10    1.68    1.16
  -6 -14 -10    0.12    0.89
   6  14  10    0.57    1.03
   6  14  10    0.07    1.20
   7  14  10    3.95    1.23
  -8 -14 -10    3.30    1.35
   8  14  10    5.52    1.49
   1 -15 -10    1.83    1.35
   0 -15 -10    9.35    1.48
   0  15  10   10.25    1.60
  -1 -15 -10    1.25    1.22
   1  15  10    1.83    1.28
  -2 -15 -10   16.34    2.20
   2  15  10   21.04    2.16
  -3 -15 -10    2.52    1.15
   3  15  10    1.79    1.25
  -4 -15 -10   44.70    2.66
  -4 -15 -10   42.78    1.78
  -4 -15 -10   43.40    3.04
   4  15  10   46.44    2.80
   4  15  10   44.10    3.09
  -5 -15 -10   28.82    1.77
   5  15  10   29.55    2.56
   5  15  10   33.48    2.79
  -6 -15 -10    3.57    1.09
   6  15  10    6.47    1.29
   7  15  10    4.21    1.44
   2  16  10   14.03    2.40
  -3 -16 -10    3.06    1.37
   3  16  10    1.91    1.33
  -4 -16 -10   24.18    2.61
   4  16  10   29.79    2.59
  -2   8 -11    2.76    1.13
  -2   8 -11   -1.27    1.07
  -2   8 -11    0.72    1.22
   1   7 -11   21.02    2.47
  -1  -7  11   19.60    2.38
   0   7 -11    9.24    1.66
   0   7 -11    7.61    1.40
  -1   7 -11    5.30    1.21
  -1   7 -11    6.52    1.42
  -2   7 -11   22.18    2.42
  -2   7 -11   18.37    1.67
  -2   7 -11   17.14    2.16
  -2   7 -11   16.30    1.98
  -3   7 -11    0.61    1.42
  -3   7 -11    1.97    1.05
  -3   7 -11   -0.43    1.04
  -3   7 -11   -0.33    0.85
  -4   7 -11   19.68    1.82
  -4   7 -11   14.92    2.08
  -4   7 -11   16.66    2.09
  -4   7 -11   17.57    1.98
  -5   7 -11    5.35    1.22
  -5   7 -11    4.32    1.31
  -5   7 -11    5.50    1.20
  -5   7 -11    4.71    1.23
  -3  -6  11   -0.05    1.25
   2   6 -11   37.31    2.72
  -2  -6  11   40.97    2.56
   1   6 -11   -0.31    0.93
  -1  -6  11    2.73    1.15
   0   6 -11   28.39    2.27
   0   6 -11   27.49    2.52
  -1   6 -11    2.76    0.95
  -1   6 -11    2.68    1.04
  -1   6 -11    2.60    1.25
  -2   6 -11   16.44    2.22
  -2   6 -11   17.70    1.82
  -2   6 -11   16.54    2.07
  -2   6 -11   17.45    1.60
  -3   6 -11   -0.31    0.88
  -3   6 -11    0.02    1.16
  -3   6 -11    2.24    0.88
  -3   6 -11    0.09    0.91
  -3   6 -11   -0.22    0.81
  -4   6 -11   16.10    1.66
  -4   6 -11   17.01    1.83
  -4   6 -11   16.41    2.29
  -4   6 -11   18.10    1.99
  -4   6 -11   17.99    1.93
  -4   6 -11   20.72    2.25
  -5   6 -11    0.52    1.00
  -5   6 -11   -1.18    0.85
  -5   6 -11   -1.10    0.95
  -5   6 -11    0.64    1.29
  -5   6 -11    0.86    1.16
  -6   6 -11   15.73    2.28
  -6   6 -11   16.36    2.06
  -6   6 -11   17.87    2.04
  -6   6 -11   14.36    1.97
  -7   6 -11    6.99    1.37
  -7   6 -11    7.50    1.34
   3   5 -11   32.06    2.53
  -3  -5  11   30.66    2.42
  -3  -5  11   29.62    2.80
   2   5 -11   32.97    2.42
  -2  -5  11   27.81    2.19
   1   5 -11   13.73    2.00
   1   5 -11   11.28    1.79
  -1  -5  11   13.71    1.88
   0   5 -11    6.98    1.18
   0   5 -11   13.08    2.12
   0  -5  11    6.77    1.11
  -1   5 -11   12.15    1.47
  -1   5 -11   16.95    1.88
  -1   5 -11   14.73    1.62
  -2   5 -11   -0.07    0.89
  -2   5 -11    1.75    0.77
  -2   5 -11    2.49    1.06
  -2   5 -11    2.08    0.80
  -3   5 -11    8.07    1.04
  -3   5 -11   10.15    1.68
  -3   5 -11    7.31    1.06
  -3   5 -11    9.20    1.48
  -3   5 -11   11.91    1.86
  -3   5 -11    6.78    1.19
  -4   5 -11    5.19    1.75
  -4   5 -11    6.21    0.99
  -4   5 -11    5.65    1.53
  -4   5 -11    8.49    1.30
  -4   5 -11    9.51    1.70
  -4   5 -11    5.31    0.96
  -4   5 -11    6.65    1.17
  -5   5 -11    7.72    1.15
  -5   5 -11   11.07    1.44
  -5   5 -11   13.17    1.58
  -5   5 -11   10.95    1.84
  -5   5 -11   10.11    1.68
  -5   5 -11    8.93    1.44
  -5   5 -11   10.96    1.68
  -6   5 -11   23.84    2.49
  -6   5 -11   15.59    1.89
  -6   5 -11   19.24    2.38
  -6   5 -11   22.94    1.93
  -6   5 -11   18.42    2.02
  -6   5 -11   15.44    1.86
  -7   5 -11    1.06    1.00
  -7   5 -11    1.52    1.56
  -7   5 -11    3.55    1.16
  -7   5 -11    1.97    1.18
  -7   5 -11    4.49    1.07
  -8   5 -11   18.37    2.21
  -8   5 -11   15.22    2.18
  -8   5 -11   17.48    2.13
  -8   5 -11   21.44    2.64
   4   4 -11    1.66    1.27
  -4  -4  11    3.95    1.32
   3   4 -11   47.99    2.76
  -3  -4  11   47.30    2.61
  -3  -4  11   46.94    2.53
   2   4 -11    4.45    1.15
  -2  -4  11    2.45    0.95
   1   4 -11   20.07    2.24
   1   4 -11   20.26    2.00
  -1  -4  11   22.48    1.86
   0   4 -11    4.52    0.93
   0   4 -11    3.33    1.14
   0  -4  11    5.26    1.03
  -1   4 -11    3.91    1.08
  -1   4 -11    5.56    0.83
  -1   4 -11    3.11    1.10
  -1   4 -11    4.15    1.35
  -2   4 -11    0.86    0.66
  -2   4 -11    2.52    1.03
  -2   4 -11    1.18    1.06
  -2   4 -11    0.28    0.78
  -2   4 -11    0.54    0.59
  -2   4 -11    1.40    0.73
  -3   4 -11   14.91    1.75
  -3   4 -11   13.22    1.41
  -3   4 -11   14.89    2.07
  -3   4 -11   11.38    1.69
  -3   4 -11   14.64    1.51
  -3   4 -11    9.67    1.33
  -4   4 -11    0.39    0.68
  -4   4 -11    0.68    0.79
  -4   4 -11   -1.29    0.69
  -4   4 -11    0.17    1.04
  -4   4 -11   -0.65    0.92
  -4   4 -11    0.50    0.79
  -4   4 -11    1.00    0.90
  -5   4 -11   15.92    2.12
  -5   4 -11   18.62    1.73
  -5   4 -11   19.83    1.77
  -5   4 -11   19.47    1.60
  -5   4 -11   15.36    2.04
  -5   4 -11   21.48    1.92
  -5   4 -11   22.43    1.67
  -6   4 -11    3.51    0.88
  -6   4 -11    4.48    1.07
  -6   4 -11    5.54    1.00
  -6   4 -11    3.68    1.31
  -6   4 -11    4.97    1.23
  -6   4 -11    2.97    0.93
  -7   4 -11   39.45    2.52
  -7   4 -11   37.79    2.16
  -7   4 -11   40.07    2.47
  -7   4 -11   33.19    2.16
  -7   4 -11   43.27    2.24
  -8   4 -11    1.97    1.18
  -8   4 -11    2.53    1.07
  -8   4 -11    2.22    1.02
   5   3 -11    2.20    1.56
   4   3 -11   23.34    2.37
  -4  -3  11   23.52    2.22
  -4  -3  11   21.58    2.30
   3   3 -11    8.37    1.30
  -3  -3  11   11.60    1.77
  -3  -3  11    9.72    1.32
   2   3 -11   27.07    2.15
  -2  -3  11   27.14    1.81
  -2  -3  11   22.32    1.89
   1   3 -11   37.98    2.24
   1   3 -11   38.35    2.39
  -1  -3  11   35.85    2.03
   0   3 -11    0.02    0.74
   0   3 -11   -0.18    0.91
   0  -3  11    2.09    0.89
  -1   3 -11   11.60    1.67
  -1   3 -11   12.20    1.58
   1  -3  11   12.88    1.49
  -2   3 -11    1.71    0.83
  -2   3 -11    0.49    0.59
  -2   3 -11    0.17    0.67
  -2   3 -11    0.28    0.66
  -2   3 -11    0.87    0.59
  -2   3 -11    1.25    0.88
  -3   3 -11    2.09    1.43
  -3   3 -11   -0.26    0.68
  -3   3 -11    2.49    1.01
  -3   3 -11   -0.58    0.90
  -3   3 -11    0.82    0.69
  -3   3 -11    0.09    0.55
  -4   3 -11   14.19    1.71
  -4   3 -11   13.26    1.48
  -4   3 -11   14.55    1.52
  -4   3 -11   13.64    1.66
  -4   3 -11   14.17    1.31
  -4   3 -11   13.76    1.58
  -4   3 -11   13.43    1.41
  -5   3 -11   13.94    1.78
  -5   3 -11   13.60    1.57
  -5   3 -11   15.19    1.48
  -5   3 -11   14.52    1.77
  -5   3 -11   13.58    1.68
  -5   3 -11   13.57    1.38
  -5   3 -11   12.55    1.34
  -6   3 -11   54.11    2.31
  -6   3 -11   52.83    2.48
  -6   3 -11   51.81    2.19
  -6   3 -11   51.43    2.48
  -6   3 -11   49.46    2.18
  -6   3 -11   49.27    2.33
  -6   3 -11   51.74    2.75
  -7   3 -11   26.56    1.80
  -7   3 -11   28.46    2.02
  -7   3 -11   22.90    1.91
  -7   3 -11   26.95    2.15
  -8   3 -11   12.02    1.76
  -8   3 -11   10.17    1.43
  -8   3 -11   11.05    1.79
  -9   3 -11   25.42    2.21
  -9   3 -11   23.69    2.42
  -9   3 -11   22.69    1.88
   5   2 -11    1.23    1.33
  -5  -2  11   -0.36    1.08
   4   2 -11   19.73    2.20
  -4  -2  11   22.00    2.06
  -4  -2  11   23.91    2.05
   3   2 -11   -0.02    0.92
  -3  -2  11    0.99    1.02
  -3  -2  11    1.57    0.84
   2   2 -11   24.54    2.08
   2   2 -11   25.87    2.33
  -2  -2  11   24.89    1.90
  -2  -2  11   27.02    1.64
   1   2 -11   12.39    1.58
   1   2 -11   10.54    1.32
  -1  -2  11   11.61    1.50
   0   2 -11   30.11    1.99
   0   2 -11   30.15    1.89
   0  -2  11   29.46    1.82
  -1   2 -11   17.57    1.19
  -1   2 -11   17.84    1.59
  -1   2 -11   14.80    1.70
  -2   2 -11   12.83    1.48
  -2   2 -11   12.20    1.03
  -2   2 -11   11.62    1.40
  -2   2 -11   12.04    1.21
  -3   2 -11   46.03    1.91
  -3   2 -11   48.23    2.03
  -3   2 -11   45.04    2.07
  -3   2 -11   46.57    2.17
  -3   2 -11   47.87    1.69
  -4   2 -11   47.86    2.02
  -4   2 -11   41.63    1.68
  -4   2 -11   43.23    1.90
  -4   2 -11   42.28    2.09
  -4   2 -11   42.17    2.04
  -5   2 -11   16.78    1.30
  -5   2 -11   18.27    1.68
  -5   2 -11   14.51    1.43
  -5   2 -11   17.87    1.57
  -5   2 -11   18.25    1.76
  -5   2 -11   17.55    1.41
  -6   2 -11   49.35    2.49
  -6   2 -11   50.21    2.13
  -6   2 -11   52.66    2.01
  -6   2 -11   47.98    2.34
  -6   2 -11   50.93    2.35
  -6   2 -11   53.58    2.16
  -7   2 -11   26.03    2.24
  -7   2 -11   30.51    1.63
  -7   2 -11   27.89    2.13
  -7   2 -11   28.64    1.80
  -7   2 -11   29.86    1.92
  -8   2 -11   32.49    1.89
  -8   2 -11   31.07    1.67
  -8   2 -11   32.82    2.09
  -8   2 -11   28.25    2.77
  -9   2 -11    1.82    0.80
  -9   2 -11    3.17    1.05
  -9   2 -11    2.97    1.08
 -10   2 -11   17.23    2.64
 -10   2 -11   19.17    2.36
   5   1 -11    2.67    1.18
  -5  -1  11    2.36    1.11
   4   1 -11    4.72    1.20
  -4  -1  11    5.63    1.16
  -4  -1  11    5.04    0.99
   3   1 -11   -0.85    0.90
  -3  -1  11    0.49    0.85
  -3  -1  11   -0.09    0.74
   2   1 -11    2.71    0.92
   2   1 -11    5.32    1.23
  -2  -1  11    2.17    1.81
  -2  -1  11    4.09    1.47
  -2  -1  11    3.14    0.66
   1   1 -11   24.17    1.88
   1   1 -11   20.49    1.81
  -1  -1  11   22.63    1.68
  -1  -1  11   19.15    1.90
   0   1 -11   71.99    2.65
   0   1 -11   73.45    2.63
   0  -1  11   72.12    2.61
  -1   1 -11    9.89    1.05
  -1   1 -11   10.74    1.36
  -1   1 -11    8.67    1.14
   1  -1  11    9.86    1.33
  -2   1 -11    1.35    0.65
  -2   1 -11    1.68    0.65
  -2   1 -11    2.07    0.45
  -2   1 -11    0.81    0.76
  -3   1 -11   76.02    2.43
  -3   1 -11   74.72    2.58
  -3   1 -11   76.54    2.08
  -3   1 -11   76.15    2.43
  -4   1 -11    8.19    1.10
  -4   1 -11    8.73    1.42
  -4   1 -11    9.88    1.30
  -4   1 -11    8.48    1.32
  -4   1 -11    9.70    0.97
  -5   1 -11   36.21    1.88
  -5   1 -11   37.84    1.96
  -5   1 -11   35.40    1.76
  -5   1 -11   35.10    1.56
  -5   1 -11   40.12    1.96
  -5   1 -11   35.70    1.62
  -6   1 -11   20.13    1.45
  -6   1 -11   21.17    1.47
  -6   1 -11   20.05    1.35
  -6   1 -11   18.97    1.86
  -6   1 -11   18.90    1.79
  -7   1 -11   43.43    2.51
  -7   1 -11   41.79    2.38
  -7   1 -11   41.47    1.66
  -7   1 -11   43.24    1.83
  -7   1 -11   42.99    2.06
  -8   1 -11   28.07    2.66
  -8   1 -11   28.46    2.04
  -8   1 -11   26.50    1.92
  -9   1 -11    8.28    1.21
  -9   1 -11    5.58    1.22
 -10   1 -11   24.71    2.14
 -10   1 -11   20.62    2.32
   6   0 -11    1.29    1.34
  -6   0  11    1.69    1.28
   5   0 -11    1.61    1.33
  -5   0  11    1.54    1.02
   4   0 -11   -0.99    0.92
  -4   0  11   -0.53    0.88
  -4   0  11    0.19    0.77
   3   0 -11   27.23    2.14
  -3   0  11   27.81    1.43
  -3   0  11   27.17    1.93
   2   0 -11    3.30    1.12
   2   0 -11    3.74    1.06
  -2   0  11    5.03    0.59
  -2   0  11    4.24    1.04
  -2   0  11    4.25    0.88
   1   0 -11   81.15    2.87
   1   0 -11   81.87    2.86
  -1   0  11   81.00    2.76
  -1   0  11   86.40    2.89
   0   0 -11    0.87    0.75
   0   0 -11    0.91    0.59
   0   0 -11   -0.65    0.76
   0   0  11    1.61    0.73
   0   0  11    0.48    0.50
  -1   0 -11  130.27    3.57
  -1   0 -11  132.70    3.52
  -1   0 -11  131.36    3.16
   1   0  11  125.80    3.52
   1   0  11  130.18    3.16
  -2   0 -11   22.45    1.63
  -2   0 -11   22.27    1.32
  -2   0 -11   22.66    1.42
   2   0  11   21.23    1.30
  -3   0 -11   11.13    0.81
  -3   0 -11    9.62    1.18
  -3   0 -11    9.58    1.12
  -3   0 -11    9.62    1.31
  -4   0 -11    8.19    0.85
  -4   0 -11    8.53    1.25
  -4   0 -11    8.83    1.05
  -4   0 -11   10.04    1.23
  -4   0 -11    8.20    1.06
  -5   0 -11   45.89    1.70
  -5   0 -11   49.03    2.07
  -5   0 -11   48.32    2.08
  -6   0 -11   17.48    1.25
  -6   0 -11   19.15    1.68
  -6   0 -11   21.44    1.48
  -6   0 -11   19.35    1.74
  -6   0 -11   19.56    1.18
  -7   0 -11   28.92    2.01
  -7   0 -11   29.91    1.40
  -7   0 -11   31.54    2.20
  -7   0 -11   28.50    1.76
  -8   0 -11   -0.32    0.77
  -9   0 -11   38.96    2.40
  -9   0 -11   42.49    2.96
 -10   0 -11    1.14    1.20
 -10   0 -11   -1.47    0.94
   6  -1 -11   -0.70    1.41
  -6   1  11   -1.69    1.12
   5  -1 -11    3.36    1.32
  -5   1  11    2.77    0.93
  -5   1  11    3.48    1.05
   4  -1 -11    3.08    1.19
  -4   1  11    5.80    1.17
  -4   1  11    4.64    0.79
   3  -1 -11    5.99    1.06
  -3   1  11    5.89    0.99
   2  -1 -11   37.59    2.20
   2  -1 -11   39.30    2.18
  -2   1  11   36.53    2.14
  -2   1  11   36.68    2.02
   1  -1 -11   -0.45    0.79
   1  -1 -11   -0.04    0.50
   1  -1 -11    0.15    0.72
  -1   1  11   -0.67    0.67
  -1   1  11    0.20    0.51
  -1   1  11    0.92    0.70
   0  -1 -11  120.10    2.99
   0  -1 -11  118.02    3.35
   0  -1 -11  115.56    3.39
   0   1  11  116.97    3.73
   0   1  11  117.87    2.91
   0   1  11  119.91    3.32
  -1  -1 -11   39.20    1.81
  -1  -1 -11   37.90    1.62
  -1  -1 -11   39.14    1.86
   1   1  11   38.47    1.78
   1   1  11   39.69    1.58
  -2  -1 -11   43.28    1.99
  -2  -1 -11   44.45    1.81
  -2  -1 -11   45.00    1.77
   2   1  11   45.34    1.74
  -3  -1 -11   20.17    1.53
  -3  -1 -11   20.88    0.87
  -3  -1 -11   19.84    1.37
  -3  -1 -11   22.31    1.28
   3   1  11   21.49    1.40
  -4  -1 -11   59.26    1.68
  -4  -1 -11   61.62    1.92
  -4  -1 -11   61.96    2.25
  -4  -1 -11   63.97    2.26
   4   1  11   58.86    2.19
  -5  -1 -11   19.63    1.37
  -5  -1 -11   17.91    1.21
  -5  -1 -11   18.12    1.51
  -5  -1 -11   18.02    1.10
  -5  -1 -11   18.19    1.47
  -6  -1 -11   50.54    1.96
  -6  -1 -11   50.45    2.19
  -6  -1 -11   48.77    2.16
  -6  -1 -11   44.36    1.59
  -6  -1 -11   46.73    1.53
  -7  -1 -11    1.35    0.91
  -7  -1 -11    0.69    0.84
  -7  -1 -11    0.72    0.68
  -8  -1 -11   21.36    1.75
  -9  -1 -11    5.47    1.10
 -10  -1 -11    3.58    1.08
 -10  -1 -11    3.93    1.14
 -11  -1 -11   -1.24    1.23
 -11  -1 -11   -0.17    1.58
   6  -2 -11    4.41    1.40
  -6   2  11    5.29    1.37
   5  -2 -11    2.67    1.18
  -5   2  11    3.49    0.95
  -5   2  11    3.56    1.07
   4  -2 -11   44.77    2.67
  -4   2  11   46.79    2.40
   3  -2 -11   11.45    1.44
   3  -2 -11   11.80    1.24
  -3   2  11   18.39    2.66
  -3   2  11   15.00    1.19
  -3   2  11   14.90    1.63
   2  -2 -11   52.01    2.41
   2  -2 -11   46.25    2.29
   2  -2 -11   49.62    1.81
  -2   2  11   52.59    2.23
  -2   2  11   50.08    2.34
  -2   2  11   50.55    1.73
   1  -2 -11   51.31    2.58
   1  -2 -11   52.20    1.83
   1  -2 -11   52.96    2.30
  -1   2  11   53.17    2.19
  -1   2  11   52.93    2.17
   0  -2 -11  142.51    3.71
   0  -2 -11  137.24    3.73
   0  -2 -11  136.69    3.37
   0   2  11  133.28    3.67
   0   2  11  139.16    3.32
   0   2  11  141.03    3.74
  -1  -2 -11   10.61    1.49
  -1  -2 -11   12.19    1.28
  -1  -2 -11   12.66    1.31
   1   2  11   11.31    1.07
   1   2  11   12.63    1.28
   1   2  11   12.46    1.22
  -2  -2 -11   34.94    1.58
  -2  -2 -11   33.10    1.68
  -2  -2 -11   35.26    1.58
   2   2  11   30.81    1.51
   2   2  11   33.67    1.56
  -3  -2 -11   11.45    1.19
  -3  -2 -11   10.77    1.06
  -3  -2 -11   10.18    1.21
   3   2  11   11.49    1.20
  -4  -2 -11    1.47    0.53
  -4  -2 -11    1.08    0.70
  -4  -2 -11    1.24    0.63
   4   2  11    1.95    0.67
  -5  -2 -11    6.06    0.96
  -5  -2 -11    7.13    0.87
  -5  -2 -11    6.06    0.90
  -5  -2 -11    7.17    1.11
   5   2  11    7.20    1.24
  -6  -2 -11    0.77    0.76
  -6  -2 -11    0.89    0.61
  -6  -2 -11    1.01    0.74
  -7  -2 -11    2.60    0.74
  -7  -2 -11    3.38    0.80
  -7  -2 -11    4.15    0.97
  -8  -2 -11    4.79    0.96
  -9  -2 -11    1.42    0.86
 -10  -2 -11   19.18    1.87
 -11  -2 -11    1.96    1.15
 -11  -2 -11    1.95    1.23
   6  -3 -11    5.92    1.56
  -6   3  11    3.38    1.32
   5  -3 -11   20.30    2.35
   5  -3 -11   13.86    1.68
  -5   3  11   15.76    1.50
  -5   3  11   16.73    1.98
  -5   3  11   12.85    2.01
   4  -3 -11    2.53    0.90
   4  -3 -11    1.13    1.12
  -4   3  11    1.83    0.91
  -4   3  11    3.42    0.79
   3  -3 -11   52.86    2.70
   3  -3 -11   51.46    2.00
   3  -3 -11   47.61    2.46
  -3   3  11   45.52    2.28
  -3   3  11   49.38    1.84
  -3   3  11   47.28    2.49
   2  -3 -11    3.27    1.11
   2  -3 -11    2.29    0.81
   2  -3 -11    2.25    0.98
  -2   3  11    3.66    0.95
  -2   3  11    3.73    0.81
  -2   3  11    2.96    0.67
   1  -3 -11  101.28    3.16
   1  -3 -11   99.17    3.12
   1  -3 -11   99.91    2.95
  -1   3  11  102.20    3.06
  -1   3  11  104.57    3.32
  -1   3  11   99.95    2.70
   0  -3 -11    0.52    0.66
   0  -3 -11   -0.11    0.67
   0  -3 -11    0.64    0.64
   0   3  11    0.70    0.51
   0   3  11    0.08    0.65
   0   3  11    0.29    0.56
  -1  -3 -11  156.65    3.87
  -1  -3 -11  161.36    3.81
  -1  -3 -11  156.32    3.99
   1   3  11  155.64    4.01
   1   3  11  155.06    3.74
   1   3  11  162.16    3.84
  -2  -3 -11   31.48    1.52
  -2  -3 -11   32.33    1.59
  -2  -3 -11   29.28    1.60
   2   3  11   29.10    1.59
   2   3  11   29.86    1.49
   2   3  11   31.64    1.46
  -3  -3 -11    4.30    0.74
  -3  -3 -11    4.12    0.67
  -3  -3 -11    2.75    0.70
   3   3  11    5.58    0.91
   3   3  11    4.26    0.70
  -4  -3 -11    1.49    0.84
  -4  -3 -11    0.34    0.60
  -4  -3 -11    1.35    0.51
   4   3  11    0.70    0.61
  -5  -3 -11   82.18    2.65
  -5  -3 -11   87.44    2.76
   5   3  11   81.19    2.74
  -6  -3 -11    2.53    0.77
  -6  -3 -11    1.73    0.85
  -6  -3 -11    2.56    0.88
   6   3  11    2.58    0.98
  -7  -3 -11   29.85    1.95
  -7  -3 -11   29.04    1.84
  -7  -3 -11   28.28    1.66
   7   3  11   26.87    1.81
  -8  -3 -11    2.33    0.82
  -8  -3 -11    0.53    0.99
  -9  -3 -11   38.25    2.09
 -10  -3 -11    3.56    1.05
 -11  -3 -11    7.81    1.43
   6  -4 -11    1.73    1.22
  -6   4  11   -1.20    1.00
  -6   4  11   -2.06    1.16
   5  -4 -11   18.73    2.25
   5  -4 -11   18.89    1.96
  -5   4  11   17.46    1.80
  -5   4  11   23.80    2.07
   4  -4 -11   13.55    2.10
   4  -4 -11   12.28    1.69
  -4   4  11   14.05    1.57
  -4   4  11   14.75    1.78
   3  -4 -11   21.56    2.11
   3  -4 -11   17.66    1.97
   3  -4 -11   18.69    1.55
  -3   4  11   21.13    1.76
  -3   4  11   18.38    1.42
  -3   4  11   14.83    1.99
   2  -4 -11   16.94    1.78
   2  -4 -11   18.16    1.83
   2  -4 -11   16.95    1.51
  -2   4  11   19.94    1.40
  -2   4  11   20.93    1.60
  -2   4  11   18.02    1.75
   1  -4 -11   18.32    1.64
   1  -4 -11   20.08    1.62
   1  -4 -11   20.38    1.50
  -1   4  11   15.32    2.15
  -1   4  11   21.11    1.35
  -1   4  11   18.39    1.58
   0  -4 -11    9.87    1.39
   0  -4 -11    9.54    1.34
   0  -4 -11   11.34    1.33
   0   4  11    9.52    1.24
   0   4  11    9.92    1.15
   0   4  11   10.58    1.33
  -1  -4 -11   21.75    1.53
  -1  -4 -11   22.76    1.47
  -1  -4 -11   20.28    1.51
   1   4  11   21.31    1.29
   1   4  11   22.38    1.49
   1   4  11   21.13    1.36
  -2  -4 -11    5.52    0.88
  -2  -4 -11    4.82    0.82
  -2  -4 -11    5.15    0.78
   2   4  11    5.27    0.79
   2   4  11    4.49    0.70
  -3  -4 -11    1.78    0.58
  -3  -4 -11    1.61    0.62
  -3  -4 -11    0.91    0.67
   3   4  11    0.59    0.49
   3   4  11    0.48    0.56
  -4  -4 -11   -0.68    0.58
  -4  -4 -11   -0.62    0.49
  -4  -4 -11    1.09    0.49
   4   4  11   -0.04    0.42
   4   4  11   -0.36    0.58
  -5  -4 -11    1.43    0.68
  -5  -4 -11    1.18    0.66
  -5  -4 -11    0.91    0.61
   5   4  11    0.73    0.73
  -6  -4 -11    7.88    1.00
  -6  -4 -11    9.16    1.42
   6   4  11    6.76    1.53
  -7  -4 -11    5.58    1.12
  -7  -4 -11    4.68    0.91
  -7  -4 -11    3.94    0.81
   7   4  11    3.57    0.93
  -8  -4 -11   46.90    2.12
  -8  -4 -11   46.31    2.53
 -10  -4 -11   16.08    1.77
 -11  -4 -11   16.55    2.09
   6  -5 -11   25.88    2.58
  -6   5  11   27.08    2.51
  -6   5  11   32.30    2.43
   5  -5 -11    4.17    1.24
   5  -5 -11    3.45    1.00
  -5   5  11    6.51    1.19
   4  -5 -11   19.93    2.17
   4  -5 -11   22.64    1.96
  -4   5  11   20.31    1.77
  -4   5  11   20.23    1.85
   3  -5 -11    0.78    1.11
   3  -5 -11    0.90    1.01
   3  -5 -11    0.27    0.83
  -3   5  11    0.83    1.09
  -3   5  11    1.03    0.78
  -3   5  11    0.10    0.71
   2  -5 -11   29.95    1.79
   2  -5 -11   29.45    2.03
   2  -5 -11   28.69    2.00
  -2   5  11   31.02    1.83
  -2   5  11   30.25    1.64
  -2   5  11   29.84    2.00
   1  -5 -11    9.96    1.21
   1  -5 -11    6.66    1.04
   1  -5 -11    8.93    1.38
  -1   5  11    8.11    1.39
  -1   5  11    8.60    1.20
   0  -5 -11   58.74    2.26
   0  -5 -11   61.73    2.27
   0  -5 -11   57.63    2.28
   0   5  11   58.63    2.10
   0   5  11   59.63    2.24
   0   5  11   61.16    2.20
  -1  -5 -11    4.56    0.86
  -1  -5 -11    4.10    0.75
  -1  -5 -11    3.41    0.79
   1   5  11    4.44    0.76
   1   5  11    3.91    0.74
   1   5  11    4.14    0.74
  -2  -5 -11   78.44    2.40
  -2  -5 -11   84.90    2.60
  -2  -5 -11   82.51    2.57
   2   5  11   78.91    2.72
   2   5  11   83.43    2.35
  -3  -5 -11   45.83    1.96
  -3  -5 -11   42.30    1.83
  -3  -5 -11   43.78    1.66
   3   5  11   43.98    1.85
   3   5  11   45.03    1.57
  -4  -5 -11   12.92    0.98
  -4  -5 -11   13.17    1.23
  -4  -5 -11   13.79    1.41
   4   5  11   12.35    1.29
   4   5  11   12.69    0.89
  -5  -5 -11    0.28    0.61
  -5  -5 -11    1.12    0.60
  -5  -5 -11    0.66    0.66
   5   5  11    0.62    0.59
  -6  -5 -11   21.84    2.30
  -6  -5 -11   25.94    1.76
  -6  -5 -11   24.55    1.62
   6   5  11   18.88    2.68
  -7  -5 -11    2.04    0.86
  -7  -5 -11    1.86    0.67
  -7  -5 -11    3.32    0.92
   7   5  11    1.09    0.66
  -8  -5 -11   43.34    2.07
  -8  -5 -11   48.33    2.57
   8   5  11   44.77    2.30
  -9  -5 -11   -0.14    0.75
 -10  -5 -11   43.96    2.28
 -11  -5 -11    0.17    1.13
   6  -6 -11   32.92    2.82
  -6   6  11   28.38    2.60
  -6   6  11   32.35    2.63
   5  -6 -11   -0.57    1.23
   5  -6 -11   -0.61    0.94
  -5   6  11   -0.85    1.02
  -5   6  11   -0.25    1.08
   4  -6 -11   -1.06    1.05
   4  -6 -11    0.98    0.93
  -4   6  11    2.50    1.02
  -4   6  11    0.44    0.94
   3  -6 -11   -0.56    0.89
   3  -6 -11    0.55    0.93
   3  -6 -11    0.31    1.03
  -3   6  11    0.68    0.72
  -3   6  11    0.87    0.78
   2  -6 -11   24.72    1.83
   2  -6 -11   24.31    1.82
   2  -6 -11   23.16    1.98
  -2   6  11   22.72    1.70
  -2   6  11   22.08    1.91
  -2   6  11   22.05    1.64
   1  -6 -11    4.81    0.96
   1  -6 -11    7.28    1.03
   1  -6 -11    5.24    0.92
  -1   6  11    5.05    1.33
  -1   6  11    5.00    0.97
  -1   6  11    5.03    0.85
   0  -6 -11    9.55    1.46
   0  -6 -11    9.13    1.36
   0  -6 -11    8.66    1.33
   0   6  11    9.34    1.23
   0   6  11    8.65    1.30
   0   6  11    9.73    1.27
  -1  -6 -11   19.26    1.57
  -1  -6 -11   16.98    1.39
  -1  -6 -11   19.29    1.42
   1   6  11   19.12    1.40
   1   6  11   17.78    1.36
   1   6  11   18.26    1.38
  -2  -6 -11   52.53    2.05
  -2  -6 -11   52.98    2.18
  -2  -6 -11   51.14    1.87
   2   6  11   56.55    1.89
   2   6  11   51.82    2.04
  -3  -6 -11    2.16    0.75
  -3  -6 -11    2.17    0.65
  -3  -6 -11    2.02    0.57
   3   6  11    2.20    0.64
   3   6  11    2.50    0.55
  -4  -6 -11   15.20    1.83
  -4  -6 -11   15.51    1.31
  -4  -6 -11   12.80    0.91
   4   6  11   14.61    0.94
   4   6  11   14.31    1.35
  -5  -6 -11   11.53    1.50
  -5  -6 -11   12.44    1.21
  -5  -6 -11    9.67    1.30
   5   6  11   12.28    1.44
  -6  -6 -11   14.95    1.53
  -6  -6 -11   14.76    1.57
  -6  -6 -11   13.47    1.46
   6   6  11   15.32    1.51
  -7  -6 -11   70.50    2.63
  -7  -6 -11   74.21    2.83
  -7  -6 -11   72.14    2.45
   7   6  11   70.91    2.74
  -8  -6 -11   38.39    2.00
  -8  -6 -11   39.30    2.45
   8   6  11   36.71    2.23
  -9  -6 -11   30.57    1.93
   9   6  11   29.82    2.22
 -10  -6 -11   17.54    1.87
 -11  -6 -11   12.98    2.04
  -6   7  11    7.75    1.50
  -6   7  11    8.73    1.53
   5  -7 -11   20.69    2.17
  -5   7  11   16.16    2.06
  -5   7  11   13.06    1.58
   4  -7 -11    7.42    1.35
   4  -7 -11    6.58    1.24
  -4   7  11    7.78    1.18
  -4   7  11    7.01    1.19
   3  -7 -11    0.68    0.81
   3  -7 -11   -0.11    1.13
   3  -7 -11    0.89    1.00
  -3   7  11    0.04    0.85
  -3   7  11    1.62    0.88
   2  -7 -11    9.06    1.28
   2  -7 -11    8.94    1.52
   2  -7 -11    9.00    1.13
  -2   7  11    8.24    1.10
  -2   7  11    7.14    1.13
  -2   7  11    6.33    1.12
   1  -7 -11   48.44    2.20
   1  -7 -11   42.53    2.41
   1  -7 -11   47.09    2.20
  -1   7  11   44.56    2.40
  -1   7  11   50.16    2.30
  -1   7  11   49.75    2.15
   0  -7 -11    3.00    0.86
   0  -7 -11    2.75    0.86
   0  -7 -11    2.90    0.81
   0   7  11    2.37    0.72
   0   7  11    1.39    0.72
   0   7  11    2.42    0.81
  -1  -7 -11   33.26    1.67
  -1  -7 -11   35.95    1.79
  -1  -7 -11   35.04    1.95
   1   7  11   37.76    1.78
   1   7  11   34.38    1.68
   1   7  11   32.90    1.74
  -2  -7 -11   -0.42    0.54
  -2  -7 -11    0.42    0.64
  -2  -7 -11    0.25    0.74
   2   7  11   -0.05    0.56
   2   7  11    0.11    0.61
  -3  -7 -11   87.22    2.85
  -3  -7 -11   87.86    2.64
  -3  -7 -11   85.07    2.51
   3   7  11   82.85    2.73
   3   7  11   87.45    2.36
  -4  -7 -11    4.38    0.90
  -4  -7 -11    5.30    0.85
  -4  -7 -11    3.65    0.56
  -4  -7 -11    3.43    0.72
   4   7  11    3.63    0.83
   4   7  11    4.46    0.61
  -5  -7 -11   13.51    1.35
  -5  -7 -11   14.27    1.29
  -5  -7 -11   18.23    1.62
   5   7  11   14.28    1.82
  -6  -7 -11   -0.70    0.85
  -6  -7 -11   -0.38    0.61
  -6  -7 -11    0.25    0.69
   6   7  11   -0.95    0.68
  -7  -7 -11   28.39    1.88
  -7  -7 -11   29.80    2.07
  -7  -7 -11   29.45    1.68
   7   7  11   29.67    1.96
  -8  -7 -11    1.44    1.00
   8   7  11    0.95    0.90
  -9  -7 -11   18.52    1.73
   9   7  11   18.08    1.99
 -10  -7 -11   -1.69    0.89
 -11  -7 -11   14.27    2.20
   5  -8 -11   48.75    2.78
  -5   8  11   48.36    2.70
  -5   8  11   45.09    2.70
   4  -8 -11    2.79    1.01
  -4   8  11    0.98    1.07
  -4   8  11   -0.36    1.01
   3  -8 -11   21.30    2.22
   3  -8 -11   18.22    2.36
   3  -8 -11   22.08    1.93
  -3   8  11   25.20    1.88
  -3   8  11   21.69    2.01
   2  -8 -11    1.11    0.95
   2  -8 -11    1.05    1.01
   2  -8 -11    0.27    0.75
  -2   8  11   -1.18    0.92
  -2   8  11   -0.60    0.75
  -2   8  11   -0.49    0.75
   1  -8 -11   37.55    2.21
   1  -8 -11   38.03    2.00
   1  -8 -11   38.64    2.13
  -1   8  11   38.09    2.22
  -1   8  11   36.94    2.06
  -1   8  11   39.17    2.19
   0  -8 -11    9.68    1.68
   0  -8 -11   11.96    1.50
   0  -8 -11   11.00    1.37
   0   8  11   10.64    1.54
   0   8  11   13.66    1.34
   0   8  11   11.23    1.55
  -1  -8 -11    4.05    0.84
  -1  -8 -11    2.94    0.91
  -1  -8 -11    3.94    0.79
   1   8  11    4.08    0.90
   1   8  11    3.50    0.81
   1   8  11    4.07    0.78
  -2  -8 -11   29.14    1.48
  -2  -8 -11   30.26    1.92
  -2  -8 -11   34.15    1.70
   2   8  11   27.14    1.69
   2   8  11   32.21    1.62
  -3  -8 -11   43.28    1.66
  -3  -8 -11   48.06    1.93
  -3  -8 -11   43.87    2.19
   3   8  11   44.01    2.06
  -4  -8 -11   15.98    1.28
  -4  -8 -11   17.50    1.39
  -4  -8 -11   17.31    1.69
  -4  -8 -11   17.96    1.06
   4   8  11   13.04    1.77
   4   8  11   14.85    1.08
  -5  -8 -11   11.52    1.21
  -5  -8 -11   11.50    1.78
  -5  -8 -11   12.95    0.97
  -5  -8 -11   13.08    1.34
   5   8  11   12.58    1.42
  -6  -8 -11   33.33    2.35
  -6  -8 -11   26.94    1.91
  -6  -8 -11   26.01    1.81
   6   8  11   28.42    1.81
  -7  -8 -11   -0.35    0.65
  -7  -8 -11    1.25    1.01
  -7  -8 -11    0.34    0.79
   7   8  11    0.16    0.77
  -8  -8 -11   48.55    2.23
   8   8  11   51.22    2.61
  -9  -8 -11    0.20    0.84
   9   8  11    1.15    1.20
 -10  -8 -11   16.48    2.06
  10   8  11   22.14    2.23
 -11  -8 -11    2.21    1.21
   5  -9 -11    5.49    1.25
  -5   9  11    3.51    1.39
  -5   9  11    4.12    1.35
   4  -9 -11    6.04    1.11
  -4   9  11    5.85    1.27
  -4   9  11    5.07    1.15
   3  -9 -11    5.01    1.36
   3  -9 -11    5.11    1.15
  -3   9  11    3.81    1.03
  -3   9  11    4.78    1.19
   2  -9 -11    6.95    1.41
   2  -9 -11    9.62    1.55
   2  -9 -11    6.51    1.24
  -2   9  11    7.92    1.13
  -2   9  11   10.85    1.74
   1  -9 -11   45.52    2.21
   1  -9 -11   43.32    2.41
   1  -9 -11   41.97    2.10
  -1   9  11   48.54    2.32
  -1   9  11   43.80    2.38
  -1   9  11   41.71    2.18
   0  -9 -11   66.23    2.77
   0  -9 -11   70.82    2.52
   0   9  11   67.49    2.66
   0   9  11   69.34    2.66
   0   9  11   67.31    2.42
  -1  -9 -11   15.18    1.50
  -1  -9 -11   17.37    1.83
  -1  -9 -11   13.94    1.38
   1   9  11   15.27    1.49
   1   9  11   18.54    1.38
   1   9  11   16.67    1.64
  -2  -9 -11   53.88    2.50
  -2  -9 -11   54.69    2.04
  -2  -9 -11   58.34    2.16
   2   9  11   51.28    2.27
   2   9  11   57.49    2.15
  -3  -9 -11    7.29    1.10
  -3  -9 -11    7.59    0.97
  -3  -9 -11    7.63    1.04
   3   9  11    9.83    1.40
   3   9  11    7.08    0.89
  -4  -9 -11   71.31    2.11
  -4  -9 -11   71.62    2.34
  -4  -9 -11   73.77    2.78
  -4  -9 -11   67.57    1.87
  -4  -9 -11   68.51    2.41
   4   9  11   75.02    2.67
   4   9  11   72.78    2.13
  -5  -9 -11    6.74    0.96
  -5  -9 -11    7.17    0.94
  -5  -9 -11    7.05    0.92
  -5  -9 -11    6.49    1.14
   5   9  11    4.58    0.85
  -6  -9 -11    3.03    0.99
  -6  -9 -11    4.80    1.10
  -6  -9 -11    3.99    0.97
  -6  -9 -11    3.43    0.71
   6   9  11    3.52    0.93
  -7  -9 -11   -0.05    0.71
  -7  -9 -11   -0.57    0.66
  -7  -9 -11    0.04    1.00
  -7  -9 -11    0.34    0.97
   7   9  11   -0.99    0.83
  -8  -9 -11    4.38    0.99
   8   9  11    5.42    1.23
  -9  -9 -11    2.48    0.94
   9   9  11    0.64    1.14
 -10  -9 -11    9.17    1.35
  10   9  11    9.99    1.45
 -11  -9 -11    0.42    1.24
   4 -10 -11   35.07    2.47
  -4  10  11   24.34    1.76
  -4  10  11   24.62    2.22
  -4  10  11   32.49    2.46
   3 -10 -11    2.24    1.08
   3 -10 -11   -2.88    1.31
  -3  10  11    0.76    1.05
  -3  10  11    1.18    1.00
   2 -10 -11    7.93    1.30
   2 -10 -11    6.01    1.29
  -2  10  11    7.42    1.12
  -2  10  11    7.56    1.20
   1 -10 -11   18.63    2.59
   1 -10 -11   22.48    2.03
   1 -10 -11   20.13    1.71
  -1  10  11   24.80    1.67
  -1  10  11   21.00    2.26
  -1  10  11   20.15    1.82
   0 -10 -11    5.30    0.97
   0 -10 -11    3.62    1.08
   0 -10 -11    6.79    1.00
   0  10  11    5.45    0.89
   0  10  11    6.41    1.24
   0  10  11    4.65    1.06
  -1 -10 -11    4.79    0.91
  -1 -10 -11    5.56    1.19
  -1 -10 -11    6.13    0.97
   1  10  11    5.39    1.11
   1  10  11    4.03    0.91
  -2 -10 -11    2.96    0.80
  -2 -10 -11    1.50    1.09
  -2 -10 -11    1.94    0.97
   2  10  11    2.36    0.84
   2  10  11    3.23    0.90
  -3 -10 -11   82.74    3.12
  -3 -10 -11   90.26    2.75
  -3 -10 -11   90.41    2.66
   3  10  11   86.59    2.96
   3  10  11   87.27    2.68
  -4 -10 -11   22.10    1.49
  -4 -10 -11   27.62    1.69
  -4 -10 -11   24.12    2.16
  -4 -10 -11   23.82    1.21
  -4 -10 -11   26.00    1.36
   4  10  11   23.55    1.77
  -5 -10 -11   16.53    2.05
  -5 -10 -11   12.87    1.32
  -5 -10 -11   14.78    1.19
  -5 -10 -11   16.14    1.07
  -5 -10 -11   18.97    1.58
   5  10  11   10.30    1.52
   5  10  11   13.32    1.21
  -6 -10 -11    1.02    0.85
  -6 -10 -11    0.24    0.60
  -6 -10 -11    0.20    0.79
  -6 -10 -11   -0.47    1.03
   6  10  11    0.07    0.77
  -7 -10 -11   13.49    1.89
  -7 -10 -11   13.17    1.50
  -7 -10 -11   11.52    1.96
   7  10  11   11.80    1.83
  -8 -10 -11   -0.49    0.89
  -8 -10 -11    0.91    1.22
  -8 -10 -11    2.93    0.93
   8  10  11    1.61    0.94
  -9 -10 -11   14.91    1.80
   9  10  11   17.72    2.22
  10  10  11    2.43    1.28
   4 -11 -11    0.26    1.08
  -4  11  11    0.23    1.30
  -4  11  11    2.09    1.25
  -4  11  11    1.49    1.29
   3 -11 -11   12.07    1.90
   3 -11 -11   10.20    1.72
  -3  11  11    8.87    1.39
  -3  11  11   13.68    1.85
  -3  11  11   10.76    1.53
   2 -11 -11    3.57    1.14
   2 -11 -11    0.08    1.19
  -2  11  11    1.85    1.03
  -2  11  11    1.66    0.67
  -2  11  11    2.34    0.87
   1 -11 -11   16.01    1.93
   1 -11 -11   15.80    1.78
  -1  11  11   15.46    1.63
  -1  11  11   18.61    1.88
   0 -11 -11   32.98    2.03
   0 -11 -11   34.68    2.25
   0  11  11   29.62    2.03
   0  11  11   30.37    2.29
   0  11  11   31.86    1.77
  -1 -11 -11   49.53    2.30
  -1 -11 -11   51.29    2.21
  -1 -11 -11   45.63    3.15
   1  11  11   50.49    2.45
   1  11  11   50.97    2.47
  -2 -11 -11   10.01    1.54
  -2 -11 -11   13.07    1.57
  -2 -11 -11    9.26    1.36
   2  11  11   11.08    1.57
   2  11  11   10.29    1.70
  -3 -11 -11   49.08    2.72
  -3 -11 -11   57.60    2.24
  -3 -11 -11   53.37    2.07
  -3 -11 -11   56.62    2.15
   3  11  11   53.31    2.26
   3  11  11   51.24    2.41
  -4 -11 -11    1.30    0.79
  -4 -11 -11    0.20    1.11
  -4 -11 -11    0.04    0.68
  -4 -11 -11    0.25    0.65
  -4 -11 -11    0.42    0.62
   4  11  11   -0.30    0.81
   4  11  11   -0.14    0.75
  -5 -11 -11   35.84    3.11
  -5 -11 -11   33.34    1.61
  -5 -11 -11   35.42    1.93
  -5 -11 -11   33.94    1.83
  -5 -11 -11   33.00    1.50
   5  11  11   33.14    2.11
   5  11  11   31.71    1.62
  -6 -11 -11    8.64    1.14
  -6 -11 -11    6.70    0.92
  -6 -11 -11    7.41    1.24
   6  11  11   12.27    1.68
  -7 -11 -11    2.60    0.94
  -7 -11 -11    2.55    1.15
  -7 -11 -11    4.04    0.94
   7  11  11    2.05    1.10
  -8 -11 -11    1.47    0.96
  -8 -11 -11    0.03    1.02
  -8 -11 -11    0.42    1.50
   8  11  11    1.23    1.10
  -9 -11 -11    8.20    1.25
   9  11  11   10.78    1.54
 -10 -11 -11    1.65    1.16
  10  11  11    0.31    1.29
   3 -12 -11    9.61    1.83
   3 -12 -11   10.52    1.75
  -3  12  11   11.20    1.75
  -3  12  11   11.75    1.89
  -3  12  11    6.88    1.37
   2 -12 -11    1.74    1.35
   2 -12 -11    3.11    1.06
  -2  12  11    3.04    0.97
  -2  12  11    2.90    0.84
  -2  12  11    2.82    1.39
   1 -12 -11    1.69    1.12
   1 -12 -11    2.24    1.11
  -1  12  11    1.01    0.72
  -1  12  11    1.76    0.85
  -1  12  11    2.48    1.01
   0 -12 -11   39.43    2.29
   0 -12 -11   40.07    2.34
   0  12  11   41.84    2.41
  -1 -12 -11    4.65    1.01
  -1 -12 -11    5.41    1.04
   1  12  11    3.43    1.33
   1  12  11    4.29    1.06
  -2 -12 -11   17.00    1.68
  -2 -12 -11   12.77    2.07
   2  12  11   14.59    1.80
   2  12  11   16.49    2.09
  -3 -12 -11    2.22    0.89
  -3 -12 -11    1.33    0.75
  -3 -12 -11    1.78    0.90
   3  12  11    1.35    1.17
   3  12  11   -0.21    0.92
  -4 -12 -11   31.45    1.65
  -4 -12 -11   35.63    1.96
  -4 -12 -11   35.78    1.83
  -4 -12 -11   32.50    1.72
   4  12  11   34.03    2.23
   4  12  11   30.35    2.06
  -5 -12 -11   22.12    1.86
  -5 -12 -11   21.35    1.51
  -5 -12 -11   18.84    1.60
  -5 -12 -11   21.06    1.61
   5  12  11   20.93    1.92
   5  12  11   19.82    1.79
  -6 -12 -11    0.96    0.87
  -6 -12 -11   -0.75    1.00
  -6 -12 -11    1.67    0.98
   6  12  11    1.69    0.90
  -7 -12 -11   -0.84    0.87
  -7 -12 -11   -1.26    0.97
  -7 -12 -11   -0.87    1.17
   7  12  11   -1.68    0.97
  -8 -12 -11    5.05    2.19
  -8 -12 -11    4.38    1.10
   8  12  11    5.63    1.30
  -9 -12 -11   -0.44    1.16
   9  12  11    0.31    1.23
   2 -13 -11    9.42    1.42
  -2  13  11   12.51    1.83
  -2  13  11    9.55    1.17
  -2  13  11   10.22    1.62
   1 -13 -11    0.63    1.12
   1 -13 -11   -0.24    1.21
  -1  13  11    2.99    1.19
   0 -13 -11   28.85    2.13
   0 -13 -11   30.33    2.24
   0  13  11   28.25    2.21
  -1 -13 -11    3.76    1.09
  -1 -13 -11    4.36    1.09
   1  13  11    2.29    1.02
  -2 -13 -11   12.05    1.75
  -2 -13 -11    9.42    1.08
   2  13  11    9.82    1.46
   2  13  11   13.52    1.80
  -3 -13 -11    0.23    0.90
  -3 -13 -11   -0.18    0.76
  -3 -13 -11    0.37    1.09
   3  13  11   -1.32    1.13
   3  13  11    0.16    0.87
  -4 -13 -11   25.38    1.94
  -4 -13 -11   22.96    1.90
  -4 -13 -11   24.44    1.71
  -4 -13 -11   26.93    1.79
   4  13  11   26.98    2.17
   4  13  11   20.25    2.14
  -5 -13 -11    0.35    0.89
  -5 -13 -11   -1.12    0.96
  -5 -13 -11   -0.85    0.85
  -5 -13 -11    0.57    0.80
   5  13  11   -0.18    0.93
   5  13  11   -1.42    0.99
  -6 -13 -11   40.51    2.26
  -6 -13 -11   37.18    2.17
  -6 -13 -11   38.58    2.38
   6  13  11   37.47    2.49
  -7 -13 -11   -1.43    0.89
  -7 -13 -11   -1.37    1.28
  -7 -13 -11   -0.33    1.11
   7  13  11    1.14    1.11
  -8 -13 -11    5.65    1.30
  -9 -13 -11    6.74    1.48
   9  13  11    5.96    1.56
   1 -14 -11    1.18    1.24
  -1  14  11    0.85    0.99
   0 -14 -11    1.94    1.13
   0  14  11    3.69    1.16
  -1 -14 -11   15.98    2.12
  -1 -14 -11   11.70    1.55
  -1 -14 -11   19.15    2.19
   1  14  11   12.54    2.03
  -2 -14 -11    3.96    1.07
  -2 -14 -11    2.21    0.83
  -2 -14 -11    1.24    1.07
   2  14  11    1.31    1.34
  -3 -14 -11    3.17    1.12
  -3 -14 -11    5.38    1.13
  -3 -14 -11    4.14    0.87
   3  14  11    4.66    1.11
   3  14  11    3.76    1.44
  -4 -14 -11    3.09    0.96
  -4 -14 -11    2.68    1.07
  -4 -14 -11    3.72    1.10
   4  14  11    0.42    1.35
   4  14  11    0.86    1.09
  -5 -14 -11   19.93    2.08
  -5 -14 -11   15.11    1.71
  -5 -14 -11   15.38    1.96
  -5 -14 -11   16.22    2.05
   5  14  11   20.49    2.20
   5  14  11   19.07    2.35
  -6 -14 -11   12.49    1.54
  -6 -14 -11   10.94    1.42
  -6 -14 -11   10.25    1.26
   6  14  11   10.95    1.56
  -7 -14 -11    1.37    1.09
   7  14  11    3.65    1.19
  -8 -14 -11    1.67    1.30
   8  14  11    4.20    1.43
   0 -15 -11   -0.70    1.32
   0  15  11    0.00    1.67
  -1 -15 -11    5.69    1.40
   1  15  11    5.22    1.39
  -2 -15 -11    2.48    1.26
  -2 -15 -11   -1.43    1.16
   2  15  11   -0.32    1.02
  -3 -15 -11    5.38    0.99
   3  15  11    5.96    1.33
  -4 -15 -11    7.58    1.40
  -4 -15 -11    7.01    1.05
   4  15  11    4.22    1.74
   4  15  11    9.85    1.44
  -5 -15 -11   24.61    2.22
  -5 -15 -11   22.03    1.78
   5  15  11   27.65    2.50
  -6 -15 -11    9.34    1.25
   6  15  11    5.59    1.33
   3  16  11    0.25    1.50
   1   6 -12    8.52    1.87
  -1  -6  12   11.70    1.60
   0   6 -12    1.98    1.14
  -1   6 -12    2.96    1.42
  -2   6 -12    5.82    1.17
  -3   6 -12    2.58    1.09
  -3   6 -12    1.52    0.95
  -3   6 -12    0.11    0.95
  -3   6 -12   -0.29    1.04
  -4   6 -12   53.56    2.64
  -4   6 -12   55.70    2.48
  -4   6 -12   51.89    2.72
  -4   6 -12   50.12    2.49
  -5   6 -12   12.13    2.08
  -5   6 -12   13.41    2.24
  -5   6 -12   10.47    1.31
   2   5 -12    8.58    1.63
  -2  -5  12    7.87    1.44
   1   5 -12    1.02    1.09
  -1  -5  12    1.40    1.15
   0   5 -12   37.68    2.56
  -1   5 -12   -0.11    1.01
  -2   5 -12    9.34    1.68
  -2   5 -12    7.86    1.30
  -2   5 -12    5.94    0.94
  -2   5 -12    6.09    1.47
  -2   5 -12    5.87    1.04
  -3   5 -12    2.95    1.03
  -3   5 -12    2.97    0.97
  -3   5 -12    3.47    1.01
  -3   5 -12    0.41    1.02
  -3   5 -12    3.23    1.41
  -4   5 -12   26.73    2.18
  -4   5 -12   28.60    2.86
  -4   5 -12   25.91    1.98
  -4   5 -12   28.24    2.08
  -4   5 -12   25.96    2.29
  -4   5 -12   24.39    1.99
  -5   5 -12    8.09    2.49
  -5   5 -12    1.07    1.10
  -5   5 -12    3.20    1.01
  -5   5 -12    2.21    0.93
  -5   5 -12    4.57    1.13
  -6   5 -12   24.45    2.14
  -6   5 -12   26.52    2.22
  -6   5 -12   25.65    2.05
  -6   5 -12   20.59    2.29
  -7   5 -12    1.54    1.24
  -7   5 -12   -1.46    1.02
  -7   5 -12    1.11    1.15
  -7   5 -12   -0.28    1.24
   3   4 -12    8.72    1.65
  -3  -4  12    7.08    2.04
   2   4 -12   17.64    2.26
  -2  -4  12   17.00    2.13
   1   4 -12   27.64    2.32
  -1  -4  12   26.68    2.23
   0   4 -12   58.07    2.78
   0  -4  12   54.23    2.62
  -1   4 -12    4.56    1.07
  -1   4 -12    5.04    1.27
  -2   4 -12   49.47    2.54
  -2   4 -12   50.53    2.70
  -2   4 -12   49.38    2.08
  -2   4 -12   50.19    2.15
  -2   4 -12   53.97    1.98
  -3   4 -12   15.99    1.91
  -3   4 -12   11.69    1.55
  -3   4 -12   14.65    2.13
  -3   4 -12   11.41    1.50
  -3   4 -12   13.64    1.83
  -4   4 -12   17.93    1.64
  -4   4 -12   19.35    1.90
  -4   4 -12   12.27    1.62
  -4   4 -12   15.11    2.38
  -4   4 -12   16.67    1.74
  -4   4 -12   18.12    1.95
  -4   4 -12   12.69    1.72
  -5   4 -12   36.16    2.05
  -5   4 -12   33.42    2.66
  -5   4 -12   35.65    2.25
  -5   4 -12   39.50    2.59
  -5   4 -12   37.27    2.07
  -5   4 -12   39.50    2.30
  -5   4 -12   36.24    3.47
  -6   4 -12   13.40    1.91
  -6   4 -12   13.00    1.95
  -6   4 -12   11.06    1.57
  -6   4 -12   15.53    1.81
  -6   4 -12   10.94    1.31
  -7   4 -12   22.52    2.04
  -7   4 -12   25.89    2.16
  -7   4 -12   17.94    2.08
  -7   4 -12   23.85    2.31
  -7   4 -12   23.48    2.54
  -8   4 -12    1.49    1.14
  -8   4 -12    1.33    1.07
  -8   4 -12    2.51    1.06
  -8   4 -12    2.07    1.43
  -4  -3  12    1.79    1.24
   3   3 -12   15.37    2.32
  -3  -3  12   15.04    2.08
   2   3 -12    1.12    1.22
  -2  -3  12    0.19    0.97
   1   3 -12   30.78    2.20
  -1  -3  12   29.86    2.09
   0   3 -12    5.64    1.09
   0   3 -12    6.02    1.64
   0  -3  12    6.73    1.12
  -1   3 -12  129.11    3.90
  -1   3 -12  124.27    3.94
  -2   3 -12    2.06    1.21
  -2   3 -12   -0.92    0.98
  -2   3 -12    1.41    0.68
  -2   3 -12    2.47    0.98
  -2   3 -12    1.46    0.65
  -2   3 -12    2.84    0.82
  -3   3 -12   43.88    2.42
  -3   3 -12   48.09    1.99
  -3   3 -12   40.52    2.54
  -3   3 -12   43.05    2.19
  -3   3 -12   41.98    1.83
  -3   3 -12   41.71    2.06
  -4   3 -12    3.98    0.93
  -4   3 -12    3.45    1.13
  -4   3 -12    4.65    0.99
  -4   3 -12    3.53    0.93
  -4   3 -12    3.16    0.83
  -4   3 -12    6.24    1.04
  -4   3 -12    4.43    1.17
  -5   3 -12   31.58    2.26
  -5   3 -12   33.93    2.03
  -5   3 -12   33.20    2.31
  -5   3 -12   27.42    2.26
  -5   3 -12   32.55    1.98
  -5   3 -12   28.77    1.90
  -6   3 -12    2.00    1.01
  -6   3 -12    0.27    0.90
  -6   3 -12    0.53    0.76
  -6   3 -12    3.40    1.18
  -6   3 -12    3.99    1.01
  -7   3 -12   12.52    2.07
  -7   3 -12   12.29    1.94
  -7   3 -12    7.25    1.21
  -7   3 -12    6.46    1.06
  -8   3 -12    4.17    1.08
  -8   3 -12    3.20    1.22
   4   2 -12    2.25    1.34
  -4  -2  12    2.56    1.27
   3   2 -12   12.47    2.14
  -3  -2  12   14.65    1.96
  -3  -2  12   16.41    2.07
   2   2 -12   18.85    2.14
  -2  -2  12   18.88    1.96
   1   2 -12   13.01    1.81
  -1  -2  12   14.20    1.72
   0   2 -12   26.61    2.24
   0   2 -12   29.99    2.09
   0  -2  12   36.08    2.14
  -1   2 -12   76.53    2.24
  -1   2 -12   75.04    2.82
  -1   2 -12   74.50    2.94
   1  -2  12   74.96    2.78
  -2   2 -12   19.35    1.48
  -2   2 -12   20.13    1.77
  -2   2 -12   19.32    1.86
  -2   2 -12   17.51    1.23
  -3   2 -12    0.45    0.92
  -3   2 -12   -0.26    0.54
  -3   2 -12    0.90    0.99
  -3   2 -12    0.06    0.79
  -3   2 -12   -0.22    0.76
  -4   2 -12    9.24    1.40
  -4   2 -12    9.14    1.20
  -4   2 -12    7.39    0.98
  -4   2 -12   11.97    1.73
  -4   2 -12    9.04    1.14
  -4   2 -12    9.15    1.17
  -5   2 -12    6.86    1.13
  -5   2 -12    3.20    0.90
  -5   2 -12    7.72    1.27
  -5   2 -12    4.75    0.98
  -5   2 -12    4.86    1.14
  -5   2 -12    3.98    0.97
  -5   2 -12    4.22    0.88
  -6   2 -12   51.78    3.15
  -6   2 -12   47.15    2.64
  -6   2 -12   50.71    2.22
  -6   2 -12   47.85    2.40
  -6   2 -12   46.24    2.48
  -6   2 -12   49.31    2.13
  -7   2 -12    0.18    0.86
  -7   2 -12    1.10    0.98
  -7   2 -12    0.98    1.02
  -7   2 -12   -0.84    0.85
  -8   2 -12   13.78    1.87
  -8   2 -12   10.76    1.57
  -8   2 -12   15.44    2.19
  -9   2 -12    5.02    1.32
  -9   2 -12    6.20    1.30
  -5  -1  12   -2.25    1.23
   4   1 -12   19.69    2.49
  -4  -1  12   19.02    2.13
   3   1 -12    2.48    1.26
  -3  -1  12    3.37    0.91
  -3  -1  12    2.56    1.06
   2   1 -12   55.99    2.74
  -2  -1  12   56.93    2.61
   1   1 -12    6.83    1.23
  -1  -1  12    5.58    0.99
   0   1 -12   87.52    3.14
   0   1 -12   86.60    3.07
   0  -1  12   87.22    3.02
  -1   1 -12    4.63    1.07
  -1   1 -12    3.89    0.92
  -1   1 -12    4.91    0.79
   1  -1  12    3.23    0.87
  -2   1 -12   98.85    2.43
  -2   1 -12   86.12    4.30
  -2   1 -12  100.36    2.74
  -2   1 -12   97.72    3.16
  -3   1 -12    0.53    0.66
  -3   1 -12   -0.11    0.44
  -3   1 -12    1.51    0.90
  -3   1 -12    0.50    0.67
  -4   1 -12    0.34    0.53
  -4   1 -12    0.09    0.65
  -4   1 -12   -0.01    0.89
  -4   1 -12   -0.18    0.78
  -4   1 -12    0.51    0.76
  -5   1 -12    2.82    0.86
  -5   1 -12    2.76    0.76
  -5   1 -12    1.84    0.63
  -5   1 -12    2.57    1.03
  -5   1 -12    2.68    0.75
  -5   1 -12    3.58    0.98
  -6   1 -12    3.22    0.74
  -6   1 -12    4.48    0.82
  -6   1 -12    6.20    1.19
  -6   1 -12    3.57    0.86
  -6   1 -12    4.72    1.19
  -6   1 -12    4.17    0.91
  -7   1 -12   10.75    1.48
  -7   1 -12    9.11    1.16
  -7   1 -12    8.33    1.29
  -8   1 -12    1.94    1.02
  -8   1 -12    4.13    1.09
  -8   1 -12    0.74    0.70
  -9   1 -12   14.87    1.99
  -9   1 -12   15.37    2.23
 -10   1 -12   34.77    2.48
  -5   0  12   -0.92    1.27
   4   0 -12    1.53    1.16
  -4   0  12    4.16    1.06
   3   0 -12   21.85    2.29
  -3   0  12   22.88    2.06
   2   0 -12   -0.81    0.99
  -2   0  12    0.58    0.84
   1   0 -12   31.26    2.17
   1   0 -12   29.48    2.05
  -1   0  12   29.88    2.25
  -1   0  12   27.95    1.84
   0   0 -12    0.44    0.93
   0   0 -12    1.24    0.95
   0   0 -12    0.60    0.65
   0   0  12    1.12    0.73
   0   0  12    0.80    0.57
   0   0  12    0.85    0.94
  -1   0 -12   66.18    2.68
   1   0  12   68.95    2.14
   1   0  12   65.71    2.53
  -2   0 -12    1.29    0.85
  -2   0 -12    0.91    0.71
  -2   0 -12    0.70    0.70
  -3   0 -12   46.26    1.94
  -3   0 -12   44.29    1.44
  -3   0 -12   47.04    2.21
  -3   0 -12   47.36    1.96
  -4   0 -12    2.42    0.85
  -4   0 -12    2.20    0.90
  -4   0 -12    2.11    0.51
  -4   0 -12    1.65    0.66
  -4   0 -12    1.67    0.75
  -5   0 -12   -0.06    0.61
  -5   0 -12    0.69    0.52
  -5   0 -12    0.76    0.79
  -5   0 -12    1.89    0.88
  -5   0 -12    1.44    0.70
  -5   0 -12    0.49    0.75
  -6   0 -12    3.23    0.81
  -6   0 -12    3.63    0.69
  -6   0 -12    4.06    0.81
  -6   0 -12    1.55    1.00
  -7   0 -12   19.85    1.26
  -7   0 -12   19.70    1.73
  -7   0 -12   20.90    1.46
  -8   0 -12    6.72    1.11
  -9   0 -12   28.24    2.31
  -9   0 -12   28.60    2.15
 -10   0 -12   15.23    2.33
 -10   0 -12   18.07    2.26
   5  -1 -12    8.08    1.52
  -5   1  12    8.25    1.33
   4  -1 -12   -2.00    1.04
  -4   1  12   -0.68    0.91
   3  -1 -12   19.49    2.11
  -3   1  12   18.30    1.94
   2  -1 -12   15.53    1.95
  -2   1  12   14.87    1.70
   1  -1 -12   20.23    1.93
   1  -1 -12   17.07    1.32
   1  -1 -12   18.65    1.81
  -1   1  12   19.12    1.23
  -1   1  12   20.35    1.70
  -1   1  12   17.91    1.85
   0  -1 -12    2.04    0.96
   0  -1 -12    1.77    0.66
   0  -1 -12    1.48    0.84
   0   1  12    1.86    0.71
   0   1  12    2.25    0.64
   0   1  12    2.13    0.88
  -1  -1 -12   68.30    2.62
  -1  -1 -12   68.52    2.23
  -1  -1 -12   68.82    2.49
   1   1  12   67.38    2.46
   1   1  12   67.04    2.51
   1   1  12   67.60    2.18
  -2  -1 -12    2.67    0.68
  -2  -1 -12    3.86    0.87
  -2  -1 -12    4.54    0.86
   2   1  12    3.78    0.76
  -3  -1 -12   24.70    1.48
  -3  -1 -12   21.76    1.70
  -3  -1 -12   25.85    1.57
   3   1  12   22.81    1.49
  -4  -1 -12   14.09    1.23
  -4  -1 -12   16.42    1.60
  -4  -1 -12   15.91    1.46
  -4  -1 -12   16.36    0.94
   4   1  12   13.53    1.43
  -5  -1 -12    1.89    0.73
  -5  -1 -12    1.08    0.60
  -5  -1 -12    1.88    0.87
  -5  -1 -12    0.92    0.87
  -5  -1 -12    0.38    0.79
  -6  -1 -12   17.09    1.16
  -6  -1 -12   17.30    1.84
  -6  -1 -12   16.98    1.51
  -6  -1 -12   17.92    1.74
  -6  -1 -12   14.98    1.22
  -7  -1 -12   37.16    3.59
  -7  -1 -12   36.97    1.95
  -7  -1 -12   33.06    2.26
  -8  -1 -12   22.90    1.77
  -9  -1 -12   32.87    2.16
 -10  -1 -12   19.92    2.15
 -10  -1 -12   17.52    2.31
   5  -2 -12   17.79    2.51
  -5   2  12   16.73    2.17
   4  -2 -12    4.45    1.30
  -4   2  12    2.85    1.06
   3  -2 -12    0.99    1.06
  -3   2  12    0.81    0.86
   2  -2 -12   30.78    2.19
   2  -2 -12   31.03    1.62
  -2   2  12   33.98    2.07
  -2   2  12   34.75    1.55
   1  -2 -12    1.37    1.00
   1  -2 -12   -0.12    1.09
   1  -2 -12   -1.03    0.83
  -1   2  12    0.52    0.80
  -1   2  12    0.51    0.59
  -1   2  12    0.01    0.71
   0  -2 -12   10.44    1.63
   0  -2 -12   10.07    1.34
   0   2  12    9.07    1.34
   0   2  12    9.58    1.46
   0   2  12   11.24    1.17
  -1  -2 -12    1.40    0.81
  -1  -2 -12   -0.14    0.76
  -1  -2 -12   -0.82    0.69
   1   2  12    1.16    0.69
   1   2  12   -0.39    0.53
   1   2  12   -0.56    0.74
  -2  -2 -12   41.74    1.83
  -2  -2 -12   41.97    2.06
  -2  -2 -12   41.46    1.85
   2   2  12   41.09    1.85
   2   2  12   40.11    1.77
  -3  -2 -12    0.79    0.69
  -3  -2 -12    0.33    0.78
  -3  -2 -12    0.88    0.59
   3   2  12    1.33    0.66
  -4  -2 -12   29.05    1.71
  -4  -2 -12   26.04    1.77
  -4  -2 -12   27.08    1.40
   4   2  12   27.49    1.70
  -5  -2 -12    4.70    0.86
  -5  -2 -12    3.21    0.72
  -5  -2 -12    2.96    0.61
  -5  -2 -12    3.61    0.71
  -5  -2 -12    4.05    0.88
   5   2  12    2.69    0.78
  -6  -2 -12   20.23    1.83
  -6  -2 -12   19.43    1.80
  -6  -2 -12   18.42    1.48
  -7  -2 -12    0.29    1.00
  -7  -2 -12    1.93    1.02
  -7  -2 -12    0.30    0.67
  -8  -2 -12   63.83    2.56
  -9  -2 -12   -0.40    0.86
 -10  -2 -12   33.10    2.32
 -11  -2 -12   -0.89    1.50
   5  -3 -12    2.05    1.47
  -5   3  12    0.81    1.14
   4  -3 -12   19.34    1.73
   4  -3 -12   17.09    2.32
  -4   3  12   21.33    2.03
  -4   3  12   20.16    1.59
   3  -3 -12    0.94    1.05
   3  -3 -12   -0.08    0.84
  -3   3  12   -0.37    0.82
  -3   3  12    0.78    0.73
   2  -3 -12    1.59    0.97
   2  -3 -12    0.77    0.81
  -2   3  12   -0.08    1.07
  -2   3  12    1.46    0.67
  -2   3  12    0.91    0.86
   1  -3 -12   15.66    1.82
   1  -3 -12   11.85    1.67
   1  -3 -12   13.01    1.43
  -1   3  12   15.27    1.78
  -1   3  12   14.25    1.47
  -1   3  12   14.48    1.22
   0  -3 -12   32.67    1.89
   0  -3 -12   31.25    1.74
   0  -3 -12   32.40    2.01
   0   3  12   32.55    1.55
   0   3  12   31.61    1.82
   0   3  12   30.89    1.78
  -1  -3 -12    6.39    0.93
  -1  -3 -12    5.31    0.92
  -1  -3 -12    5.91    0.88
   1   3  12    5.52    0.89
   1   3  12    6.23    0.89
   1   3  12    8.05    1.14
  -2  -3 -12  102.30    3.09
  -2  -3 -12   99.56    2.87
  -2  -3 -12   97.00    2.84
   2   3  12   97.65    2.80
   2   3  12   98.12    2.85
  -3  -3 -12    4.96    0.76
  -3  -3 -12    5.09    0.86
   3   3  12    4.79    0.79
   3   3  12    3.34    0.74
  -4  -3 -12   90.30    2.48
  -4  -3 -12   92.96    2.83
  -4  -3 -12   90.55    2.91
   4   3  12   91.14    2.90
  -5  -3 -12    0.99    0.52
  -5  -3 -12    1.54    0.64
  -5  -3 -12    0.85    0.76
  -5  -3 -12    1.59    0.87
   5   3  12    1.81    0.72
  -6  -3 -12   13.44    1.32
  -6  -3 -12   10.37    1.63
  -6  -3 -12   13.28    1.52
   6   3  12   11.54    1.46
  -7  -3 -12   23.26    1.95
  -7  -3 -12   26.24    2.18
  -7  -3 -12   27.12    1.69
  -8  -3 -12   16.44    1.65
  -9  -3 -12   24.97    1.97
 -10  -3 -12    5.97    1.25
 -11  -3 -12   11.95    1.69
   5  -4 -12   26.67    2.60
  -5   4  12   30.56    2.08
  -5   4  12   24.33    2.37
   4  -4 -12   46.61    2.35
   4  -4 -12   48.82    2.91
  -4   4  12   49.43    2.33
  -4   4  12   51.69    2.61
   3  -4 -12    5.48    1.21
   3  -4 -12    5.18    1.05
  -3   4  12    8.22    1.41
  -3   4  12    4.32    1.03
   2  -4 -12    1.12    0.83
   2  -4 -12   -0.19    1.54
   2  -4 -12   -0.88    0.77
  -2   4  12    0.58    1.01
  -2   4  12   -0.84    0.71
  -2   4  12    0.78    0.71
   1  -4 -12    6.50    0.92
   1  -4 -12    7.59    1.20
   1  -4 -12    5.28    0.99
  -1   4  12    7.30    1.01
  -1   4  12    6.32    1.08
  -1   4  12    6.51    0.91
   0  -4 -12   -0.21    0.76
   0  -4 -12    0.90    0.77
   0  -4 -12    0.38    0.81
   0   4  12    0.85    0.61
   0   4  12    1.16    0.76
   0   4  12    0.90    0.69
  -1  -4 -12   16.88    1.59
  -1  -4 -12   16.34    1.59
  -1  -4 -12   18.63    1.56
   1   4  12   16.72    1.30
   1   4  12   17.88    1.71
   1   4  12   18.76    1.48
  -2  -4 -12    0.74    0.71
  -2  -4 -12    0.74    0.75
  -2  -4 -12    0.45    0.69
   2   4  12    0.07    0.61
   2   4  12   -0.37    0.55
  -3  -4 -12  119.06    3.25
  -3  -4 -12  112.00    2.97
  -3  -4 -12  116.22    3.32
   3   4  12  111.40    3.23
   3   4  12  111.80    2.93
  -4  -4 -12    0.61    0.79
  -4  -4 -12   -0.04    0.54
  -4  -4 -12   -0.66    0.70
   4   4  12   -0.27    0.53
   4   4  12   -0.20    0.67
  -5  -4 -12   81.66    2.80
  -5  -4 -12   79.42    2.70
  -5  -4 -12   80.86    2.59
   5   4  12   74.33    2.88
  -6  -4 -12    1.64    0.70
  -6  -4 -12    2.55    0.93
  -6  -4 -12    2.05    0.76
   6   4  12    2.42    0.84
  -7  -4 -12   46.33    2.41
  -7  -4 -12   38.78    2.19
  -7  -4 -12   39.72    1.94
   7   4  12   42.80    2.24
  -8  -4 -12   12.05    1.59
  -9  -4 -12   70.46    2.79
 -10  -4 -12    1.34    1.05
 -11  -4 -12   18.50    2.24
   5  -5 -12   32.18    2.57
  -5   5  12   34.42    2.35
  -5   5  12   23.62    2.75
   4  -5 -12    0.94    1.17
   4  -5 -12   -0.48    1.08
  -4   5  12    1.11    1.04
  -4   5  12    2.07    0.99
   3  -5 -12    5.96    1.28
   3  -5 -12    4.27    1.06
  -3   5  12    4.50    0.97
  -3   5  12    5.84    1.10
   2  -5 -12    0.69    0.90
   2  -5 -12    1.61    1.24
   2  -5 -12   -0.06    0.84
  -2   5  12   -0.85    1.00
  -2   5  12    1.26    0.85
  -2   5  12    1.97    0.76
   1  -5 -12   22.44    1.95
   1  -5 -12   24.48    1.91
   1  -5 -12   22.66    1.72
  -1   5  12   22.40    1.88
  -1   5  12   24.84    1.58
  -1   5  12   24.10    1.71
   0  -5 -12   26.31    1.90
   0  -5 -12   26.29    1.84
   0  -5 -12   26.87    1.81
   0   5  12   27.25    1.60
   0   5  12   25.16    1.72
   0   5  12   26.32    1.69
  -1  -5 -12   66.22    2.45
  -1  -5 -12   65.35    2.42
  -1  -5 -12   69.80    2.54
   1   5  12   68.22    2.35
   1   5  12   70.02    2.35
  -2  -5 -12   29.97    1.67
  -2  -5 -12   33.40    1.86
  -2  -5 -12   36.84    1.87
   2   5  12   31.89    1.68
   2   5  12   34.07    1.62
  -3  -5 -12   72.56    2.28
  -3  -5 -12   72.60    2.52
  -3  -5 -12   78.13    2.60
   3   5  12   73.82    2.53
   3   5  12   74.36    2.29
  -4  -5 -12   71.56    2.53
  -4  -5 -12   77.28    2.60
  -4  -5 -12   69.12    2.11
   4   5  12   71.85    2.06
  -5  -5 -12   50.98    2.08
  -5  -5 -12   52.63    2.64
  -5  -5 -12   48.20    2.12
  -6  -5 -12    0.70    0.79
  -6  -5 -12    0.05    0.62
  -6  -5 -12    0.42    0.73
   6   5  12    0.82    0.71
  -7  -5 -12   -0.69    0.87
  -7  -5 -12    1.37    0.73
  -7  -5 -12   -0.63    0.94
   7   5  12   -0.83    0.69
  -8  -5 -12   14.33    1.58
   8   5  12   12.44    1.66
  -9  -5 -12    2.06    0.94
 -10  -5 -12    5.54    1.12
   5  -6 -12    1.99    1.38
  -5   6  12    0.11    1.10
  -5   6  12    1.23    1.10
   4  -6 -12    7.34    1.45
   4  -6 -12    8.76    1.66
  -4   6  12    6.94    1.14
   3  -6 -12   19.21    1.98
   3  -6 -12   17.18    2.07
  -3   6  12   18.30    1.81
  -3   6  12   13.48    2.26
   2  -6 -12    2.69    1.18
   2  -6 -12    0.39    0.85
   2  -6 -12    1.37    0.95
  -2   6  12    0.81    0.83
  -2   6  12    1.69    0.79
  -2   6  12   -1.38    1.35
   1  -6 -12    0.63    0.85
   1  -6 -12    3.47    0.96
   1  -6 -12    2.53    0.88
  -1   6  12    2.00    0.82
  -1   6  12    1.14    0.93
  -1   6  12    2.17    0.79
   0  -6 -12   40.58    2.10
   0  -6 -12   39.58    2.08
   0  -6 -12   42.09    2.20
   0   6  12   40.56    2.03
   0   6  12   42.59    1.98
   0   6  12   41.36    1.95
  -1  -6 -12    1.22    0.74
  -1  -6 -12    1.54    0.78
  -1  -6 -12    1.49    0.75
   1   6  12    0.35    0.70
   1   6  12    1.93    0.76
  -2  -6 -12   97.44    2.85
  -2  -6 -12  102.24    3.08
  -2  -6 -12   97.18    3.26
   2   6  12  103.10    2.82
   2   6  12   97.40    2.99
  -3  -6 -12    4.24    0.72
  -3  -6 -12    7.96    1.02
  -3  -6 -12    9.53    1.50
   3   6  12    6.39    0.92
   3   6  12    6.20    0.82
  -4  -6 -12  133.76    3.67
  -4  -6 -12  128.14    3.13
  -4  -6 -12  136.22    3.76
   4   6  12  134.16    3.75
   4   6  12  134.58    3.13
  -5  -6 -12   11.34    1.39
  -5  -6 -12   14.17    1.61
  -5  -6 -12    9.74    1.41
   5   6  12   12.70    1.46
  -6  -6 -12   13.70    1.72
  -6  -6 -12   14.52    1.37
  -6  -6 -12   11.39    1.54
   6   6  12   14.12    1.52
  -7  -6 -12    0.31    0.71
  -7  -6 -12    0.48    0.90
  -7  -6 -12    0.96    0.93
   7   6  12   -0.24    0.79
  -8  -6 -12   19.91    1.65
   8   6  12   19.29    1.97
  -9  -6 -12    5.02    1.10
   9   6  12    4.29    1.13
 -10  -6 -12   25.58    2.10
 -11  -6 -12   -0.09    1.19
  -5   7  12   12.71    1.62
  -5   7  12   19.27    2.26
   4  -7 -12   17.47    2.56
   4  -7 -12   22.72    2.21
  -4   7  12   14.95    2.04
  -4   7  12   16.39    1.98
   3  -7 -12    0.55    0.98
   3  -7 -12    1.77    1.13
  -3   7  12   -0.09    0.99
  -3   7  12    0.78    0.85
   2  -7 -12   31.28    2.17
   2  -7 -12   32.77    2.17
   2  -7 -12   33.01    2.50
  -2   7  12   34.83    2.05
  -2   7  12   32.52    2.04
   1  -7 -12   27.61    2.01
   1  -7 -12   25.05    2.11
   1  -7 -12   26.50    1.89
  -1   7  12   30.94    1.83
  -1   7  12   28.85    2.12
   0  -7 -12   15.15    1.68
   0  -7 -12   14.73    1.68
   0  -7 -12   12.03    2.02
   0   7  12   16.07    1.47
   0   7  12   14.80    1.51
   0   7  12   12.63    1.64
  -1  -7 -12   63.44    2.57
  -1  -7 -12   66.10    2.37
  -1  -7 -12   65.46    2.54
   1   7  12   69.25    2.43
   1   7  12   65.95    2.44
   1   7  12   54.60    3.12
  -2  -7 -12   37.94    1.97
  -2  -7 -12   38.51    2.13
  -2  -7 -12   39.18    1.76
   2   7  12   42.99    2.00
   2   7  12   41.83    1.80
  -3  -7 -12   41.73    2.02
  -3  -7 -12   43.07    2.17
  -3  -7 -12   42.38    1.69
   3   7  12   44.68    1.77
   3   7  12   44.66    2.13
  -4  -7 -12    3.86    0.92
  -4  -7 -12    3.40    0.94
  -4  -7 -12    3.19    0.58
   4   7  12    3.22    0.98
   4   7  12    3.23    0.63
  -5  -7 -12    3.73    0.99
  -5  -7 -12    4.59    0.89
  -5  -7 -12    5.40    0.96
   5   7  12    4.73    0.98
  -6  -7 -12    6.22    0.97
  -6  -7 -12    5.64    0.91
  -6  -7 -12    5.69    1.11
   6   7  12    6.17    1.10
  -7  -7 -12    2.34    1.01
  -7  -7 -12    1.02    0.75
  -7  -7 -12    1.15    1.04
   7   7  12    1.98    1.03
  -8  -7 -12    0.21    0.86
   8   7  12   -0.18    0.88
  -9  -7 -12    2.70    0.96
   9   7  12    4.45    1.14
 -10  -7 -12    0.60    0.92
 -11  -7 -12    8.04    1.34
  -5   8  12   16.70    2.41
  -5   8  12   23.01    2.49
   4  -8 -12    4.72    1.28
  -4   8  12    1.98    1.08
  -4   8  12    4.00    1.20
   3  -8 -12   33.89    2.22
   3  -8 -12   35.27    3.19
  -3   8  12   29.03    2.20
  -3   8  12   30.24    2.17
   2  -8 -12   12.67    1.70
   2  -8 -12    9.20    1.42
   2  -8 -12    9.05    1.36
  -2   8  12   10.45    1.67
  -2   8  12    8.20    1.24
   1  -8 -12   31.01    1.98
   1  -8 -12   29.44    2.28
   1  -8 -12   31.08    2.27
  -1   8  12   33.28    1.91
  -1   8  12   30.03    2.30
  -1   8  12   33.18    2.01
   0  -8 -12   14.79    1.53
   0  -8 -12   11.63    1.81
   0  -8 -12   13.82    1.76
   0   8  12   12.86    1.80
   0   8  12   12.46    1.52
   0   8  12   14.12    1.53
  -1  -8 -12   45.59    2.06
  -1  -8 -12   48.81    2.24
  -1  -8 -12   41.42    2.32
   1   8  12   41.76    2.37
   1   8  12   47.46    2.22
   1   8  12   49.39    2.20
  -2  -8 -12    0.96    0.63
  -2  -8 -12   -0.51    0.70
  -2  -8 -12   -0.48    0.83
   2   8  12   -0.26    0.76
   2   8  12   -0.04    0.66
  -3  -8 -12   28.83    1.44
  -3  -8 -12   29.96    1.80
  -3  -8 -12   28.63    2.11
   3   8  12   28.88    1.56
   3   8  12   28.19    1.77
  -4  -8 -12    2.75    0.60
  -4  -8 -12    3.07    0.94
  -4  -8 -12    3.50    0.85
   4   8  12    1.37    0.79
   4   8  12    2.62    0.64
  -5  -8 -12   38.56    2.01
  -5  -8 -12   34.40    2.66
  -5  -8 -12   37.49    2.21
   5   8  12   36.06    2.01
  -6  -8 -12   15.70    1.91
  -6  -8 -12   12.72    1.68
  -6  -8 -12   11.97    1.13
  -6  -8 -12   14.10    1.39
   6   8  12   12.39    1.67
  -7  -8 -12    1.45    0.81
  -7  -8 -12    1.06    1.02
   7   8  12    2.19    0.94
  -8  -8 -12    2.31    0.84
   8   8  12    1.89    1.01
  -9  -8 -12    6.33    1.13
   9   8  12    5.24    1.20
 -10  -8 -12    9.31    1.30
  10   8  12    8.09    1.38
 -11  -8 -12    6.97    1.48
   4  -9 -12   48.63    2.71
  -4   9  12   42.62    2.62
  -4   9  12   45.51    2.79
   3  -9 -12   56.95    2.76
  -3   9  12   66.73    2.78
  -3   9  12   61.76    2.81
   2  -9 -12    4.00    0.94
   2  -9 -12    4.05    1.31
  -2   9  12    1.54    0.95
  -2   9  12    2.20    0.97
   1  -9 -12   11.96    1.61
   1  -9 -12   10.56    1.38
   1  -9 -12    8.98    1.38
  -1   9  12   13.64    1.59
  -1   9  12   10.23    1.41
  -1   9  12   12.12    1.72
   0  -9 -12   14.59    1.54
   0  -9 -12   12.69    1.79
   0  -9 -12   11.29    1.88
   0   9  12   11.23    1.83
   0   9  12    9.78    1.55
   0   9  12   13.20    1.49
  -1  -9 -12   -0.81    0.92
  -1  -9 -12    0.57    0.70
  -1  -9 -12   -0.44    0.81
   1   9  12    0.44    0.77
   1   9  12   -0.60    0.84
   1   9  12    2.16    0.84
  -2  -9 -12   14.55    1.92
  -2  -9 -12   12.96    1.56
  -2  -9 -12   12.65    1.33
   2   9  12   14.17    1.56
   2   9  12   15.01    1.54
  -3  -9 -12    0.26    0.61
  -3  -9 -12    0.56    0.92
  -3  -9 -12   -0.70    0.73
   3   9  12    1.00    0.73
   3   9  12    1.49    0.80
  -4  -9 -12    7.70    1.27
  -4  -9 -12    6.69    1.03
  -4  -9 -12   10.84    1.09
  -4  -9 -12   10.13    1.78
   4   9  12    7.97    1.02
   4   9  12    9.64    1.41
  -5  -9 -12    5.09    1.06
  -5  -9 -12    3.15    0.54
  -5  -9 -12    2.49    1.04
   5   9  12    2.16    0.79
  -6  -9 -12    6.00    1.07
  -6  -9 -12    5.97    1.36
  -6  -9 -12    4.46    0.95
  -6  -9 -12    4.15    0.72
   6   9  12    4.29    1.04
  -7  -9 -12   10.81    1.40
  -7  -9 -12    9.81    1.39
  -7  -9 -12   14.58    1.62
   7   9  12   11.08    1.78
  -8  -9 -12    6.18    1.07
   8   9  12    4.20    1.12
  -9  -9 -12   -1.28    0.94
   9   9  12    0.14    1.04
 -10  -9 -12   32.73    2.25
  10   9  12   32.82    2.58
  -4  10  12   34.25    2.45
  -4  10  12   34.52    2.67
   3 -10 -12    3.12    1.00
  -3  10  12    3.23    1.09
  -3  10  12    2.91    1.19
   2 -10 -12   23.22    2.22
   2 -10 -12   28.44    2.64
  -2  10  12   19.70    2.02
  -2  10  12   23.54    1.98
   1 -10 -12    1.59    1.22
   1 -10 -12    0.83    0.88
  -1  10  12    2.09    0.97
  -1  10  12    1.05    0.83
   0 -10 -12    5.28    1.17
   0  10  12    4.36    0.95
   0  10  12    3.77    1.14
   0  10  12    3.64    0.94
  -1 -10 -12   -0.31    1.05
  -1 -10 -12    1.19    0.95
  -1 -10 -12    2.04    0.96
   1  10  12    0.24    0.72
   1  10  12    0.40    0.91
  -2 -10 -12    4.44    0.89
  -2 -10 -12    3.14    1.24
  -2 -10 -12    4.54    0.96
   2  10  12    3.83    0.94
   2  10  12    5.10    0.98
  -3 -10 -12    3.96    1.14
  -3 -10 -12    4.05    0.82
  -3 -10 -12    4.87    1.03
   3  10  12    4.62    0.94
   3  10  12    5.69    1.08
  -4 -10 -12   17.97    1.65
  -4 -10 -12   16.52    1.51
  -4 -10 -12   12.91    2.10
  -4 -10 -12   18.17    1.35
   4  10  12   15.24    1.48
   4  10  12   16.60    1.66
  -5 -10 -12    6.78    1.09
  -5 -10 -12    6.89    1.01
  -5 -10 -12    5.79    1.61
  -5 -10 -12    8.11    1.87
  -5 -10 -12    5.25    0.69
   5  10  12    5.67    0.82
   5  10  12    4.75    0.95
  -6 -10 -12   39.45    1.97
  -6 -10 -12   38.99    2.26
  -6 -10 -12   40.22    1.75
   6  10  12   40.60    2.33
  -7 -10 -12    1.33    0.81
  -7 -10 -12   -0.65    1.05
  -7 -10 -12   -0.04    0.84
   7  10  12    1.17    1.05
  -8 -10 -12   14.50    1.74
  -8 -10 -12   15.49    1.87
   8  10  12   15.33    1.90
  -9 -10 -12   12.09    1.93
   9  10  12   14.03    2.23
 -10 -10 -12   11.81    1.54
  10  10  12   11.58    1.72
   3 -11 -12   33.23    2.56
  -3  11  12   42.14    3.06
  -3  11  12   30.27    2.31
   2 -11 -12   33.86    2.37
   2 -11 -12   29.98    3.45
  -2  11  12   33.13    2.18
  -2  11  12   29.22    2.28
   1 -11 -12   -0.22    1.22
   1 -11 -12    1.53    1.00
  -1  11  12    0.21    0.85
  -1  11  12    0.26    0.92
   0 -11 -12   11.20    1.41
   0 -11 -12    8.17    1.17
   0  11  12   13.57    1.79
   0  11  12   13.11    2.06
   0  11  12   10.57    1.53
  -1 -11 -12    0.20    0.99
  -1 -11 -12    0.18    0.85
   1  11  12    0.46    0.84
   1  11  12    0.69    1.13
  -2 -11 -12    0.55    0.85
  -2 -11 -12   -1.49    0.93
   2  11  12   -1.40    0.95
   2  11  12    0.20    0.80
  -3 -11 -12   27.91    1.74
  -3 -11 -12   27.69    1.91
   3  11  12   23.65    1.91
   3  11  12   21.35    1.88
  -4 -11 -12   12.33    1.74
  -4 -11 -12   11.79    1.11
  -4 -11 -12   10.28    1.85
  -4 -11 -12   11.89    1.50
   4  11  12   11.09    1.58
   4  11  12   13.15    1.76
  -5 -11 -12   24.17    1.44
  -5 -11 -12   23.30    1.39
  -5 -11 -12   23.54    1.98
  -5 -11 -12   21.63    2.74
   5  11  12   19.84    1.86
  -6 -11 -12   18.30    1.54
  -6 -11 -12   20.83    2.07
  -6 -11 -12   19.43    1.67
   6  11  12   18.64    1.93
  -7 -11 -12   41.16    2.11
  -7 -11 -12   41.76    2.57
  -7 -11 -12   43.74    2.24
   7  11  12   44.09    2.60
  -8 -11 -12   13.94    1.87
  -8 -11 -12   12.84    2.03
  -9 -11 -12   16.82    2.01
   9  11  12   16.14    2.47
 -10 -11 -12    0.55    1.25
  10  11  12    2.14    1.41
   3 -12 -12   16.25    2.79
  -3  12  12   17.07    2.66
   2 -12 -12    2.44    1.88
   2 -12 -12    4.22    1.56
  -2  12  12    2.15    1.13
  -2  12  12    0.54    1.07
   1 -12 -12    6.04    1.43
   1 -12 -12    5.49    1.20
  -1  12  12    5.26    1.09
  -1  12  12    4.41    1.94
   0 -12 -12    3.03    1.25
   0 -12 -12   -0.12    0.96
   0  12  12    0.76    0.94
  -1 -12 -12    1.46    1.08
  -1 -12 -12    1.30    0.93
   1  12  12    2.66    1.26
   1  12  12    1.46    0.89
  -2 -12 -12   25.35    2.04
  -2 -12 -12   29.65    2.06
   2  12  12   28.56    2.14
   2  12  12   27.38    2.29
  -3 -12 -12   24.16    1.79
  -3 -12 -12   27.31    1.87
  -3 -12 -12   30.36    2.05
   3  12  12   25.56    2.08
   3  12  12   26.98    2.13
  -4 -12 -12   27.09    1.80
  -4 -12 -12   22.11    2.02
  -4 -12 -12   22.91    1.53
  -4 -12 -12   23.62    2.07
   4  12  12   25.74    2.09
   4  12  12   22.17    1.95
  -5 -12 -12   41.95    1.87
  -5 -12 -12   37.21    3.06
  -5 -12 -12   43.19    2.38
  -5 -12 -12   44.26    1.92
   5  12  12   41.76    2.41
   5  12  12   38.44    2.13
  -6 -12 -12   10.07    1.63
  -6 -12 -12    8.80    1.08
  -6 -12 -12    9.32    1.43
   6  12  12   12.48    1.87
  -7 -12 -12   62.40    2.67
  -7 -12 -12   64.00    2.68
  -7 -12 -12   66.98    3.13
   7  12  12   61.43    3.03
  -8 -12 -12    0.57    1.06
  -8 -12 -12    0.52    1.17
   8  12  12    2.21    1.19
  -9 -12 -12    3.04    1.28
   9  12  12    3.71    1.44
   2 -13 -12    3.99    1.38
  -2  13  12    6.28    1.49
  -2  13  12    5.65    1.24
   1 -13 -12   25.80    2.82
   1 -13 -12   20.87    2.27
  -1  13  12   25.96    2.33
   0 -13 -12    2.55    1.09
   0 -13 -12    4.74    1.36
   0  13  12    2.40    1.04
  -1 -13 -12    4.89    1.10
  -1 -13 -12    3.78    1.28
   1  13  12    4.93    1.11
  -2 -13 -12   15.74    1.97
  -2 -13 -12   16.11    2.04
  -2 -13 -12   12.08    1.68
   2  13  12   11.34    1.71
   2  13  12   14.03    1.95
  -3 -13 -12    1.09    0.94
  -3 -13 -12    0.58    1.08
  -3 -13 -12    3.27    0.99
   3  13  12   -0.82    0.98
   3  13  12   -0.25    1.24
  -4 -13 -12   32.01    2.05
  -4 -13 -12   33.70    2.25
  -4 -13 -12   31.50    2.05
   4  13  12   29.54    2.35
   4  13  12   30.60    2.34
  -5 -13 -12    7.41    1.09
  -5 -13 -12    5.85    0.96
  -5 -13 -12    7.16    1.32
   5  13  12    5.95    1.16
   5  13  12    4.59    1.11
  -6 -13 -12   27.66    2.02
  -6 -13 -12   27.08    2.10
  -6 -13 -12   32.30    2.60
   6  13  12   30.18    2.28
  -7 -13 -12    6.10    1.57
  -7 -13 -12    5.12    1.29
  -7 -13 -12    3.24    1.09
   7  13  12    5.22    1.29
  -8 -13 -12   25.91    2.23
   8  13  12   31.94    2.78
   1 -14 -12    3.60    1.25
   0 -14 -12   34.58    3.19
   0  14  12   40.55    2.74
  -1 -14 -12   -0.66    1.11
   1  14  12    2.40    1.18
  -2 -14 -12    5.26    1.25
  -2 -14 -12    2.90    1.02
   2  14  12    1.95    1.09
  -3 -14 -12   25.66    2.26
  -3 -14 -12   20.80    1.86
  -3 -14 -12   21.52    3.17
   3  14  12   16.18    2.91
   3  14  12   24.53    2.23
  -4 -14 -12   11.55    1.83
  -4 -14 -12   12.45    1.94
  -4 -14 -12   17.43    2.18
   4  14  12   17.51    2.24
   4  14  12   10.51    1.72
  -5 -14 -12    5.59    1.46
  -5 -14 -12    6.48    1.16
  -5 -14 -12    5.59    1.43
   5  14  12    5.27    1.47
   5  14  12    7.23    1.27
  -6 -14 -12   18.17    2.54
  -6 -14 -12   30.17    2.73
  -6 -14 -12   23.74    2.11
   6  14  12   23.47    2.36
  -7 -14 -12    1.82    1.13
   7  14  12    2.55    1.30
  -1 -15 -12   15.46    2.40
  -2 -15 -12    2.50    1.29
  -2 -15 -12   -1.23    1.51
   2  15  12    3.32    1.39
  -3 -15 -12   15.65    2.31
  -3 -15 -12   14.34    1.82
   3  15  12   22.11    2.41
  -4 -15 -12   -1.36    1.13
  -4 -15 -12    0.57    1.08
   4  15  12    0.04    1.36
  -5 -15 -12   24.98    2.29
  -5 -15 -12   15.72    2.08
   5  15  12   21.08    2.52
  -6 -15 -12   -1.18    1.09
   6  15  12   -0.84    1.36
   0   5 -13   10.97    1.69
  -1   5 -13    7.39    1.43
  -2   5 -13   13.93    2.17
  -3   5 -13    7.32    1.22
  -3   5 -13    6.53    1.23
  -3   5 -13    7.84    1.25
  -3   5 -13    6.97    1.15
  -4   5 -13    8.35    1.94
  -4   5 -13    4.75    1.24
  -4   5 -13    6.07    1.11
  -4   5 -13    6.93    1.26
  -5   5 -13   -0.08    1.20
  -5   5 -13   -1.16    1.11
  -5   5 -13    2.37    1.05
  -5   5 -13   -3.17    1.58
   1   4 -13    1.59    1.20
  -1  -4  13    4.51    1.28
   0   4 -13   39.02    2.61
   0  -4  13   32.58    2.47
  -1   4 -13    3.02    1.18
  -2   4 -13   21.23    1.64
  -2   4 -13   18.78    2.13
  -2   4 -13   25.42    1.91
  -3   4 -13    0.06    0.97
  -3   4 -13    0.31    0.89
  -3   4 -13    1.92    1.11
  -3   4 -13    1.15    1.05
  -4   4 -13    9.61    1.15
  -4   4 -13    9.03    1.29
  -4   4 -13    8.59    1.29
  -4   4 -13   14.64    2.15
  -5   4 -13   -1.96    0.90
  -5   4 -13   -1.70    1.01
  -5   4 -13    0.33    1.09
  -5   4 -13   -0.07    0.95
  -6   4 -13   12.48    1.53
  -6   4 -13   10.75    1.30
  -6   4 -13   11.58    2.06
  -6   4 -13    9.46    1.26
   2   3 -13    2.32    1.25
  -2  -3  13    1.61    1.16
   1   3 -13   27.65    2.46
  -1  -3  13   30.51    2.40
   0   3 -13    4.41    1.36
   0  -3  13    4.83    1.13
  -1   3 -13    2.96    1.04
  -2   3 -13    4.40    0.95
  -2   3 -13    2.31    1.01
  -2   3 -13    2.88    0.78
  -3   3 -13    4.11    0.89
  -3   3 -13    5.47    1.19
  -3   3 -13    5.69    0.97
  -4   3 -13   17.92    1.93
  -4   3 -13   14.31    1.72
  -4   3 -13   16.63    2.05
  -4   3 -13   17.35    1.82
  -4   3 -13   13.51    1.58
  -4   3 -13   13.38    2.08
  -5   3 -13    1.80    1.06
  -5   3 -13    3.64    1.07
  -5   3 -13    4.74    0.92
  -5   3 -13    3.47    1.26
  -5   3 -13    4.27    1.41
  -5   3 -13    2.63    1.04
  -6   3 -13    2.22    1.03
  -6   3 -13    2.15    0.90
  -6   3 -13    3.54    1.37
  -6   3 -13    3.20    0.92
  -6   3 -13    3.84    1.12
  -7   3 -13   23.55    2.03
  -7   3 -13   23.15    2.24
  -7   3 -13   29.72    2.17
  -7   3 -13   26.26    2.12
   3   2 -13    5.62    1.50
  -3  -2  13    2.92    1.27
   2   2 -13    3.31    1.34
   1   2 -13    0.37    1.19
  -1  -2  13    1.93    1.00
   0   2 -13    2.24    1.06
   0  -2  13    1.88    1.02
  -1   2 -13   14.27    1.95
  -2   2 -13    5.81    0.96
  -2   2 -13    3.01    1.01
  -3   2 -13   24.52    2.00
  -3   2 -13   25.81    2.38
  -3   2 -13   21.76    1.43
  -3   2 -13   22.93    1.87
  -4   2 -13    2.02    1.57
  -4   2 -13    2.12    0.92
  -4   2 -13    2.09    0.90
  -4   2 -13    0.45    0.66
  -4   2 -13    2.47    1.17
  -4   2 -13    1.56    1.05
  -5   2 -13   19.14    1.78
  -5   2 -13   18.78    1.62
  -5   2 -13   21.16    1.91
  -5   2 -13   18.52    2.22
  -5   2 -13   17.51    1.77
  -5   2 -13   24.24    2.22
  -6   2 -13   11.12    1.55
  -6   2 -13    9.82    1.25
  -6   2 -13   13.95    2.02
  -6   2 -13   13.73    1.84
  -6   2 -13    9.05    2.03
  -7   2 -13    2.22    0.98
  -7   2 -13    4.06    1.18
  -7   2 -13    2.75    1.10
  -7   2 -13    3.28    0.98
  -7   2 -13    0.80    0.92
  -8   2 -13   19.50    2.33
  -8   2 -13   21.37    2.07
  -8   2 -13   20.18    2.49
  -8   2 -13   15.36    1.80
  -3  -1  13   -2.49    1.37
   2   1 -13    2.17    1.15
  -2  -1  13    0.99    1.04
   1   1 -13    7.90    1.36
  -1  -1  13    6.42    1.15
   0   1 -13    6.63    1.20
   0  -1  13   11.43    1.73
  -1   1 -13   25.90    2.07
  -1   1 -13   27.11    1.81
   1  -1  13   23.41    1.92
  -2   1 -13   13.64    1.74
  -2   1 -13   18.70    1.54
  -2   1 -13   16.99    2.29
  -3   1 -13    5.66    0.99
  -3   1 -13    5.68    1.00
  -3   1 -13    4.88    0.65
  -3   1 -13    3.00    1.19
  -4   1 -13   24.55    1.92
  -4   1 -13   24.84    1.37
  -4   1 -13   21.85    2.02
  -4   1 -13   24.97    2.83
  -4   1 -13   23.85    2.50
  -5   1 -13   39.54    2.20
  -5   1 -13   36.20    2.24
  -5   1 -13   39.59    1.73
  -5   1 -13   39.72    2.01
  -5   1 -13   38.54    2.32
  -6   1 -13   16.47    1.79
  -6   1 -13   18.09    1.59
  -6   1 -13   17.96    1.63
  -6   1 -13   17.87    2.83
  -6   1 -13   19.34    1.84
  -7   1 -13    0.35    0.83
  -7   1 -13    0.72    0.99
  -7   1 -13   -0.01    0.82
  -7   1 -13    0.85    0.95
  -7   1 -13    1.28    0.90
  -8   1 -13   24.49    2.07
  -8   1 -13   20.57    1.63
  -8   1 -13   21.60    2.20
  -9   1 -13    3.36    1.41
  -9   1 -13    2.78    1.26
   4   0 -13    1.09    1.46
  -4   0  13    8.53    1.62
   3   0 -13    4.23    1.27
  -3   0  13    3.97    1.13
   2   0 -13   -0.93    0.99
  -2   0  13   -0.62    0.93
   1   0 -13   13.59    1.96
  -1   0  13   13.68    1.73
   0   0 -13   15.62    1.47
   0   0 -13   17.77    1.96
   0   0  13   16.89    1.78
  -1   0 -13    0.60    0.85
  -1   0 -13    1.25    0.79
  -1   0 -13    2.08    1.36
   1   0  13    0.58    0.79
  -2   0 -13   25.76    2.10
  -2   0 -13   31.89    1.67
  -2   0 -13   24.86    1.84
  -3   0 -13   47.08    2.58
  -3   0 -13   49.35    2.08
  -3   0 -13   49.32    2.19
  -4   0 -13   65.17    2.52
  -4   0 -13   67.02    2.63
  -4   0 -13   64.69    2.40
  -4   0 -13   64.50    2.76
  -4   0 -13   63.57    1.91
  -5   0 -13   18.67    2.55
  -5   0 -13   17.02    1.23
  -5   0 -13   19.08    1.61
  -5   0 -13   16.84    1.48
  -5   0 -13   19.21    1.97
  -5   0 -13   16.66    1.74
  -6   0 -13   32.27    1.69
  -6   0 -13   33.55    1.74
  -6   0 -13   31.45    2.38
  -6   0 -13   32.01    1.86
  -6   0 -13   32.67    1.93
  -7   0 -13   18.73    1.78
  -7   0 -13   16.54    1.40
  -7   0 -13   18.39    1.63
  -8   0 -13    5.74    1.23
  -9   0 -13   24.14    2.16
  -9   0 -13   29.88    2.42
   4  -1 -13    2.49    1.40
  -4   1  13    2.53    1.30
   3  -1 -13   -0.39    1.03
  -3   1  13    2.32    1.03
   2  -1 -13    0.55    1.01
  -2   1  13    2.53    0.93
   1  -1 -13    3.39    1.03
  -1   1  13    2.87    0.93
   0  -1 -13    0.45    0.95
   0  -1 -13    0.09    0.78
   0   1  13    1.66    0.87
   0   1  13    0.60    0.77
   0   1  13    1.37    1.10
  -1  -1 -13   64.19    2.83
  -1  -1 -13   62.56    2.57
  -1  -1 -13   58.79    2.26
   1   1  13   62.76    2.58
   1   1  13   62.92    2.63
   1   1  13   62.75    2.24
  -2  -1 -13   10.74    1.59
  -2  -1 -13   12.93    1.50
  -2  -1 -13   11.96    1.83
   2   1  13   12.22    1.39
  -3  -1 -13   98.19    2.96
  -3  -1 -13   94.74    2.96
  -3  -1 -13   92.68    3.25
   3   1  13   94.41    2.94
  -4  -1 -13   22.04    1.08
  -4  -1 -13   24.73    1.82
  -4  -1 -13   24.15    2.03
  -4  -1 -13   23.35    1.59
  -5  -1 -13   32.14    1.68
  -5  -1 -13   31.85    1.79
  -5  -1 -13   30.01    2.11
  -5  -1 -13   31.16    1.32
  -5  -1 -13   31.81    2.21
  -5  -1 -13   31.04    1.81
  -6  -1 -13    3.39    1.23
  -6  -1 -13    4.79    0.95
  -6  -1 -13    4.32    0.78
  -6  -1 -13    5.67    0.88
  -7  -1 -13    3.50    0.94
  -8  -1 -13    4.27    1.05
  -9  -1 -13   20.92    2.10
 -10  -1 -13   -1.39    1.17
 -10  -1 -13    1.77    1.30
   4  -2 -13    1.58    1.24
  -4   2  13    0.20    1.05
   3  -2 -13   18.57    2.35
  -3   2  13   20.48    2.01
   2  -2 -13   -1.44    0.98
  -2   2  13    0.50    0.98
   1  -2 -13    6.98    1.32
   1  -2 -13    7.45    0.96
  -1   2  13    6.04    1.18
  -1   2  13    8.58    1.31
   0  -2 -13   44.71    2.37
   0  -2 -13   42.46    2.01
   0  -2 -13   50.54    3.94
   0   2  13   45.14    2.26
   0   2  13   44.93    2.36
   0   2  13   46.10    1.88
  -1  -2 -13   97.34    3.27
  -1  -2 -13  102.36    2.98
  -1  -2 -13  101.77    3.47
   1   2  13   99.62    3.21
   1   2  13  105.26    3.01
   1   2  13   97.67    3.25
  -2  -2 -13   13.66    1.51
  -2  -2 -13   11.16    1.52
  -2  -2 -13   11.20    1.72
   2   2  13   11.03    1.54
   2   2  13   10.90    1.43
  -3  -2 -13   57.28    2.25
  -3  -2 -13   54.89    2.46
  -3  -2 -13   53.61    2.13
   3   2  13   53.82    2.22
  -4  -2 -13   15.03    1.37
  -4  -2 -13   19.50    1.67
  -4  -2 -13   16.69    1.74
   4   2  13   15.64    1.54
  -5  -2 -13   50.06    2.48
  -5  -2 -13   57.34    2.28
  -5  -2 -13   52.89    2.07
  -5  -2 -13   53.51    1.93
  -5  -2 -13   56.74    2.44
  -5  -2 -13   53.96    1.64
   5   2  13   51.72    2.35
  -6  -2 -13    1.31    0.78
  -6  -2 -13    2.33    1.10
  -6  -2 -13    1.62    0.60
  -7  -2 -13   14.09    1.56
  -8  -2 -13    1.12    0.87
  -9  -2 -13    3.57    1.19
 -10  -2 -13   14.69    2.06
  -4   3  13   27.34    2.30
   3  -3 -13   15.58    1.73
   3  -3 -13   16.40    2.23
  -3   3  13   13.92    1.99
  -3   3  13   20.58    1.58
   2  -3 -13   19.96    2.22
   2  -3 -13   24.55    1.76
  -2   3  13   24.85    1.61
  -2   3  13   24.58    2.03
   1  -3 -13    7.12    1.02
   1  -3 -13    5.87    1.27
  -1   3  13    7.39    1.10
  -1   3  13    6.91    0.99
  -1   3  13    7.87    1.55
   0  -3 -13   38.51    2.25
   0  -3 -13   35.88    1.99
   0  -3 -13   38.34    2.42
   0   3  13   38.62    2.07
   0   3  13   42.65    2.26
   0   3  13   41.99    1.85
  -1  -3 -13   -0.62    0.90
  -1  -3 -13   -0.50    0.98
  -1  -3 -13    0.46    0.78
   1   3  13    0.57    0.72
   1   3  13   -1.36    0.77
   1   3  13    0.44    0.74
  -2  -3 -13   66.57    2.41
  -2  -3 -13   64.43    2.42
  -2  -3 -13   65.95    2.66
   2   3  13   68.97    2.42
   2   3  13   66.22    2.46
  -3  -3 -13    5.10    0.87
  -3  -3 -13    3.19    0.79
  -3  -3 -13    2.40    0.95
   3   3  13    2.62    0.80
   3   3  13    2.95    0.79
  -4  -3 -13   60.22    2.08
  -4  -3 -13   59.11    2.42
  -4  -3 -13   59.83    2.51
   4   3  13   59.30    2.40
  -5  -3 -13    1.05    0.88
  -5  -3 -13    0.25    0.70
  -5  -3 -13    0.53    0.58
  -5  -3 -13    0.40    0.85
   5   3  13   -0.02    0.74
  -6  -3 -13   14.60    1.48
  -6  -3 -13   17.60    1.93
  -6  -3 -13   15.76    1.87
   6   3  13   14.45    1.61
  -7  -3 -13    1.81    0.77
  -8  -3 -13    0.82    0.89
  -9  -3 -13    6.45    1.20
 -10  -3 -13   23.82    2.22
   4  -4 -13   34.19    2.79
  -4   4  13   36.83    2.20
  -4   4  13   36.03    2.47
   3  -4 -13    5.02    1.33
   3  -4 -13    5.45    1.17
  -3   4  13    4.05    1.18
  -3   4  13    5.31    1.09
   2  -4 -13   47.16    2.65
   2  -4 -13   48.71    2.26
  -2   4  13   47.40    2.46
  -2   4  13   49.72    2.13
   1  -4 -13   -0.43    0.85
   1  -4 -13   -0.22    0.90
  -1   4  13    1.44    0.86
  -1   4  13    1.56    1.08
  -1   4  13    2.25    0.75
   0  -4 -13    0.64    1.03
   0  -4 -13    1.31    0.91
   0  -4 -13    1.22    0.90
   0   4  13    0.39    0.99
   0   4  13    1.66    0.74
   0   4  13    1.42    0.76
  -1  -4 -13   10.95    1.62
  -1  -4 -13   11.18    1.35
  -1  -4 -13   12.77    1.66
   1   4  13   16.04    1.61
   1   4  13   12.30    1.39
   1   4  13   12.22    1.52
  -2  -4 -13   19.48    1.74
  -2  -4 -13   22.50    1.66
  -2  -4 -13   21.31    1.87
   2   4  13   24.93    1.63
   2   4  13   20.48    1.60
  -3  -4 -13    1.84    0.83
  -3  -4 -13    0.38    0.86
  -3  -4 -13    1.79    0.75
   3   4  13    1.59    0.66
   3   4  13    0.90    0.73
  -4  -4 -13    4.75    0.94
  -4  -4 -13    4.62    0.78
   4   4  13    4.21    1.08
  -5  -4 -13    8.31    1.32
  -5  -4 -13   12.82    1.61
  -5  -4 -13   10.61    1.62
  -5  -4 -13    9.46    1.07
   5   4  13   11.51    1.55
  -6  -4 -13   14.41    1.78
  -6  -4 -13   10.13    1.43
  -6  -4 -13   12.71    1.86
   6   4  13   11.44    1.69
  -7  -4 -13    0.06    0.68
   7   4  13    0.61    0.84
  -8  -4 -13    1.18    0.89
  -9  -4 -13   12.04    1.83
 -10  -4 -13   13.83    2.02
   4  -5 -13    1.84    1.37
  -4   5  13    2.62    1.37
  -4   5  13    0.51    1.07
   3  -5 -13   30.00    2.32
   3  -5 -13   29.99    2.45
  -3   5  13   33.31    2.04
  -3   5  13   28.76    2.21
   2  -5 -13   11.29    1.84
   2  -5 -13    9.85    1.49
  -2   5  13   11.20    1.63
  -2   5  13    9.88    1.35
   1  -5 -13   32.61    2.07
   1  -5 -13   31.19    2.25
  -1   5  13   33.06    2.29
  -1   5  13   35.07    1.95
  -1   5  13   34.26    2.02
   0  -5 -13    0.25    0.86
   0  -5 -13   -0.87    0.82
   0  -5 -13    0.40    0.98
   0   5  13   -0.23    0.70
   0   5  13   -0.02    0.94
   0   5  13   -0.09    0.74
  -1  -5 -13    6.68    1.04
  -1  -5 -13    4.93    1.18
  -1  -5 -13    6.89    1.14
   1   5  13    5.10    0.97
   1   5  13    5.03    0.87
   1   5  13    7.46    1.09
  -2  -5 -13   -0.29    0.89
  -2  -5 -13   -0.21    0.80
  -2  -5 -13    0.83    0.80
   2   5  13    1.54    0.72
   2   5  13   -0.73    0.69
  -3  -5 -13   28.63    1.89
  -3  -5 -13   29.04    1.95
  -3  -5 -13   27.51    1.64
   3   5  13   29.82    1.85
   3   5  13   28.95    1.61
  -4  -5 -13    2.00    0.86
  -4  -5 -13    1.91    0.87
  -4  -5 -13    0.62    0.63
   4   5  13    1.86    0.86
  -5  -5 -13   12.15    1.79
  -5  -5 -13    9.90    1.40
  -5  -5 -13   11.17    1.06
  -5  -5 -13   15.86    1.69
   5   5  13   11.72    1.56
  -6  -5 -13    0.33    0.90
  -6  -5 -13    0.28    0.70
  -6  -5 -13    1.85    0.97
   6   5  13    1.41    0.85
  -7  -5 -13    4.95    0.94
   7   5  13    5.37    1.24
  -8  -5 -13    1.94    0.80
   8   5  13    0.48    0.92
  -9  -5 -13   18.47    1.87
 -10  -5 -13   -0.83    0.99
   4  -6 -13    7.27    1.47
   4  -6 -13   12.45    1.93
  -4   6  13   14.66    2.01
  -4   6  13   10.03    1.41
   3  -6 -13    3.02    1.00
   3  -6 -13    1.63    1.29
  -3   6  13    3.52    1.02
  -3   6  13    2.18    1.03
   2  -6 -13    1.47    0.99
   2  -6 -13    1.21    1.04
  -2   6  13    1.82    0.95
  -2   6  13    0.70    1.02
   1  -6 -13   11.71    1.87
   1  -6 -13   13.01    1.85
  -1   6  13   12.94    1.63
  -1   6  13   12.07    2.05
  -1   6  13   14.15    1.97
   0  -6 -13    1.74    1.04
   0  -6 -13   -0.13    0.78
   0  -6 -13    0.63    0.83
   0   6  13    0.57    0.75
   0   6  13   -0.42    0.95
   0   6  13    0.59    0.76
  -1  -6 -13   21.25    1.90
  -1  -6 -13   19.92    1.98
  -1  -6 -13   22.44    1.76
   1   6  13   20.25    1.69
   1   6  13   23.81    1.66
   1   6  13   23.00    1.75
  -2  -6 -13   14.96    1.75
  -2  -6 -13   17.52    1.77
  -2  -6 -13   16.57    1.81
   2   6  13   13.90    1.54
   2   6  13   15.38    1.47
  -3  -6 -13    1.18    0.88
  -3  -6 -13    0.05    0.86
  -3  -6 -13    0.15    0.68
   3   6  13    0.92    1.35
   3   6  13    0.67    0.69
  -4  -6 -13   51.96    1.86
  -4  -6 -13   55.11    2.39
  -4  -6 -13   58.91    2.50
   4   6  13   58.91    2.42
   4   6  13   50.71    2.76
  -5  -6 -13   18.16    1.81
  -5  -6 -13   13.77    1.66
  -5  -6 -13   17.67    1.62
   5   6  13   13.35    1.63
  -6  -6 -13   29.64    2.04
  -6  -6 -13   23.21    2.18
  -6  -6 -13   25.93    1.75
   6   6  13   24.17    1.92
  -7  -6 -13   33.28    1.91
   7   6  13   31.59    2.16
  -8  -6 -13   11.34    1.57
   8   6  13    6.71    1.30
  -9  -6 -13   26.73    2.03
   9   6  13   23.37    2.27
 -10  -6 -13   20.71    2.08
  -4   7  13   19.25    2.35
  -4   7  13   20.51    2.32
   3  -7 -13    0.96    0.98
   3  -7 -13    1.68    1.41
  -3   7  13    1.68    1.17
  -3   7  13   -0.67    0.95
   2  -7 -13   26.07    2.33
   2  -7 -13   27.74    2.20
  -2   7  13   26.76    2.05
  -2   7  13   26.34    1.95
   1  -7 -13   10.32    1.33
   1  -7 -13    7.52    1.14
  -1   7  13   11.65    1.62
  -1   7  13   10.75    1.58
   0  -7 -13   -1.16    0.94
   0  -7 -13    1.63    0.92
   0  -7 -13    2.55    1.10
   0   7  13    0.56    0.95
   0   7  13    0.09    0.83
   0   7  13   -0.30    0.78
  -1  -7 -13    0.87    0.75
  -1  -7 -13   -0.99    0.90
  -1  -7 -13    1.16    0.99
   1   7  13    0.81    0.79
   1   7  13    0.67    0.74
   1   7  13   -0.08    0.71
  -2  -7 -13    3.74    1.08
  -2  -7 -13    4.06    0.83
  -2  -7 -13    5.74    1.01
   2   7  13    3.58    0.89
   2   7  13    4.49    0.87
  -3  -7 -13    2.59    1.03
  -3  -7 -13    2.09    0.99
  -3  -7 -13    2.82    0.75
   3   7  13    3.24    0.85
   3   7  13    4.05    0.82
  -4  -7 -13   36.05    2.17
  -4  -7 -13   33.54    1.49
  -4  -7 -13   31.17    2.00
   4   7  13   33.81    1.98
  -5  -7 -13   -1.49    0.93
  -5  -7 -13   -0.23    0.81
  -5  -7 -13   -0.27    0.66
   5   7  13    0.93    0.85
  -6  -7 -13    8.94    1.21
  -6  -7 -13   17.01    2.00
  -6  -7 -13   12.91    1.49
   6   7  13   12.21    1.69
  -7  -7 -13    0.09    0.75
   7   7  13    1.52    0.93
  -8  -7 -13   34.75    2.12
   8   7  13   39.37    2.51
  -9  -7 -13    1.66    0.92
   9   7  13   -0.85    1.00
 -10  -7 -13   13.37    1.97
   4  -8 -13    3.92    1.34
  -4   8  13    0.73    1.18
  -4   8  13    2.38    1.22
   3  -8 -13    1.68    0.98
  -3   8  13   -0.33    1.00
  -3   8  13    2.99    1.20
   2  -8 -13    5.46    1.53
   2  -8 -13    5.39    1.76
  -2   8  13    4.25    1.15
  -2   8  13    4.98    1.14
   1  -8 -13    8.44    1.47
   1  -8 -13   10.36    1.73
  -1   8  13   11.86    1.72
  -1   8  13    9.05    1.25
   0  -8 -13    3.70    1.26
   0  -8 -13    2.47    1.17
   0  -8 -13    4.08    0.93
   0   8  13    2.28    0.96
   0   8  13    3.55    0.94
   0   8  13    1.18    1.03
  -1  -8 -13    3.44    1.10
  -1  -8 -13    2.93    1.04
   1   8  13    5.00    1.02
   1   8  13    4.46    0.96
   1   8  13    5.45    1.05
  -2  -8 -13   -0.41    0.92
  -2  -8 -13   -0.57    0.85
  -2  -8 -13    0.22    0.67
   2   8  13    0.89    0.80
   2   8  13    0.33    0.78
  -3  -8 -13   73.71    2.37
  -3  -8 -13   73.86    2.79
  -3  -8 -13   73.43    3.00
   3   8  13   72.61    2.73
   3   8  13   73.80    2.43
  -4  -8 -13   22.08    2.16
  -4  -8 -13   25.32    1.38
  -4  -8 -13   25.73    1.91
   4   8  13   22.98    1.57
   4   8  13   25.09    1.81
  -5  -8 -13   67.03    2.75
  -5  -8 -13   66.87    2.53
  -5  -8 -13   66.61    2.95
   5   8  13   69.76    2.77
  -6  -8 -13   32.08    2.16
  -6  -8 -13   29.21    1.39
  -6  -8 -13   28.59    1.85
   6   8  13   31.86    2.16
  -7  -8 -13   31.86    2.00
   7   8  13   36.75    2.28
  -8  -8 -13   25.61    1.90
   8   8  13   25.25    2.28
  -9  -8 -13    7.42    1.30
   9   8  13    8.87    1.56
 -10  -8 -13    0.57    1.10
  10   8  13   -1.71    1.31
  -3   9  13    8.82    1.48
   2  -9 -13    1.82    0.97
  -2   9  13    2.50    1.11
  -2   9  13    0.15    0.97
   1  -9 -13   49.66    2.58
  -1   9  13   55.09    2.51
  -1   9  13   49.66    2.48
   0  -9 -13    2.35    0.88
   0  -9 -13    0.29    1.25
   0  -9 -13    1.47    1.17
   0   9  13    1.87    0.96
   0   9  13    2.13    1.18
   0   9  13    2.57    1.00
  -1  -9 -13    7.84    1.34
  -1  -9 -13   11.54    1.48
  -1  -9 -13    7.95    1.39
   1   9  13   11.54    1.63
   1   9  13    7.52    1.19
  -2  -9 -13   -0.42    1.01
  -2  -9 -13    0.83    0.68
  -2  -9 -13   -0.55    0.91
   2   9  13   -0.74    0.81
   2   9  13    0.89    1.14
  -3  -9 -13   24.75    2.02
  -3  -9 -13   21.86    2.19
  -3  -9 -13   26.56    1.57
   3   9  13   21.58    1.68
   3   9  13   24.29    1.82
  -4  -9 -13    6.51    1.07
  -4  -9 -13    5.22    1.02
  -4  -9 -13    3.97    0.72
  -4  -9 -13    4.58    1.28
   4   9  13    5.01    0.85
   4   9  13    4.50    0.93
  -5  -9 -13   54.90    2.55
  -5  -9 -13   52.90    2.28
   5   9  13   55.66    2.57
  -6  -9 -13    1.08    1.08
  -6  -9 -13   -0.34    0.56
  -6  -9 -13    1.21    0.80
   6   9  13    0.44    0.96
  -7  -9 -13   24.76    1.89
  -7  -9 -13   22.48    1.61
   7   9  13   23.70    2.14
  -8  -9 -13   -0.34    0.92
   8   9  13   -1.80    0.99
  -9  -9 -13   19.13    1.95
   9   9  13   19.78    2.39
 -10  -9 -13    3.13    1.25
  10   9  13   -0.31    1.31
   3 -10 -13   18.78    2.28
  -3  10  13   17.78    2.17
  -3  10  13   13.85    2.16
   2 -10 -13    5.85    1.21
  -2  10  13    2.88    1.09
  -2  10  13    3.25    1.14
   1 -10 -13    5.88    1.14
  -1  10  13    6.77    1.21
  -1  10  13    8.18    1.21
   0 -10 -13   19.94    1.93
   0 -10 -13   25.01    2.36
   0  10  13   21.65    1.89
   0  10  13   22.86    1.95
  -1 -10 -13   17.23    1.73
  -1 -10 -13   17.91    2.12
   1  10  13   12.96    2.12
   1  10  13   17.49    1.79
  -2 -10 -13   10.55    1.51
  -2 -10 -13   10.58    1.37
   2  10  13    7.37    1.18
   2  10  13    7.53    1.24
  -3 -10 -13    2.28    1.06
  -3 -10 -13    2.63    0.81
   3  10  13   -0.10    0.86
   3  10  13    1.69    0.97
  -4 -10 -13   80.32    2.54
  -4 -10 -13   82.35    2.73
  -4 -10 -13   76.93    2.97
   4  10  13   78.78    3.00
   4  10  13   79.13    2.56
  -5 -10 -13    6.88    1.24
  -5 -10 -13    6.00    1.07
  -5 -10 -13    9.50    1.46
   5  10  13    6.43    1.15
   5  10  13    7.24    0.90
  -6 -10 -13   26.32    1.81
  -6 -10 -13   29.87    2.31
  -6 -10 -13   26.23    1.52
   6  10  13   27.57    2.16
  -7 -10 -13    3.77    0.97
   7  10  13    3.23    1.13
  -8 -10 -13   16.22    1.89
  -8 -10 -13   11.86    1.29
   8  10  13   17.93    2.06
  -9 -10 -13   -1.50    1.15
  -9 -10 -13   -0.59    0.94
   9  10  13   -0.83    1.24
 -10 -10 -13    5.36    1.25
  10  10  13    2.67    1.51
   2 -11 -13   15.96    2.22
  -2  11  13   12.80    1.96
  -2  11  13   12.18    2.08
   1 -11 -13   11.61    1.95
  -1  11  13    8.48    1.27
  -1  11  13    8.13    1.32
   0 -11 -13   84.54    3.16
   0 -11 -13   78.16    3.43
   0  11  13   78.42    2.92
   0  11  13   76.54    3.16
  -1 -11 -13    7.02    1.38
  -1 -11 -13    7.66    1.19
   1  11  13    6.73    1.10
   1  11  13    4.51    1.36
  -2 -11 -13    6.26    1.27
  -2 -11 -13    7.06    1.15
   2  11  13    6.92    1.29
   2  11  13    6.21    1.11
  -3 -11 -13    4.63    1.12
  -3 -11 -13    2.76    0.87
   3  11  13    0.62    1.02
   3  11  13    3.07    1.05
  -4 -11 -13   22.05    1.59
  -4 -11 -13   21.94    2.13
  -4 -11 -13   19.97    1.75
   4  11  13   22.03    1.85
   4  11  13   20.90    1.91
  -5 -11 -13    2.46    0.74
  -5 -11 -13    1.18    1.12
  -5 -11 -13    2.72    1.02
  -5 -11 -13    2.64    0.68
   5  11  13    1.71    0.91
   5  11  13    1.83    0.87
  -6 -11 -13   15.69    2.26
  -6 -11 -13   11.95    1.49
  -6 -11 -13   11.31    1.35
   6  11  13   16.47    1.99
  -7 -11 -13   -0.69    0.84
  -7 -11 -13    1.05    0.89
   7  11  13    0.86    1.04
  -8 -11 -13   11.47    1.40
  -8 -11 -13   11.42    1.34
   8  11  13   16.02    2.18
  -9 -11 -13    0.58    1.20
   9  11  13    0.59    1.49
   2 -12 -13    0.86    1.22
  -2  12  13   -0.81    1.15
  -2  12  13    0.61    1.16
   1 -12 -13   19.92    2.14
  -1  12  13   19.60    2.23
   0 -12 -13   10.69    1.88
   0 -12 -13    8.93    1.63
   0  12  13    5.62    1.40
  -1 -12 -13   14.63    1.91
  -1 -12 -13   17.54    2.35
   1  12  13   20.34    2.04
  -2 -12 -13    2.57    1.04
  -2 -12 -13    3.25    1.29
   2  12  13    2.47    1.02
   2  12  13    0.16    1.28
  -3 -12 -13   17.27    2.25
  -3 -12 -13   12.94    1.66
  -3 -12 -13    7.67    1.97
   3  12  13    9.58    1.48
   3  12  13   13.99    1.92
  -4 -12 -13    2.64    1.29
  -4 -12 -13    3.61    0.94
  -4 -12 -13    4.70    1.01
   4  12  13    2.66    1.19
   4  12  13    3.51    1.09
  -5 -12 -13   16.26    1.51
  -5 -12 -13   15.87    1.71
  -5 -12 -13   12.07    1.44
  -5 -12 -13   20.14    2.28
   5  12  13   11.06    1.92
   5  12  13   11.14    1.80
  -6 -12 -13   -0.68    1.28
  -6 -12 -13   -1.00    0.98
  -6 -12 -13   -0.85    0.81
   6  12  13    0.35    0.99
  -7 -12 -13   13.61    1.93
  -7 -12 -13   12.85    1.87
   7  12  13   16.01    2.29
  -8 -12 -13   -0.19    1.17
  -8 -12 -13   -0.47    1.88
   8  12  13   -1.10    1.08
  -9 -12 -13    4.29    1.25
   9  12  13    3.03    1.44
   1 -13 -13   16.09    2.37
  -1  13  13   16.51    2.44
   0 -13 -13    0.39    1.54
   0 -13 -13    0.77    1.09
   0  13  13    0.99    1.25
  -1 -13 -13   31.39    2.73
  -1 -13 -13   28.19    2.30
   1  13  13   28.12    2.23
  -2 -13 -13   -0.44    1.08
  -2 -13 -13    2.34    1.33
   2  13  13    2.49    1.09
  -3 -13 -13   -1.65    1.27
  -3 -13 -13   -0.14    0.97
  -3 -13 -13    0.00    1.01
   3  13  13   -0.90    1.00
   3  13  13   -2.39    1.31
  -4 -13 -13    6.12    1.46
  -4 -13 -13    4.98    1.15
  -4 -13 -13    4.39    1.17
   4  13  13    6.38    1.34
   4  13  13    3.71    1.34
  -5 -13 -13    2.58    1.06
  -5 -13 -13    1.84    0.93
  -5 -13 -13    3.59    1.37
   5  13  13    2.16    1.03
   5  13  13    1.55    1.18
  -6 -13 -13    1.43    1.43
  -6 -13 -13    1.44    1.03
   6  13  13    2.06    1.06
  -7 -13 -13   17.62    2.07
   7  13  13   13.60    2.32
  -8 -13 -13    4.78    1.35
   8  13  13    5.90    1.48
   0 -14 -13   30.88    2.65
  -1 -14 -13    1.43    1.16
   1  14  13    0.08    1.13
  -2 -14 -13    9.54    1.44
  -2 -14 -13   12.91    1.44
   2  14  13   13.93    2.19
  -3 -14 -13   -0.82    1.51
  -3 -14 -13    1.16    1.18
  -3 -14 -13    3.73    1.13
   3  14  13   -0.72    1.07
  -4 -14 -13    1.24    1.07
  -4 -14 -13    0.98    1.35
  -4 -14 -13    1.49    1.08
   4  14  13    0.37    1.29
   4  14  13   -0.11    1.39
  -5 -14 -13    0.12    1.06
  -5 -14 -13    2.42    1.15
  -5 -14 -13    0.82    1.60
   5  14  13    1.40    1.20
  -6 -14 -13    9.60    1.46
   6  14  13    8.12    1.52
  -7 -14 -13   -0.08    1.17
   7  14  13   -1.21    1.34
  -3 -15 -13    0.92    1.29
  -4 -15 -13    0.68    1.29
  -4 -15 -13    1.81    1.17
   4  15  13    1.06    1.68
  -1   4 -14    3.07    1.32
  -2   4 -14   29.56    2.62
  -3   4 -14    8.17    1.51
  -3   4 -14   11.60    1.93
  -3   4 -14    8.11    1.17
  -4   4 -14   21.78    2.05
  -4   4 -14   18.50    2.23
  -4   4 -14   23.46    2.11
   0   3 -14    3.65    1.33
   0  -3  14    0.30    1.28
  -1   3 -14   -0.35    1.18
  -2   3 -14   35.84    2.48
  -2   3 -14   34.13    1.87
  -3   3 -14   -0.52    0.92
  -3   3 -14   -0.23    1.06
  -3   3 -14   -1.33    0.83
  -4   3 -14    4.83    1.67
  -4   3 -14    3.53    1.13
  -4   3 -14    3.52    1.08
  -4   3 -14    2.25    1.10
  -5   3 -14    0.69    1.12
  -5   3 -14    0.51    0.90
  -5   3 -14   -0.74    1.09
  -5   3 -14   -1.63    0.97
  -6   3 -14   14.58    1.94
  -6   3 -14   13.98    1.96
  -6   3 -14   11.25    1.46
  -6   3 -14   13.26    2.11
   1   2 -14    6.62    1.48
  -1  -2  14    6.76    1.37
   0   2 -14   -1.37    1.11
   0  -2  14    3.67    1.15
  -1   2 -14   22.24    2.29
  -2   2 -14   18.95    2.11
  -2   2 -14   22.98    1.66
  -2   2 -14   27.43    2.18
  -3   2 -14   22.90    1.83
  -3   2 -14   25.37    2.02
  -3   2 -14   23.21    2.08
  -3   2 -14   18.99    1.53
  -4   2 -14   17.33    2.20
  -4   2 -14   10.67    1.50
  -4   2 -14   16.23    1.84
  -4   2 -14   15.77    1.98
  -4   2 -14   15.93    1.84
  -5   2 -14   14.26    2.53
  -5   2 -14   19.63    1.72
  -5   2 -14   17.97    2.12
  -5   2 -14   19.10    2.01
  -5   2 -14   22.10    1.90
  -5   2 -14   17.46    2.05
  -6   2 -14   13.47    2.10
  -6   2 -14    8.41    1.15
  -6   2 -14   10.47    1.50
  -6   2 -14    8.72    1.28
  -6   2 -14   11.26    1.92
  -7   2 -14   12.61    1.92
  -7   2 -14   15.26    2.28
  -7   2 -14   16.79    1.97
  -7   2 -14   15.40    1.71
   2   1 -14   -0.05    1.31
  -2  -1  14    5.16    1.25
   1   1 -14    5.26    1.25
  -1  -1  14    9.31    1.52
   0   1 -14   -0.74    1.04
   0  -1  14    0.09    1.08
  -1   1 -14   37.66    2.47
  -1   1 -14   39.20    2.00
  -2   1 -14    1.53    1.02
  -2   1 -14    2.24    0.96
  -3   1 -14   40.67    2.20
  -3   1 -14   41.79    2.35
  -3   1 -14   36.33    1.56
  -4   1 -14   -1.08    0.57
  -4   1 -14    0.47    1.09
  -4   1 -14   -0.22    1.19
  -4   1 -14   -0.94    0.92
  -5   1 -14   13.81    2.34
  -5   1 -14    7.19    1.13
  -5   1 -14   12.06    1.74
  -5   1 -14    9.03    1.39
  -5   1 -14    7.34    0.96
  -6   1 -14   14.96    1.82
  -6   1 -14   20.67    1.70
  -6   1 -14   19.28    2.14
  -7   1 -14    2.04    0.88
  -7   1 -14    1.42    0.94
  -7   1 -14    0.77    1.07
  -7   1 -14    2.38    1.00
  -8   1 -14   30.69    2.40
  -8   1 -14   31.51    2.55
  -8   1 -14   33.17    2.29
   3   0 -14    4.16    2.46
  -3   0  14    5.94    1.53
   2   0 -14    7.81    1.47
  -2   0  14    7.56    1.38
   1   0 -14   -0.46    1.09
  -1   0  14    1.48    1.02
   0   0 -14    5.35    1.38
   0   0  14    6.21    1.14
  -1   0 -14    0.69    0.94
  -1   0 -14    0.57    0.96
   1   0  14   -0.38    0.85
  -2   0 -14   74.96    2.98
  -2   0 -14   75.97    2.72
  -3   0 -14    0.04    0.91
  -3   0 -14    0.86    0.95
  -4   0 -14   36.35    2.43
  -4   0 -14   30.04    1.40
  -4   0 -14   31.89    2.08
  -4   0 -14   34.90    2.28
  -5   0 -14   -0.16    0.59
  -5   0 -14    0.48    0.87
  -5   0 -14   -0.85    0.80
  -5   0 -14    0.29    1.02
  -5   0 -14    2.10    1.19
  -6   0 -14   30.63    2.07
  -6   0 -14   26.86    1.86
  -6   0 -14   26.76    1.67
  -6   0 -14   29.27    1.99
  -7   0 -14    2.05    1.54
  -7   0 -14   -0.08    0.82
  -7   0 -14   -0.04    0.94
  -8   0 -14    5.80    1.21
  -9   0 -14   -0.51    1.26
   3  -1 -14   -0.60    1.45
  -3   1  14   -0.36    1.18
   2  -1 -14   29.44    2.51
  -2   1  14   33.05    2.30
   1  -1 -14   -1.50    1.04
  -1   1  14    0.04    0.90
   0  -1 -14   26.30    1.96
   0  -1 -14   29.71    2.33
   0   1  14   32.28    2.22
   0   1  14   32.14    1.73
  -1  -1 -14    0.51    0.95
  -1  -1 -14   -0.44    0.89
   1   1  14    0.43    0.87
   1   1  14    2.14    0.84
  -2  -1 -14    2.50    0.97
  -2  -1 -14    1.71    0.93
   2   1  14    1.78    0.87
  -3  -1 -14   42.79    2.13
  -3  -1 -14   34.66    2.14
  -4  -1 -14    8.96    1.58
  -5  -1 -14    8.04    1.12
  -5  -1 -14    6.97    1.04
  -5  -1 -14    5.73    1.07
  -5  -1 -14    6.23    0.99
  -5  -1 -14    8.47    1.36
  -6  -1 -14    2.29    0.94
  -6  -1 -14    2.32    0.83
  -6  -1 -14    3.32    0.69
  -6  -1 -14    2.18    0.98
  -7  -1 -14   26.12    1.98
  -7  -1 -14   26.04    1.61
  -7  -1 -14   26.05    1.88
  -8  -1 -14    3.38    1.19
  -9  -1 -14   25.96    2.31
   3  -2 -14   11.50    1.73
  -3   2  14   15.31    2.19
  -2   2  14    0.29    1.04
   1  -2 -14    8.42    1.32
   1  -2 -14   10.45    1.16
  -1   2  14   12.93    1.85
  -1   2  14   10.46    1.44
   0  -2 -14    2.20    1.09
   0  -2 -14    4.80    1.06
   0   2  14    4.62    0.92
   0   2  14    4.75    1.07
  -1  -2 -14   14.36    1.84
  -1  -2 -14   14.47    1.92
   1   2  14   15.79    1.81
   1   2  14   15.74    1.63
   1   2  14   13.85    2.11
  -2  -2 -14   38.34    2.17
  -2  -2 -14   39.74    2.21
   2   2  14   39.85    2.06
  -3  -2 -14   92.13    3.00
  -3  -2 -14   98.48    3.05
   3   2  14   89.11    3.05
  -4  -2 -14    1.79    0.79
  -4  -2 -14    2.14    1.03
   4   2  14    1.77    0.81
  -5  -2 -14   17.08    1.68
  -5  -2 -14   22.48    2.15
  -5  -2 -14   15.92    1.66
  -5  -2 -14   15.86    1.49
   5   2  14   19.44    1.82
  -6  -2 -14    4.53    0.80
  -6  -2 -14    4.59    0.98
  -6  -2 -14    6.31    0.96
  -6  -2 -14    6.87    1.10
  -7  -2 -14   16.99    1.75
  -8  -2 -14    7.99    1.22
  -9  -2 -14    7.16    1.24
   3  -3 -14   14.93    2.49
  -3   3  14   10.78    1.53
   2  -3 -14    3.41    1.34
   2  -3 -14    4.92    1.78
  -2   3  14    4.51    0.99
  -2   3  14    3.31    1.12
   1  -3 -14    8.75    1.17
   1  -3 -14   10.03    1.43
  -1   3  14   10.76    1.78
  -1   3  14   10.76    1.62
   0  -3 -14    1.84    1.11
   0  -3 -14    2.90    1.02
   0   3  14    4.77    0.97
   0   3  14    3.48    0.94
  -1  -3 -14    0.20    0.91
  -1  -3 -14   -0.29    0.89
   1   3  14    1.87    0.90
   1   3  14    2.87    0.86
   1   3  14    1.54    1.10
  -2  -3 -14    2.07    1.01
   2   3  14    2.83    1.01
   2   3  14    3.07    0.94
  -3  -3 -14   -0.16    0.80
  -3  -3 -14   -0.48    0.92
   3   3  14    1.96    0.92
  -4  -3 -14   13.81    1.51
   4   3  14   16.40    1.66
  -5  -3 -14   17.98    1.45
  -5  -3 -14   26.98    2.04
  -5  -3 -14   20.48    1.70
   5   3  14   22.81    1.88
  -6  -3 -14    1.67    0.67
  -6  -3 -14    2.06    0.76
  -6  -3 -14    3.10    0.90
   6   3  14    2.58    1.12
  -7  -3 -14    5.42    1.06
  -8  -3 -14    7.64    1.16
  -9  -3 -14   12.10    1.99
 -10  -3 -14    6.94    1.71
   3  -4 -14    0.69    1.20
  -3   4  14   -1.70    1.01
  -3   4  14    1.99    1.00
   2  -4 -14    5.34    1.23
   2  -4 -14    2.50    1.17
  -2   4  14    5.90    1.29
  -2   4  14    5.19    1.06
   1  -4 -14    3.11    1.12
   1  -4 -14    4.26    1.09
  -1   4  14    5.51    1.07
  -1   4  14    4.71    0.99
   0  -4 -14   12.02    2.00
   0  -4 -14   10.83    1.30
   0   4  14   13.86    1.76
   0   4  14   12.59    1.65
   0   4  14   12.16    1.66
  -1  -4 -14    2.46    1.02
  -1  -4 -14    3.82    1.02
   1   4  14    3.40    0.96
   1   4  14    2.95    0.96
   1   4  14    4.77    1.16
  -2  -4 -14    4.25    1.00
  -2  -4 -14    3.65    0.99
   2   4  14    2.54    0.88
   2   4  14    2.72    0.90
  -3  -4 -14    6.45    1.02
  -3  -4 -14   10.00    1.76
   3   4  14    6.22    0.98
   3   4  14    4.63    1.27
  -4  -4 -14   72.03    2.48
  -4  -4 -14   79.07    2.87
   4   4  14   74.06    2.80
  -5  -4 -14   13.46    1.30
  -5  -4 -14   13.58    1.55
  -5  -4 -14   13.39    2.02
   5   4  14   12.62    1.77
  -6  -4 -14   38.36    2.12
   6   4  14   39.65    2.35
  -7  -4 -14    4.41    1.05
   7   4  14    3.51    1.12
  -8  -4 -14   13.05    1.86
  -9  -4 -14    6.68    1.22
 -10  -4 -14   11.44    1.59
   3  -5 -14    8.68    1.61
  -3   5  14    6.41    1.33
   2  -5 -14    1.66    1.28
   2  -5 -14    4.44    1.27
  -2   5  14    4.86    1.23
   1  -5 -14    9.44    1.35
   1  -5 -14   11.14    1.55
  -1   5  14   12.31    1.75
  -1   5  14    9.64    1.22
   0  -5 -14    7.93    1.27
   0  -5 -14    6.87    1.18
   0   5  14    6.48    1.03
   0   5  14    5.57    1.06
   0   5  14    6.31    1.25
  -1  -5 -14    0.75    0.99
  -1  -5 -14    1.02    0.89
   1   5  14   -0.62    0.76
   1   5  14   -0.51    0.92
   1   5  14    1.16    0.92
  -2  -5 -14    4.93    1.12
  -2  -5 -14    2.82    0.92
   2   5  14    2.05    0.92
   2   5  14    1.62    1.51
  -3  -5 -14    6.59    1.01
  -3  -5 -14    6.08    1.42
  -3  -5 -14    7.99    1.19
   3   5  14    7.09    1.01
   3   5  14    6.60    1.05
  -4  -5 -14    6.41    0.93
  -4  -5 -14    8.26    1.23
  -4  -5 -14    8.45    1.43
   4   5  14    9.17    1.56
   4   5  14    8.54    1.43
  -5  -5 -14   21.74    1.77
  -5  -5 -14   27.75    2.15
  -5  -5 -14   18.86    1.35
   5   5  14   23.16    1.96
  -6  -5 -14   24.53    1.88
   6   5  14   21.11    1.98
  -7  -5 -14    1.85    0.89
   7   5  14    3.79    1.16
  -8  -5 -14    1.03    0.90
   8   5  14   -1.40    0.96
  -9  -5 -14    9.97    1.48
 -10  -5 -14    2.19    1.15
   3  -6 -14    3.26    1.27
  -3   6  14    2.65    1.21
  -3   6  14    3.29    1.15
   2  -6 -14    1.55    1.23
   2  -6 -14   -0.85    1.23
  -2   6  14    0.67    1.00
  -2   6  14    0.53    0.96
   1  -6 -14    8.36    1.32
   1  -6 -14    9.47    1.38
  -1   6  14    9.97    1.75
  -1   6  14    8.82    1.22
   0  -6 -14   -0.03    0.95
   0  -6 -14    0.97    1.06
   0   6  14    1.13    1.14
   0   6  14    2.22    0.90
   0   6  14    2.43    0.93
  -1  -6 -14   25.11    2.19
  -1  -6 -14   25.35    1.95
   1   6  14   28.27    1.99
   1   6  14   28.67    1.82
   1   6  14   26.92    2.08
  -2  -6 -14    2.12    0.89
  -2  -6 -14    1.97    1.26
  -2  -6 -14    3.37    1.12
   2   6  14    2.88    0.93
   2   6  14    3.92    0.87
  -3  -6 -14   27.51    2.16
  -3  -6 -14   26.90    2.25
  -3  -6 -14   28.21    1.74
   3   6  14   26.87    1.90
   3   6  14   26.16    1.77
  -4  -6 -14    4.68    1.11
  -4  -6 -14    5.84    1.30
  -4  -6 -14    5.07    0.84
   4   6  14    5.12    0.88
   4   6  14    5.80    1.07
  -5  -6 -14   99.17    3.48
  -5  -6 -14   98.93    2.61
  -5  -6 -14  103.20    3.26
   5   6  14  101.74    3.42
  -6  -6 -14   -0.17    0.78
   6   6  14   -0.13    0.86
  -7  -6 -14   21.11    1.81
   7   6  14   22.49    2.16
  -8  -6 -14    2.70    0.97
   8   6  14    2.13    1.04
  -9  -6 -14   22.60    2.10
   9   6  14   24.26    2.33
 -10  -6 -14   -1.29    1.16
   3  -7 -14    6.11    1.32
  -3   7  14    6.93    1.42
  -3   7  14    7.36    1.33
   2  -7 -14    7.00    1.60
   2  -7 -14    6.02    1.29
  -2   7  14    6.82    1.21
  -2   7  14    7.96    1.29
   1  -7 -14   36.26    2.39
   1  -7 -14   21.26    2.56
  -1   7  14   29.74    2.11
  -1   7  14   28.04    2.41
   0  -7 -14   12.22    1.85
   0  -7 -14    9.31    1.48
   0   7  14    9.14    1.69
   0   7  14   12.17    1.83
   0   7  14   12.21    1.76
  -1  -7 -14   25.60    1.92
  -1  -7 -14   26.22    2.32
   1   7  14   28.65    2.17
   1   7  14   23.43    1.89
   1   7  14   28.63    1.89
  -2  -7 -14    2.81    1.17
  -2  -7 -14    2.96    0.80
  -2  -7 -14    4.44    1.30
   2   7  14    2.45    0.89
   2   7  14    2.14    0.89
  -3  -7 -14   -1.21    1.10
  -3  -7 -14    1.05    0.72
  -3  -7 -14    0.85    0.99
   3   7  14    0.01    0.81
   3   7  14    0.77    0.79
  -4  -7 -14   37.64    2.42
  -4  -7 -14   40.84    2.46
  -4  -7 -14   37.17    1.70
   4   7  14   40.84    2.21
   4   7  14   39.46    1.87
  -5  -7 -14    3.22    0.98
   5   7  14    4.89    0.79
   5   7  14    3.64    1.03
  -6  -7 -14   23.22    1.78
   6   7  14   23.90    2.01
  -7  -7 -14   -0.32    0.81
   7   7  14    0.82    1.05
  -8  -7 -14    6.82    1.14
   8   7  14   10.98    1.60
  -9  -7 -14    0.99    1.02
   9   7  14    2.26    1.17
 -10  -7 -14    6.40    1.34
   3  -8 -14   12.89    2.31
  -3   8  14    8.41    1.37
  -3   8  14    8.06    1.37
   2  -8 -14   37.62    2.50
  -2   8  14   38.84    2.49
  -2   8  14   34.34    2.38
   1  -8 -14    1.86    1.05
  -1   8  14    1.72    1.01
  -1   8  14    2.05    1.05
   0  -8 -14   39.13    2.73
   0  -8 -14   41.52    2.39
   0   8  14   43.55    2.37
   0   8  14   44.09    2.41
  -1  -8 -14    2.02    1.23
  -1  -8 -14    2.03    0.91
   1   8  14    2.88    0.94
   1   8  14    3.69    1.11
   1   8  14    2.93    1.02
  -2  -8 -14   62.19    2.90
  -2  -8 -14   56.25    2.92
  -2  -8 -14   59.73    2.49
   2   8  14   59.00    2.61
   2   8  14   59.19    2.53
  -3  -8 -14    0.16    0.71
  -3  -8 -14    0.34    1.08
  -3  -8 -14    0.47    1.09
   3   8  14   -0.26    0.82
   3   8  14   -1.24    0.72
  -4  -8 -14   29.58    1.55
  -4  -8 -14   29.39    2.35
   4   8  14   31.27    1.77
   4   8  14   30.78    2.05
  -5  -8 -14   11.69    1.64
   5   8  14   17.89    1.89
   5   8  14   13.50    1.37
  -6  -8 -14   43.02    2.18
   6   8  14   40.63    2.42
  -7  -8 -14    2.18    1.01
   7   8  14    2.66    1.03
  -8  -8 -14   14.17    1.77
   8   8  14   15.15    2.13
  -9  -8 -14   -1.75    0.97
   9   8  14    1.04    1.24
 -10  -8 -14    4.05    1.26
   3  -9 -14   22.55    2.66
  -3   9  14   15.56    1.73
   2  -9 -14   27.74    2.31
  -2   9  14   25.01    2.25
  -2   9  14   23.99    2.18
   1  -9 -14    7.70    1.30
  -1   9  14    7.37    1.30
  -1   9  14    6.14    1.22
   0  -9 -14   12.79    1.82
   0   9  14   18.64    1.98
   0   9  14   20.23    1.94
  -1  -9 -14   16.14    1.77
   1   9  14   15.49    1.86
   1   9  14   12.22    2.15
  -2  -9 -14    5.29    1.05
  -2  -9 -14    4.59    1.32
   2   9  14    4.36    1.06
   2   9  14    5.36    1.13
  -3  -9 -14    0.05    0.74
  -3  -9 -14    1.64    1.18
   3   9  14   -0.94    0.75
   3   9  14    0.11    0.88
  -4  -9 -14    5.85    1.25
  -4  -9 -14    8.08    1.31
   4   9  14    6.54    1.05
   4   9  14    4.88    1.03
  -5  -9 -14   21.30    1.31
  -5  -9 -14   21.35    1.87
   5   9  14   20.63    1.98
   5   9  14   18.14    1.58
  -6  -9 -14    1.87    0.91
   6   9  14    1.38    1.10
  -7  -9 -14   19.46    1.57
  -7  -9 -14   19.25    1.83
   7   9  14   20.17    2.14
  -8  -9 -14    0.73    0.98
  -8  -9 -14    1.58    0.98
   8   9  14   -0.85    0.99
  -9  -9 -14   11.11    1.52
   9   9  14   17.66    2.47
   2 -10 -14   13.02    2.10
  -2  10  14    8.52    1.41
  -2  10  14   13.01    2.08
   1 -10 -14   51.02    2.61
  -1  10  14   50.10    2.68
  -1  10  14   50.71    2.67
   0 -10 -14    1.15    0.93
   0  10  14   -0.87    0.91
   0  10  14    1.21    1.08
  -1 -10 -14   24.21    1.97
   1  10  14   16.01    2.42
   1  10  14   20.84    2.00
  -2 -10 -14    3.42    0.95
  -2 -10 -14    3.03    1.33
   2  10  14    2.99    1.00
   2  10  14    0.88    1.09
  -3 -10 -14    9.54    1.40
  -3 -10 -14   13.16    1.58
   3  10  14    9.40    1.26
   3  10  14    9.99    1.76
  -4 -10 -14    2.76    1.25
  -4 -10 -14    3.92    0.81
  -4 -10 -14    3.15    0.92
   4  10  14    2.77    0.99
   4  10  14    2.71    0.90
  -5 -10 -14    0.66    0.87
   5  10  14    0.92    0.89
   5  10  14    1.89    1.04
  -6 -10 -14   11.97    1.65
   6  10  14    8.66    1.37
  -7 -10 -14   14.54    1.86
  -7 -10 -14   17.00    1.57
   7  10  14   15.09    2.12
  -8 -10 -14   -0.41    0.96
   8  10  14    2.18    1.17
  -9 -10 -14    2.15    1.20
   9  10  14    3.05    1.44
  -1  11  14    6.48    1.29
  -1  11  14    6.45    1.21
   0 -11 -14    3.56    1.03
   0  11  14    6.39    1.25
   0  11  14    4.10    1.10
  -1 -11 -14    1.74    0.98
   1  11  14    1.27    0.98
  -2 -11 -14    0.51    0.91
  -2 -11 -14   -0.64    1.39
   2  11  14    0.50    0.93
   2  11  14   -1.93    1.19
  -3 -11 -14    0.44    1.19
   3  11  14    0.94    1.02
   3  11  14   -1.23    1.09
  -4 -11 -14    4.17    0.93
  -4 -11 -14    2.30    0.99
  -4 -11 -14    1.99    1.40
   4  11  14    1.41    1.01
   4  11  14    2.94    0.98
  -5 -11 -14    7.24    1.30
   5  11  14    5.16    1.04
   5  11  14    4.84    1.17
  -6 -11 -14   18.07    1.87
   6  11  14   18.04    2.14
  -7 -11 -14    0.98    1.03
   7  11  14    1.88    1.14
  -8 -11 -14   28.68    2.33
   8  11  14   30.13    2.60
  -9 -11 -14    1.81    1.27
   9  11  14    2.56    1.85
   1 -12 -14   13.59    2.28
  -1  12  14   17.28    2.36
   0 -12 -14   23.94    2.20
   0  12  14   22.57    2.29
  -1 -12 -14    2.38    1.12
   1  12  14    2.15    1.09
  -2 -12 -14    3.15    1.12
  -2 -12 -14    0.11    1.80
   2  12  14   -0.32    1.72
   2  12  14    0.86    1.05
  -3 -12 -14   18.59    1.91
  -3 -12 -14   17.10    2.60
   3  12  14   16.41    2.10
   3  12  14   12.46    1.65
  -4 -12 -14    9.17    1.68
  -4 -12 -14    9.30    1.22
  -4 -12 -14    9.44    1.34
   4  12  14    7.95    1.37
   4  12  14   12.92    1.96
  -5 -12 -14   -0.05    0.99
  -5 -12 -14    0.12    0.83
   5  12  14   -0.35    1.04
   5  12  14    0.90    1.04
  -6 -12 -14    3.10    1.11
   6  12  14    3.74    1.13
  -7 -12 -14   10.99    1.39
   7  12  14   15.27    2.38
  -8 -12 -14   17.61    2.29
   8  12  14   20.33    2.67
   0 -13 -14    3.57    1.30
   0  13  14    3.91    1.38
  -1 -13 -14    3.95    1.22
   1  13  14    4.96    1.33
  -2 -13 -14    1.61    1.89
  -2 -13 -14    0.71    1.15
   2  13  14   -0.46    1.02
  -3 -13 -14   12.07    2.02
  -3 -13 -14   11.97    1.78
  -3 -13 -14   12.05    1.93
   3  13  14   10.33    1.79
  -4 -13 -14    2.61    1.07
  -4 -13 -14    1.08    1.06
  -4 -13 -14    0.83    1.56
   4  13  14    1.11    1.07
   4  13  14   -1.78    1.39
  -5 -13 -14    4.71    1.00
  -5 -13 -14    3.91    1.13
   5  13  14    1.34    1.17
  -6 -13 -14    0.58    1.09
   6  13  14    0.92    1.16
  -7 -13 -14   43.16    2.63
   7  13  14   42.57    3.04
  -2 -14 -14    7.15    1.38
  -2 -14 -14    9.80    1.49
  -3 -14 -14   15.65    2.14
  -3 -14 -14   18.38    2.32
  -4 -14 -14    8.51    1.99
  -4 -14 -14    5.48    1.27
   4  14  14    7.65    1.44
  -5 -14 -14   17.66    2.27
   5  14  14   21.68    2.50
  -1   2 -15    9.97    1.63
  -2   2 -15    8.22    1.42
  -3   2 -15   37.37    2.55
  -3   2 -15   39.87    2.81
  -4   2 -15   16.62    1.90
  -4   2 -15   24.40    2.67
  -4   2 -15   18.11    2.20
  -4   2 -15   22.01    2.26
  -5   2 -15    0.82    1.11
  -5   2 -15    2.59    1.18
  -5   2 -15    1.06    1.24
   0   1 -15   -2.08    1.22
   0  -1  15    3.64    1.37
  -1   1 -15    4.70    1.43
  -2   1 -15   -0.56    1.11
  -3   1 -15   20.39    2.20
  -4   1 -15   -1.81    0.96
  -4   1 -15   -0.50    0.72
  -4   1 -15    1.39    1.22
  -5   1 -15   31.00    2.31
  -5   1 -15   31.77    2.86
  -5   1 -15   28.33    1.77
  -5   1 -15   39.71    2.31
  -6   1 -15   10.34    1.45
  -6   1 -15   16.14    1.98
  -6   1 -15   18.63    2.20
  -7   1 -15   14.50    2.19
  -7   1 -15   15.28    1.96
   1   0 -15   -0.06    1.29
  -1   0  15   -0.63    1.23
   0   0 -15    5.53    1.40
   0   0  15    9.95    1.46
  -1   0 -15    2.10    1.10
  -2   0 -15    6.11    1.24
  -2   0 -15    5.94    1.28
  -3   0 -15    6.77    1.20
  -4   0 -15   23.30    2.68
  -4   0 -15   27.13    2.38
  -4   0 -15   23.65    2.13
  -5   0 -15   26.00    1.55
  -5   0 -15   27.54    2.15
  -5   0 -15   26.03    2.56
  -5   0 -15   30.64    2.18
  -6   0 -15    0.16    1.01
  -6   0 -15   -2.59    1.66
  -6   0 -15   -1.18    0.76
  -7   0 -15    5.63    0.99
  -7   0 -15    4.51    1.11
  -7   0 -15    6.76    1.20
   2  -1 -15    7.56    1.68
   1  -1 -15    2.98    1.42
  -1   1  15    4.07    1.35
   0  -1 -15    9.55    1.62
   0   1  15   10.38    1.45
  -1  -1 -15    2.95    1.19
  -1  -1 -15    2.73    1.12
   1   1  15    3.02    1.06
  -2  -1 -15    5.91    1.21
  -2  -1 -15    5.59    1.16
  -3  -1 -15    2.59    1.07
  -3  -1 -15   -1.70    0.94
  -4  -1 -15   36.50    2.51
  -4  -1 -15   29.27    2.10
  -5  -1 -15   -0.12    1.11
  -5  -1 -15   -0.53    1.07
  -5  -1 -15   -0.32    0.96
  -6  -1 -15   27.00    3.11
  -6  -1 -15   30.05    1.62
  -6  -1 -15   26.44    2.06
  -6  -1 -15   30.71    1.99
  -7  -1 -15    5.61    1.14
  -7  -1 -15    4.00    1.00
  -8  -1 -15    7.40    1.30
   2  -2 -15   11.44    1.83
  -2   2  15   14.66    2.30
   1  -2 -15    1.30    1.38
  -1   2  15    2.05    1.11
   0  -2 -15    7.07    1.43
   0  -2 -15    3.69    1.19
   0   2  15   12.13    1.97
   0   2  15    6.46    1.13
  -1  -2 -15   -0.32    1.07
  -1  -2 -15    1.33    1.11
   1   2  15    1.13    1.02
   1   2  15    0.95    0.95
  -2  -2 -15    4.53    1.20
  -2  -2 -15    4.97    1.24
   2   2  15    5.59    1.11
  -3  -2 -15   17.92    1.90
  -3  -2 -15   20.00    2.17
   3   2  15   20.19    1.86
  -4  -2 -15   13.82    2.25
   4   2  15   16.84    1.91
  -5  -2 -15   21.89    2.03
  -5  -2 -15   22.57    1.87
  -5  -2 -15   19.05    1.81
  -6  -2 -15   43.41    2.20
  -6  -2 -15   39.45    1.97
  -6  -2 -15   41.42    2.28
  -6  -2 -15   43.77    1.68
  -7  -2 -15    3.35    0.84
  -7  -2 -15    4.48    1.09
  -8  -2 -15    5.70    1.52
   2  -3 -15    6.43    1.63
  -2   3  15    9.90    1.80
  -2   3  15    6.64    1.36
   1  -3 -15   11.44    1.61
  -1   3  15   16.22    1.90
  -1   3  15   12.81    1.93
   0  -3 -15   -1.13    1.02
   0  -3 -15   -0.52    1.08
   0   3  15   -0.52    0.96
   0   3  15    1.84    1.04
  -1  -3 -15    8.06    1.31
  -1  -3 -15    8.52    1.32
   1   3  15    9.17    1.24
   1   3  15    8.92    1.27
  -2  -3 -15    0.10    0.98
  -2  -3 -15    1.16    1.09
   2   3  15    3.40    1.82
   2   3  15    0.45    1.21
  -3  -3 -15   19.22    2.12
  -3  -3 -15   15.21    1.85
   3   3  15   17.36    1.88
  -4  -3 -15    6.08    1.19
   4   3  15    5.12    1.13
  -5  -3 -15   18.29    1.63
  -5  -3 -15   21.22    1.90
   5   3  15   22.19    1.96
  -6  -3 -15   11.26    1.67
  -6  -3 -15    6.91    0.95
  -6  -3 -15    8.76    1.11
   6   3  15    6.86    1.22
  -7  -3 -15   30.95    2.11
  -8  -3 -15   -0.46    1.08
  -9  -3 -15    5.65    1.26
   2  -4 -15   22.51    2.69
  -2   4  15   25.14    2.33
  -2   4  15   18.05    2.30
   1  -4 -15   39.16    2.82
   1  -4 -15   44.58    2.66
  -1   4  15   45.07    2.59
  -1   4  15   51.38    2.46
   0  -4 -15    6.84    1.26
   0  -4 -15    8.49    1.33
   0   4  15    9.24    1.36
   0   4  15   10.47    1.35
  -1  -4 -15   12.47    2.15
  -1  -4 -15   18.66    2.19
   1   4  15   20.34    1.98
  -2  -4 -15    5.70    1.30
  -2  -4 -15    3.28    1.10
   2   4  15    4.21    1.01
   2   4  15    6.94    1.23
  -3  -4 -15   21.92    2.18
   3   4  15   19.88    2.03
   3   4  15   23.89    1.94
  -4  -4 -15   15.43    2.25
  -4  -4 -15   14.21    1.72
   4   4  15   16.73    1.90
  -5  -4 -15    4.63    0.92
  -5  -4 -15    4.95    1.07
   5   4  15    5.69    1.15
  -6  -4 -15   25.41    2.03
   6   4  15   30.37    2.22
  -7  -4 -15    6.00    1.07
   7   4  15    7.55    1.29
  -8  -4 -15    2.94    1.11
  -9  -4 -15    1.20    1.10
   2  -5 -15   57.74    3.30
  -2   5  15   61.15    3.02
  -2   5  15   60.62    2.76
   1  -5 -15    5.46    1.35
   1  -5 -15    4.22    1.46
  -1   5  15    6.42    1.23
  -1   5  15    6.41    1.28
   0  -5 -15   16.53    2.23
   0  -5 -15   22.45    2.30
   0   5  15   22.60    1.95
   0   5  15   20.49    2.09
  -1  -5 -15    1.99    1.19
  -1  -5 -15   -1.59    1.12
   1   5  15    1.01    0.92
   1   5  15   -1.17    1.27
   1   5  15    0.78    0.96
  -2  -5 -15    6.98    1.34
  -2  -5 -15    6.59    1.17
   2   5  15    6.47    1.13
   2   5  15    8.18    1.24
  -3  -5 -15    6.41    1.34
  -3  -5 -15    7.35    1.16
   3   5  15    8.51    1.19
   3   5  15   10.13    1.71
  -4  -5 -15    4.17    1.10
  -4  -5 -15    4.70    1.30
   4   5  15    2.82    0.99
   4   5  15    3.97    1.09
  -5  -5 -15   48.90    2.08
  -5  -5 -15   54.99    2.52
   5   5  15   60.08    2.75
  -6  -5 -15   24.70    2.00
   6   5  15   28.62    2.27
  -7  -5 -15   25.31    1.97
   7   5  15   24.46    2.22
  -8  -5 -15   16.05    1.95
   8   5  15   13.21    2.17
  -9  -5 -15    0.26    1.09
   2  -6 -15   10.44    1.71
  -2   6  15   10.16    1.52
   1  -6 -15   24.94    2.43
   1  -6 -15   20.39    2.59
  -1   6  15   28.53    2.16
  -1   6  15   28.54    2.20
   0  -6 -15   17.09    2.16
   0  -6 -15   14.79    2.43
   0   6  15   18.35    2.06
   0   6  15   18.32    1.91
  -1  -6 -15    1.93    1.05
  -1  -6 -15    1.73    1.27
   1   6  15    1.33    0.94
   1   6  15    3.51    1.37
  -2  -6 -15    0.43    1.14
  -2  -6 -15    0.95    0.93
   2   6  15    0.34    0.93
   2   6  15    1.12    1.11
  -3  -6 -15   22.61    2.35
  -3  -6 -15   28.12    1.93
   3   6  15   31.38    2.08
   3   6  15   27.58    2.02
  -4  -6 -15    0.76    0.77
   4   6  15    2.23    0.90
   4   6  15    1.79    0.97
  -5  -6 -15   27.16    1.97
  -5  -6 -15   27.83    1.55
   5   6  15   24.47    2.04
  -6  -6 -15   -0.95    0.82
   6   6  15    0.61    0.98
  -7  -6 -15   23.68    2.00
   7   6  15   24.55    2.31
  -8  -6 -15    4.47    1.18
   8   6  15    5.23    1.27
  -9  -6 -15    9.69    1.41
   9   6  15    6.81    1.46
   2  -7 -15    3.13    1.24
  -2   7  15    5.78    1.31
  -2   7  15    8.45    1.51
   1  -7 -15   46.03    2.72
  -1   7  15   45.26    2.62
  -1   7  15   49.49    2.67
   0  -7 -15   -1.54    1.38
   0  -7 -15    0.91    0.91
   0   7  15    0.63    1.00
   0   7  15    1.82    1.03
  -1  -7 -15    3.32    1.00
  -1  -7 -15    2.23    1.37
   1   7  15    3.74    1.09
   1   7  15    4.14    1.11
   1   7  15    5.36    1.42
  -2  -7 -15    2.44    0.94
  -2  -7 -15    0.89    1.23
   2   7  15    1.60    1.14
   2   7  15    2.37    0.97
  -3  -7 -15    0.68    0.77
   3   7  15   -0.20    0.97
   3   7  15    0.88    1.05
  -4  -7 -15   16.78    1.49
   4   7  15   20.97    1.76
   4   7  15   21.28    1.98
  -5  -7 -15    2.53    0.70
  -5  -7 -15    2.77    0.91
   5   7  15    2.28    0.98
   5   7  15    2.34    0.90
  -6  -7 -15   20.63    1.95
   6   7  15   19.82    2.07
  -7  -7 -15   18.46    1.90
   7   7  15   19.40    2.19
  -8  -7 -15    0.92    0.93
   8   7  15    2.70    1.11
  -9  -7 -15   42.46    2.63
   9   7  15   38.56    2.78
   2  -8 -15   32.13    2.62
  -2   8  15   33.09    2.50
  -2   8  15   23.35    2.41
  -1   8  15    0.94    1.18
  -1   8  15   -0.28    1.13
   0  -8 -15   30.87    2.22
   0   8  15   32.11    2.41
   0   8  15   31.65    2.35
  -1  -8 -15    5.65    1.18
   1   8  15    6.25    1.23
   1   8  15    5.79    1.14
  -2  -8 -15   16.10    1.72
   2   8  15   16.79    1.83
   2   8  15   12.66    2.08
  -3  -8 -15    1.14    0.76
   3   8  15   -0.48    0.93
   3   8  15    1.20    1.02
  -4  -8 -15   43.30    1.93
   4   8  15   44.91    2.46
   4   8  15   42.83    2.18
  -5  -8 -15    8.44    1.25
  -5  -8 -15   12.54    1.26
   5   8  15   11.81    1.56
   5   8  15    8.88    1.43
  -6  -8 -15   13.82    1.79
   6   8  15   12.70    1.92
  -7  -8 -15    4.54    1.07
   7   8  15    1.95    1.17
  -8  -8 -15   36.95    2.39
   8   8  15   36.07    2.74
  -9  -8 -15   18.33    2.34
   9   8  15   21.19    2.62
   1  -9 -15   13.34    2.06
  -1   9  15    9.12    1.43
  -1   9  15   16.09    2.19
   0  -9 -15   21.51    2.07
   0   9  15   23.64    2.27
   0   9  15   17.15    2.08
  -1  -9 -15   -0.11    0.92
   1   9  15    0.86    1.10
  -2  -9 -15    5.62    1.07
   2   9  15    4.59    1.15
   2   9  15    3.18    1.28
  -3  -9 -15    2.67    1.12
   3   9  15   -0.87    0.98
   3   9  15   -0.36    1.05
  -4  -9 -15    8.23    1.45
   4   9  15    5.74    1.25
   4   9  15    5.43    1.06
  -5  -9 -15    2.56    0.73
  -5  -9 -15    2.11    1.00
   5   9  15    1.21    1.09
   5   9  15    0.89    0.91
  -6  -9 -15   11.61    1.76
   6   9  15    6.91    1.39
  -7  -9 -15    4.50    1.05
   7   9  15    7.65    1.42
  -8  -9 -15   30.26    2.24
   8   9  15   34.35    2.76
  -9  -9 -15    0.97    1.21
   9   9  15    4.96    1.86
   1 -10 -15   40.84    2.55
  -1  10  15   40.44    2.65
  -1  10  15   34.97    2.63
   0 -10 -15    3.55    1.07
   0  10  15    0.81    1.07
   0  10  15    3.44    1.20
  -1 -10 -15   42.64    2.35
   1  10  15   41.03    2.64
  -2 -10 -15   24.90    2.03
   2  10  15   27.38    2.27
   2  10  15   26.09    2.59
  -3 -10 -15   13.34    1.72
   3  10  15   14.43    2.22
   3  10  15   11.47    1.87
  -4 -10 -15    5.68    0.98
   4  10  15    4.92    1.22
   4  10  15    3.70    1.14
  -5 -10 -15    9.83    1.32
  -5 -10 -15   11.93    1.45
   5  10  15   14.47    2.03
  -6 -10 -15    4.75    1.06
   6  10  15    5.33    1.23
  -7 -10 -15    8.38    1.20
   7  10  15   12.70    2.20
  -8 -10 -15    2.82    1.31
   8  10  15    2.40    1.25
   0 -11 -15   11.94    2.05
   0  11  15   14.69    2.10
   0  11  15   14.94    2.12
  -1 -11 -15   40.07    2.43
   1  11  15   42.19    2.63
  -2 -11 -15    4.78    1.15
   2  11  15    2.51    1.15
  -3 -11 -15   17.46    1.86
   3  11  15   12.27    1.59
   3  11  15   17.33    2.21
  -4 -11 -15    4.00    1.04
  -4 -11 -15    3.97    1.10
   4  11  15    4.07    1.22
   4  11  15    2.14    1.17
  -5 -11 -15    5.88    1.22
  -5 -11 -15    3.81    0.88
   5  11  15    3.35    1.09
  -6 -11 -15    6.61    1.24
   6  11  15    6.88    1.30
  -7 -11 -15    5.68    1.28
   7  11  15    8.17    1.49
  -8 -11 -15   30.24    2.46
   8  11  15   37.59    3.13
  -1 -12 -15   14.22    2.09
   1  12  15   15.32    2.23
  -2 -12 -15   25.47    2.19
   2  12  15   24.55    2.53
  -3 -12 -15    7.24    1.26
   3  12  15    7.06    1.34
  -4 -12 -15    9.54    1.42
   4  12  15   15.87    2.83
   4  12  15   16.35    2.10
  -5 -12 -15    1.25    1.08
  -5 -12 -15    2.24    0.97
   5  12  15   -0.18    1.11
  -6 -12 -15    5.27    1.20
   6  12  15    1.05    1.27
  -7 -12 -15    3.88    1.23
   7  12  15    5.94    1.61
  -2 -13 -15   38.73    3.34
   2  13  15   29.06    2.71
  -3 -13 -15    5.50    1.24
  -3 -13 -15    7.37    1.31
   3  13  15    5.95    1.47
  -4 -13 -15    4.87    1.25
  -4 -13 -15    6.11    1.23
   4  13  15    4.95    1.37
  -5 -13 -15    7.77    2.06
  -5 -13 -15    4.62    1.24
   5  13  15    3.51    1.31
  -6 -13 -15    0.34    1.26
  -1   0 -16    1.26    1.33
  -2   0 -16   -0.68    1.22
  -3   0 -16    6.08    1.39
  -4   0 -16   -1.50    1.12
  -5   0 -16   19.73    2.32
  -5   0 -16   27.42    2.28
  -6   0 -16   -2.39    1.07
  -6   0 -16   -0.45    1.18
   0  -1 -16    2.45    1.48
   0   1  16    0.23    1.46
  -1  -1 -16    4.34    1.40
  -2  -1 -16   -1.39    1.15
  -3  -1 -16    4.51    1.36
  -3  -1 -16    0.96    1.13
  -4  -1 -16   22.10    2.23
  -4  -1 -16   29.83    3.86
  -5  -1 -16   -0.08    1.09
  -5  -1 -16   -0.11    1.07
  -6  -1 -16   49.64    2.54
  -6  -1 -16   52.74    2.69
  -7  -1 -16    0.04    1.15
   0  -2 -16   50.34    3.08
   0   2  16   65.03    2.89
   0   2  16   59.76    3.15
  -1  -2 -16    0.59    1.21
   1   2  16    1.99    1.15
   1   2  16   -0.04    1.16
  -2  -2 -16    6.05    1.38
  -2  -2 -16    4.19    1.43
   2   2  16    5.18    1.18
  -3  -2 -16    5.19    1.38
  -3  -2 -16    6.35    1.31
   3   2  16    4.93    1.22
  -4  -2 -16   28.48    2.31
  -5  -2 -16    0.18    1.07
  -5  -2 -16    0.92    0.89
  -5  -2 -16    3.07    1.32
  -6  -2 -16   24.23    2.09
  -6  -2 -16   22.58    2.04
  -7  -2 -16    5.82    1.20
   1  -3 -16   14.96    2.08
   0  -3 -16   32.40    2.72
   0   3  16   32.94    2.57
   0   3  16   33.79    2.54
  -1  -3 -16    1.05    1.64
  -1  -3 -16   -0.92    1.16
   1   3  16    1.38    1.12
   1   3  16    3.41    1.22
  -2  -3 -16   -0.96    1.09
  -2  -3 -16    0.22    1.37
   2   3  16    0.17    1.09
  -3  -3 -16   31.18    2.65
  -3  -3 -16   27.51    2.29
   3   3  16   31.90    2.34
  -4  -3 -16   -1.04    1.00
   4   3  16    0.53    1.04
  -5  -3 -16   29.25    2.04
  -5  -3 -16   32.13    2.24
   5   3  16   33.76    2.38
  -6  -3 -16   -0.93    0.86
  -6  -3 -16    0.51    0.99
  -7  -3 -16   61.92    2.86
  -8  -3 -16    4.35    1.30
   1  -4 -16   38.16    3.02
  -1   4  16   49.34    2.82
  -1   4  16   47.88    3.69
   0  -4 -16   15.13    2.39
   0   4  16   14.74    2.27
   0   4  16   18.23    2.24
  -1  -4 -16   50.05    2.82
  -1  -4 -16   46.01    2.93
   1   4  16   52.59    2.66
   1   4  16   58.05    2.83
  -2  -4 -16   -0.84    1.29
  -2  -4 -16   -0.25    1.17
   2   4  16    1.57    1.17
  -3  -4 -16   13.32    2.07
  -3  -4 -16   15.72    1.81
   3   4  16   17.88    2.16
  -4  -4 -16   -1.36    1.23
   4   4  16   -0.72    1.04
  -5  -4 -16   24.53    1.94
  -5  -4 -16   32.96    2.18
   5   4  16   30.77    2.36
  -6  -4 -16    0.30    0.81
  -6  -4 -16   -1.67    0.85
   6   4  16   -0.30    1.00
  -7  -4 -16   17.14    2.04
  -8  -4 -16    1.26    1.09
   1  -5 -16   -0.40    1.37
  -1   5  16    0.88    1.32
  -1   5  16    1.35    1.29
   0  -5 -16   59.02    3.16
   0  -5 -16   63.43    3.17
   0   5  16   65.79    3.15
   0   5  16   70.65    3.07
  -1  -5 -16   10.17    1.58
  -1  -5 -16    7.93    1.61
   1   5  16    9.65    1.45
   1   5  16   13.61    2.01
  -2  -5 -16    2.96    1.25
  -2  -5 -16    3.89    1.40
   2   5  16    4.14    1.15
  -3  -5 -16    1.30    1.06
   3   5  16    0.50    1.26
   3   5  16    2.32    1.04
  -4  -5 -16    6.09    1.13
   4   5  16    4.51    1.21
  -5  -5 -16   -0.11    0.90
  -5  -5 -16    1.49    1.02
   5   5  16    1.81    1.06
  -6  -5 -16   13.14    1.85
   6   5  16   14.96    2.17
  -7  -5 -16    3.34    1.17
   7   5  16    0.66    1.19
  -8  -5 -16   15.98    2.20
   8   5  16   18.82    2.48
   1  -6 -16   13.14    1.88
  -1   6  16   16.74    2.28
  -1   6  16   14.61    2.36
   0  -6 -16   47.74    2.88
   0   6  16   52.01    2.91
   0   6  16   56.25    2.77
  -1  -6 -16    0.72    1.12
   1   6  16    1.52    1.06
   1   6  16    1.99    1.15
  -2  -6 -16   26.80    2.28
   2   6  16   27.67    2.30
   2   6  16   26.48    3.34
  -3  -6 -16   17.87    1.95
   3   6  16   15.27    2.27
   3   6  16   13.27    2.06
   4   6  16    5.80    1.25
   4   6  16    4.21    1.27
  -5  -6 -16    0.15    0.98
  -5  -6 -16    0.69    0.77
   5   6  16   -1.00    1.00
  -6  -6 -16   15.73    1.90
   6   6  16   19.52    2.26
  -7  -6 -16    2.58    1.00
   7   6  16   -1.87    1.10
  -8  -6 -16    7.87    1.31
   8   6  16    5.52    1.29
  -1   7  16    9.20    1.52
  -1   7  16   10.03    1.52
   0  -7 -16   -0.47    1.06
   0   7  16    0.22    1.11
   0   7  16    0.16    1.09
  -1  -7 -16   23.77    2.19
   1   7  16   22.28    2.20
   1   7  16   23.06    2.22
  -2  -7 -16   14.99    1.98
   2   7  16   15.36    2.09
   2   7  16   11.87    2.02
  -3  -7 -16    1.04    0.89
   3   7  16    0.45    1.08
   3   7  16    1.77    1.26
  -4  -7 -16    5.46    1.06
   4   7  16    3.52    1.16
   4   7  16    3.82    1.30
  -5  -7 -16    8.45    1.19
   5   7  16    9.29    1.39
   5   7  16    9.17    1.30
  -6  -7 -16    0.31    1.03
   6   7  16   -0.57    1.08
  -7  -7 -16   16.82    1.95
   7   7  16   16.24    2.38
   8   7  16    0.68    1.44
   0   8  16    5.53    1.32
   0   8  16    6.04    1.34
  -1  -8 -16   34.40    2.32
   1   8  16   41.02    2.51
  -2  -8 -16    3.28    1.09
   2   8  16    3.94    1.16
  -3  -8 -16   28.82    1.97
   3   8  16   23.79    2.21
   3   8  16   23.22    2.49
  -4  -8 -16    2.54    0.90
   4   8  16    2.97    1.20
   4   8  16    2.41    1.15
  -5  -8 -16    7.87    1.35
   5   8  16    6.90    1.16
   5   8  16    8.74    1.53
  -6  -8 -16    5.15    1.21
   6   8  16    4.13    1.30
  -7  -8 -16    4.40    1.13
   7   8  16    1.41    1.19
  -8  -8 -16   29.14    2.58
   8   8  16   37.37    2.98
   0   9  16    2.72    1.27
   0   9  16    5.84    1.39
  -1  -9 -16    2.63    1.11
   1   9  16    1.39    1.23
  -2  -9 -16   21.23    1.97
   2   9  16   19.94    2.13
  -3  -9 -16   17.21    1.86
   3   9  16   11.16    1.97
   3   9  16   16.07    2.41
  -4  -9 -16   15.61    1.71
   4   9  16   14.11    2.30
   4   9  16   15.22    2.15
  -5  -9 -16    0.48    0.98
   5   9  16   -0.60    1.14
  -6  -9 -16   17.55    2.03
   6   9  16   15.09    2.25
  -7  -9 -16    0.41    1.09
   7   9  16   -0.03    1.31
  -8  -9 -16   56.25    3.04
   8   9  16   65.20    4.00
   0  10  16   11.30    1.55
   0  10  16   13.04    1.68
  -1 -10 -16   23.31    2.09
   1  10  16   17.53    2.27
  -2 -10 -16   42.12    2.36
   2  10  16   41.70    2.79
  -3 -10 -16    2.88    1.08
   3  10  16    0.90    1.05
   3  10  16    1.80    1.40
  -4 -10 -16   32.57    2.44
   4  10  16   31.24    2.51
   4  10  16   28.55    2.43
  -5 -10 -16    3.00    1.03
  -5 -10 -16    3.23    0.89
   5  10  16    4.97    1.28
  -6 -10 -16    3.43    1.18
   6  10  16    3.84    1.37
  -7 -10 -16    7.55    1.27
  -1 -11 -16   12.14    2.10
   1  11  16    7.39    1.47
  -2 -11 -16    3.09    1.21
   2  11  16    0.37    1.30
  -3 -11 -16   44.10    2.44
   3  11  16   46.80    2.73
   3  11  16   33.94    3.16
  -4 -11 -16    3.51    1.12
  -4 -11 -16    0.84    1.12
   4  11  16    0.67    1.15
  -5 -11 -16   15.61    1.76
  -5 -11 -16   11.36    1.51
   5  11  16   15.12    2.32
  -6 -11 -16    0.37    1.26
   6  11  16    2.65    1.30
  -7 -11 -16   21.38    2.30
  -3 -12 -16   36.80    2.46
   3  12  16   33.65    2.86
  -4 -12 -16    6.61    1.43
   4  12  16    7.90    1.44
  -5 -12 -16    9.04    1.38
   5  12  16    6.65    1.41
  -3  -2 -17   -1.72    1.69
  -4  -2 -17   -0.79    1.26
  -5  -2 -17   -1.25    1.17
  -2  -3 -17   13.64    2.35
   2   3  17   20.58    2.41
   3   3  17   -2.40    1.19
  -4  -3 -17   -0.65    1.21
   4   3  17    4.12    1.40
  -5  -3 -17   -1.39    1.09
  -5  -3 -17   -1.76    1.07
  -6  -3 -17   17.43    2.62
  -1  -4 -17    6.16    1.46
   1   4  17    8.06    1.60
  -2  -4 -17    5.70    1.32
   2   4  17    7.25    1.52
  -3  -4 -17    3.32    1.25
   3   4  17    2.77    1.32
  -4  -4 -17   13.86    2.18
   4   4  17   20.36    2.41
  -5  -4 -17    2.42    1.28
   5   4  17    1.33    1.26
  -6  -4 -17    3.31    1.23
   6   4  17    3.16    1.47
  -1  -5 -17    6.70    1.44
   1   5  17   10.59    1.55
  -2  -5 -17    6.25    1.36
   2   5  17    5.85    1.31
  -3  -5 -17   22.21    2.36
   3   5  17   23.59    2.41
  -4  -5 -17   -0.14    1.07
   4   5  17   -0.20    1.21
  -5  -5 -17   16.53    2.14
  -5  -5 -17   13.66    1.97
   5   5  17   17.57    2.35
  -6  -5 -17    2.72    1.16
  -7  -5 -17   28.05    3.85
   7   5  17   18.53    2.53
  -1  -6 -17    5.79    1.37
   1   6  17    5.97    1.50
  -2  -6 -17   23.92    2.36
   2   6  17   21.44    2.39
  -3  -6 -17   15.83    2.17
   3   6  17   13.84    2.22
  -4  -6 -17    7.25    1.23
   4   6  17    3.51    1.63
   4   6  17    5.28    1.37
  -5  -6 -17    8.05    1.42
  -5  -6 -17    7.90    1.13
   5   6  17    9.82    1.52
  -6  -6 -17    7.37    1.41
   6   6  17    7.11    1.56
  -7  -6 -17    3.17    1.83
   7   6  17    4.29    1.42
  -1  -7 -17    5.63    1.30
   1   7  17    4.31    1.44
  -2  -7 -17    6.00    1.17
   2   7  17    4.57    1.40
  -3  -7 -17   24.86    2.19
   3   7  17   22.66    3.52
   3   7  17   25.69    2.51
  -4  -7 -17   26.19    2.01
   4   7  17   19.74    2.32
   4   7  17   21.92    3.57
  -5  -7 -17    7.09    1.34
  -5  -7 -17    9.92    1.58
   5   7  17    4.24    1.27
  -6  -7 -17    6.58    1.31
  -7  -7 -17    6.51    1.47
   7   7  17    7.29    1.81
  -1  -8 -17   31.31    2.37
   1   8  17   27.73    2.54
  -2  -8 -17    0.30    1.16
   2   8  17    2.84    1.26
  -3  -8 -17   36.66    2.31
   3   8  17   35.60    2.64
   3   8  17   35.77    4.23
  -4  -8 -17    2.16    0.93
   4   8  17    2.72    1.29
  -5  -8 -17   25.31    1.70
   5   8  17   21.16    2.37
  -6  -8 -17    2.66    1.20
   6   8  17    1.27    1.44
  -7  -8 -17    2.98    1.36
   7   8  17    5.20    1.55
  -2  -9 -17   21.91    2.18
   2   9  17   14.58    2.30
   3   9  17    3.66    1.27
  -4  -9 -17   26.56    1.94
   4   9  17   31.02    2.64
  -5  -9 -17   27.82    2.44
  -5  -9 -17   23.26    2.44
   5   9  17   25.18    2.63
  -6  -9 -17    2.72    1.34
   6   9  17    3.77    1.49
  -3 -10 -17    1.36    1.09
   3  10  17    0.79    1.17
  -4 -10 -17   28.67    2.12
   4  10  17   20.44    2.63
  -5 -10 -17    4.69    1.39
   5  10  17    6.29    1.62
  -6 -10 -17    3.68    1.31
   6  10  17    3.77    2.00
   0   0   0    0.00    0.00
;
_shelx_hkl_checksum              30113
_olex2_exptl_crystal_mounting_method 'MiTeGen MicroLoop'
_olex2_submission_special_instructions 'No special instructions were received'
loop_
_space_group_symop_operation_xyz
'x, y, z'
'-x, -y, -z'
loop_
_atom_site_label
_atom_site_type_symbol
_atom_site_fract_x
_atom_site_fract_y
_atom_site_fract_z
_atom_site_U_iso_or_equiv
_atom_site_adp_type
_atom_site_occupancy
_atom_site_site_symmetry_order
_atom_site_calc_flag
_atom_site_refinement_flags_posn
_atom_site_refinement_flags_adp
_atom_site_refinement_flags_occupancy
_atom_site_disorder_assembly
_atom_site_disorder_group
Ru1 Ru 0.25428(2) 0.13500(2) 0.38965(2) 0.01107(6) Uani 1 1 d . . . . .
Cl1 Cl 0.13440(8) 0.18208(6) 0.56068(6) 0.01906(14) Uani 1 1 d . . . . .
O1 O 0.1940(2) -0.03413(16) 0.50184(16) 0.0141(4) Uani 1 1 d . . . . .
N1 N 0.0268(3) 0.13494(19) 0.38786(18) 0.0122(4) Uani 1 1 d . . . . .
C1 C 0.4725(3) 0.2097(2) 0.3613(2) 0.0167(5) Uani 1 1 d . . . . .
C2 C 0.5076(3) 0.0981(2) 0.3521(2) 0.0163(5) Uani 1 1 d . . . . .
H2 H 0.566(4) 0.043(3) 0.396(3) 0.016(8) Uiso 1 1 d . . . . .
C3 C 0.4502(3) 0.0679(3) 0.2808(2) 0.0173(6) Uani 1 1 d . . . . .
H3 H 0.465(4) -0.007(3) 0.282(3) 0.015(8) Uiso 1 1 d . . . . .
C4 C 0.3621(3) 0.1506(2) 0.2120(2) 0.0164(5) Uani 1 1 d . . . . .
C5 C 0.3286(3) 0.2642(2) 0.2210(2) 0.0168(6) Uani 1 1 d . . . . .
H5 H 0.265(4) 0.317(3) 0.181(3) 0.020(8) Uiso 1 1 d . . . . .
C6 C 0.3792(3) 0.2930(3) 0.2950(2) 0.0182(6) Uani 1 1 d . . . . .
H6 H 0.345(4) 0.359(3) 0.308(3) 0.019(8) Uiso 1 1 d . . . . .
C7 C 0.5215(4) 0.2404(3) 0.4423(3) 0.0215(6) Uani 1 1 d . . . . .
H7A H 0.437(5) 0.262(3) 0.493(3) 0.029(10) Uiso 1 1 d . . . . .
H7B H 0.581(5) 0.178(4) 0.481(4) 0.043(12) Uiso 1 1 d . . . . .
H7C H 0.584(6) 0.307(4) 0.399(4) 0.059(14) Uiso 1 1 d . . . . .
C8 C 0.3043(4) 0.1234(3) 0.1319(2) 0.0217(6) Uani 1 1 d . . . . .
H8 H 0.218(4) 0.179(3) 0.122(3) 0.029(10) Uiso 1 1 d . . . . .
C9 C 0.2554(4) -0.0009(3) 0.1759(3) 0.0297(7) Uani 1 1 d . . . . .
H9A H 0.182(4) -0.019(3) 0.246(3) 0.030(10) Uiso 1 1 d . . . . .
H9B H 0.343(4) -0.063(3) 0.186(3) 0.028(9) Uiso 1 1 d . . . . .
H9C H 0.209(5) -0.017(4) 0.127(4) 0.047(12) Uiso 1 1 d . . . . .
C10 C 0.4314(4) 0.1505(3) 0.0175(3) 0.0290(7) Uani 1 1 d . . . . .
H10A H 0.457(4) 0.231(3) -0.006(3) 0.031(10) Uiso 1 1 d . . . . .
H10B H 0.525(5) 0.097(4) 0.026(3) 0.038(11) Uiso 1 1 d . . . . .
H10C H 0.397(5) 0.135(4) -0.038(4) 0.044(12) Uiso 1 1 d . . . . .
C11 C 0.0496(3) -0.0466(2) 0.5317(2) 0.0116(5) Uani 1 1 d . . . . .
C12 C -0.0515(3) 0.2228(2) 0.3131(2) 0.0130(5) Uani 1 1 d . . . . .
C13 C -0.1190(3) 0.1906(2) 0.2510(2) 0.0148(5) Uani 1 1 d . . . . .
H13 H -0.112(4) 0.115(3) 0.258(3) 0.016(8) Uiso 1 1 d . . . . .
C14 C -0.1890(3) 0.2764(3) 0.1740(2) 0.0179(6) Uani 1 1 d . . . . .
H14 H -0.236(4) 0.252(3) 0.132(3) 0.024(9) Uiso 1 1 d . . . . .
C15 C -0.1911(3) 0.3935(2) 0.1604(2) 0.0200(6) Uani 1 1 d . . . . .
C16 C -0.1236(3) 0.4257(3) 0.2218(3) 0.0216(6) Uani 1 1 d . . . . .
H16 H -0.126(4) 0.505(3) 0.213(3) 0.020(8) Uiso 1 1 d . . . . .
C17 C -0.0532(3) 0.3400(2) 0.2985(2) 0.0169(5) Uani 1 1 d . . . . .
H17 H -0.007(4) 0.360(3) 0.338(3) 0.011(7) Uiso 1 1 d . . . . .
C18 C -0.2685(4) 0.4856(3) 0.0786(3) 0.0317(7) Uani 1 1 d . . . . .
F1B F -0.196(3) 0.5851(14) 0.0242(17) 0.047(3) Uani 0.62(5) 1 d . . P A 2
F2B F -0.267(4) 0.4492(14) -0.0068(16) 0.080(4) Uani 0.62(5) 1 d . . P A 2
F3B F -0.4103(13) 0.5112(19) 0.1281(16) 0.069(4) Uani 0.62(5) 1 d . . P A 2
Cl1S Cl -0.31366(15) 0.29120(11) 0.60497(12) 0.0628(3) Uani 1 1 d . . . . .
Cl2S Cl -0.20520(12) 0.52190(8) 0.50808(10) 0.0490(3) Uani 1 1 d . . . . .
Cl3S Cl -0.19232(16) 0.37411(12) 0.73274(10) 0.0631(4) Uani 1 1 d . . . . .
C1S C -0.1802(4) 0.3773(3) 0.5983(3) 0.0277(7) Uani 1 1 d . . . . .
H1S H -0.080(4) 0.342(3) 0.567(3) 0.019(8) Uiso 1 1 d . . . . .
Cl4S Cl 0.30933(12) 0.25332(9) -0.25596(7) 0.0391(2) Uani 1 1 d . . . . .
Cl5S Cl 0.02800(11) 0.22932(8) -0.07049(7) 0.0370(2) Uani 1 1 d . . . . .
Cl6S Cl 0.18156(11) 0.02712(7) -0.12966(7) 0.03394(19) Uani 1 1 d . . . . .
C2S C 0.1381(4) 0.1798(3) -0.1829(3) 0.0262(7) Uani 1 1 d . . . . .
H2S H 0.078(4) 0.193(3) -0.233(3) 0.034(10) Uiso 1 1 d . . . . .
F1A F -0.184(4) 0.571(3) 0.011(3) 0.056(6) Uani 0.38(5) 1 d . . P A 1
F2A F -0.326(4) 0.452(2) 0.025(3) 0.066(5) Uani 0.38(5) 1 d . . P A 1
F3A F -0.398(3) 0.543(3) 0.132(2) 0.064(5) Uani 0.38(5) 1 d . . P A 1
loop_
_atom_site_aniso_label
_atom_site_aniso_U_11
_atom_site_aniso_U_22
_atom_site_aniso_U_33
_atom_site_aniso_U_23
_atom_site_aniso_U_13
_atom_site_aniso_U_12
Ru1 0.01049(10) 0.01100(10) 0.00879(10) -0.00066(7) -0.00254(7) -0.00072(7)
Cl1 0.0187(3) 0.0245(4) 0.0142(3) -0.0092(3) -0.0017(3) -0.0026(3)
O1 0.0115(9) 0.0126(9) 0.0133(9) 0.0006(7) -0.0041(7) -0.0005(7)
N1 0.0124(10) 0.0106(10) 0.0119(10) -0.0007(8) -0.0056(9) -0.0003(8)
C1 0.0100(12) 0.0208(14) 0.0147(13) -0.0034(11) 0.0010(10) -0.0054(10)
C2 0.0106(12) 0.0196(14) 0.0145(13) -0.0031(11) -0.0032(10) 0.0013(10)
C3 0.0149(13) 0.0172(14) 0.0151(13) -0.0046(11) -0.0008(11) 0.0002(10)
C4 0.0135(13) 0.0218(14) 0.0082(12) -0.0022(10) 0.0008(10) -0.0023(10)
C5 0.0143(13) 0.0172(13) 0.0089(12) 0.0042(10) -0.0007(10) -0.0023(10)
C6 0.0146(13) 0.0159(14) 0.0182(14) -0.0024(11) -0.0001(11) -0.0041(10)
C7 0.0153(14) 0.0263(16) 0.0236(15) -0.0087(13) -0.0060(12) -0.0021(12)
C8 0.0196(14) 0.0297(16) 0.0160(14) -0.0097(12) -0.0056(12) 0.0022(12)
C9 0.0353(19) 0.0351(19) 0.0220(17) -0.0123(14) -0.0066(15) -0.0085(15)
C10 0.0326(18) 0.036(2) 0.0145(15) -0.0090(14) -0.0052(13) 0.0026(15)
C11 0.0127(12) 0.0118(12) 0.0099(12) -0.0033(10) -0.0041(10) 0.0003(9)
C12 0.0113(12) 0.0128(12) 0.0109(12) -0.0007(10) -0.0029(10) 0.0002(9)
C13 0.0145(13) 0.0133(13) 0.0131(13) -0.0020(10) -0.0031(10) -0.0004(10)
C14 0.0155(13) 0.0240(15) 0.0105(12) -0.0015(11) -0.0041(11) -0.0019(11)
C15 0.0201(14) 0.0167(14) 0.0153(13) 0.0045(11) -0.0079(11) -0.0002(11)
C16 0.0214(15) 0.0127(14) 0.0266(16) -0.0007(11) -0.0102(12) 0.0006(11)
C17 0.0168(13) 0.0169(13) 0.0169(13) -0.0035(11) -0.0071(11) -0.0022(10)
C18 0.0296(17) 0.0278(17) 0.0298(17) 0.0060(13) -0.0181(14) -0.0017(13)
F1B 0.053(5) 0.023(3) 0.052(7) 0.016(3) -0.033(5) -0.008(2)
F2B 0.152(12) 0.049(4) 0.066(6) -0.019(4) -0.092(8) 0.035(7)
F3B 0.021(3) 0.052(7) 0.075(5) 0.036(4) -0.014(2) 0.009(3)
Cl1S 0.0637(7) 0.0554(7) 0.0750(8) -0.0046(6) -0.0336(7) -0.0314(6)
Cl2S 0.0430(5) 0.0256(5) 0.0556(6) -0.0022(4) -0.0042(5) 0.0043(4)
Cl3S 0.0750(8) 0.0809(9) 0.0495(6) -0.0392(6) -0.0369(6) 0.0275(7)
C1S 0.0254(17) 0.0254(16) 0.0329(18) -0.0103(14) -0.0103(14) 0.0007(13)
Cl4S 0.0459(5) 0.0475(5) 0.0219(4) -0.0060(4) -0.0051(4) -0.0208(4)
Cl5S 0.0452(5) 0.0384(5) 0.0264(4) -0.0169(4) -0.0065(4) 0.0035(4)
Cl6S 0.0388(5) 0.0298(4) 0.0314(4) -0.0118(3) -0.0073(4) -0.0011(3)
C2S 0.0309(17) 0.0302(17) 0.0184(15) -0.0092(13) -0.0086(13) -0.0003(13)
F1A 0.041(6) 0.057(12) 0.030(6) 0.037(8) -0.018(5) -0.014(8)
F2A 0.095(12) 0.040(6) 0.086(12) -0.005(7) -0.083(10) 0.009(7)
F3A 0.056(8) 0.040(10) 0.054(6) 0.010(6) -0.009(5) 0.025(6)
loop_
_atom_type_symbol
_atom_type_description
_atom_type_scat_dispersion_real
_atom_type_scat_dispersion_imag
_atom_type_scat_source
C C 0.0033 0.0016 'International Tables Vol C Tables 4.2.6.8 and 6.1.1.4'
H H 0.0000 0.0000 'International Tables Vol C Tables 4.2.6.8 and 6.1.1.4'
Cl Cl 0.1484 0.1585 'International Tables Vol C Tables 4.2.6.8 and 6.1.1.4'
F F 0.0171 0.0103 'International Tables Vol C Tables 4.2.6.8 and 6.1.1.4'
N N 0.0061 0.0033 'International Tables Vol C Tables 4.2.6.8 and 6.1.1.4'
O O 0.0106 0.0060 'International Tables Vol C Tables 4.2.6.8 and 6.1.1.4'
Ru Ru -1.2594 0.8363 'International Tables Vol C Tables 4.2.6.8 and 6.1.1.4'
loop_
_geom_angle_atom_site_label_1
_geom_angle_atom_site_label_2
_geom_angle_atom_site_label_3
_geom_angle
_geom_angle_site_symmetry_1
_geom_angle_site_symmetry_3
_geom_angle_publ_flag
O1 Ru1 Cl1 82.25(5) . . ?
O1 Ru1 N1 77.77(8) . . ?
O1 Ru1 C1 123.81(9) . . ?
O1 Ru1 C2 96.92(9) . . ?
O1 Ru1 C3 92.32(9) . . ?
O1 Ru1 C4 115.02(9) . . ?
O1 Ru1 C5 152.50(10) . . ?
O1 Ru1 C6 161.74(9) . . ?
N1 Ru1 Cl1 85.46(6) . . ?
N1 Ru1 C1 157.45(9) . . ?
N1 Ru1 C2 159.40(10) . . ?
N1 Ru1 C3 121.64(10) . . ?
N1 Ru1 C4 95.33(10) . . ?
N1 Ru1 C5 95.65(10) . . ?
N1 Ru1 C6 120.21(10) . . ?
C1 Ru1 Cl1 90.86(7) . . ?
C2 Ru1 Cl1 113.81(8) . . ?
C2 Ru1 C1 36.91(10) . . ?
C3 Ru1 Cl1 150.71(8) . . ?
C3 Ru1 C1 68.30(11) . . ?
C3 Ru1 C2 38.04(11) . . ?
C3 Ru1 C4 38.05(10) . . ?
C3 Ru1 C5 68.19(11) . . ?
C3 Ru1 C6 80.94(11) . . ?
C4 Ru1 Cl1 162.52(8) . . ?
C4 Ru1 C1 81.72(10) . . ?
C4 Ru1 C2 68.62(10) . . ?
C5 Ru1 Cl1 124.24(8) . . ?
C5 Ru1 C1 68.22(11) . . ?
C5 Ru1 C2 79.82(10) . . ?
C5 Ru1 C4 38.28(11) . . ?
C5 Ru1 C6 37.77(11) . . ?
C6 Ru1 Cl1 95.31(8) . . ?
C6 Ru1 C1 37.95(10) . . ?
C6 Ru1 C2 67.39(11) . . ?
C6 Ru1 C4 69.17(11) . . ?
C11 O1 Ru1 113.12(15) . . ?
C11 N1 Ru1 114.46(17) 2_556 . ?
C11 N1 C12 118.8(2) 2_556 . ?
C12 N1 Ru1 126.65(17) . . ?
C2 C1 Ru1 70.73(16) . . ?
C2 C1 C6 117.9(3) . . ?
C2 C1 C7 122.0(3) . . ?
C6 C1 Ru1 69.01(16) . . ?
C6 C1 C7 120.0(3) . . ?
C7 C1 Ru1 128.8(2) . . ?
Ru1 C2 H2 130(2) . . ?
C1 C2 Ru1 72.36(15) . . ?
C1 C2 H2 119(2) . . ?
C1 C2 C3 121.1(3) . . ?
C3 C2 Ru1 69.09(15) . . ?
C3 C2 H2 120(2) . . ?
Ru1 C3 H3 125(2) . . ?
C2 C3 Ru1 72.87(16) . . ?
C2 C3 H3 120(2) . . ?
C4 C3 Ru1 72.19(15) . . ?
C4 C3 C2 121.5(3) . . ?
C4 C3 H3 118(2) . . ?
C3 C4 Ru1 69.76(15) . . ?
C3 C4 C5 116.9(3) . . ?
C3 C4 C8 123.2(3) . . ?
C5 C4 Ru1 70.07(15) . . ?
C5 C4 C8 120.0(2) . . ?
C8 C4 Ru1 131.0(2) . . ?
Ru1 C5 H5 126(2) . . ?
C4 C5 Ru1 71.65(15) . . ?
C4 C5 H5 118(2) . . ?
C6 C5 Ru1 71.37(16) . . ?
C6 C5 C4 121.9(3) . . ?
C6 C5 H5 120(2) . . ?
Ru1 C6 H6 122(2) . . ?
C1 C6 Ru1 73.04(16) . . ?
C1 C6 H6 118(2) . . ?
C5 C6 Ru1 70.87(16) . . ?
C5 C6 C1 120.6(3) . . ?
C5 C6 H6 121(2) . . ?
C1 C7 H7A 111(2) . . ?
C1 C7 H7B 112(3) . . ?
C1 C7 H7C 108(3) . . ?
H7A C7 H7B 110(3) . . ?
H7A C7 H7C 108(4) . . ?
H7B C7 H7C 108(4) . . ?
C4 C8 H8 104(2) . . ?
C4 C8 C9 114.2(3) . . ?
C4 C8 C10 107.7(3) . . ?
C9 C8 H8 110(2) . . ?
C9 C8 C10 111.6(3) . . ?
C10 C8 H8 108(2) . . ?
C8 C9 H9A 112(2) . . ?
C8 C9 H9B 114(2) . . ?
C8 C9 H9C 114(3) . . ?
H9A C9 H9B 105(3) . . ?
H9A C9 H9C 106(3) . . ?
H9B C9 H9C 105(3) . . ?
C8 C10 H10A 108(2) . . ?
C8 C10 H10B 110(2) . . ?
C8 C10 H10C 110(2) . . ?
H10A C10 H10B 109(3) . . ?
H10A C10 H10C 114(3) . . ?
H10B C10 H10C 105(3) . . ?
O1 C11 N1 127.7(2) . 2_556 ?
O1 C11 C11 118.6(3) . 2_556 ?
N1 C11 C11 113.7(3) 2_556 2_556 ?
C13 C12 N1 119.5(2) . . ?
C17 C12 N1 120.0(2) . . ?
C17 C12 C13 120.4(2) . . ?
C12 C13 H13 120(2) . . ?
C12 C13 C14 119.9(3) . . ?
C14 C13 H13 120(2) . . ?
C13 C14 H14 118(2) . . ?
C15 C14 C13 119.4(3) . . ?
C15 C14 H14 122(2) . . ?
C14 C15 C18 119.3(3) . . ?
C16 C15 C14 120.7(3) . . ?
C16 C15 C18 119.9(3) . . ?
C15 C16 H16 121(2) . . ?
C15 C16 C17 119.8(3) . . ?
C17 C16 H16 120(2) . . ?
C12 C17 C16 119.8(3) . . ?
C12 C17 H17 119.5(19) . . ?
C16 C17 H17 120.7(19) . . ?
F1B C18 C15 113.1(10) . . ?
F1B C18 F2B 104.3(13) . . ?
F2B C18 C15 111.1(8) . . ?
F3B C18 C15 111.8(7) . . ?
F3B C18 F1B 107.9(13) . . ?
F3B C18 F2B 108.2(10) . . ?
F1A C18 C15 112.8(16) . . ?
F1A C18 F3A 101.5(19) . . ?
F2A C18 C15 117.1(12) . . ?
F2A C18 F1A 110.3(19) . . ?
F2A C18 F3A 100.9(15) . . ?
F3A C18 C15 112.4(12) . . ?
Cl1S C1S Cl2S 110.41(19) . . ?
Cl1S C1S Cl3S 111.8(2) . . ?
Cl1S C1S H1S 105(2) . . ?
Cl2S C1S H1S 110(2) . . ?
Cl3S C1S Cl2S 110.50(19) . . ?
Cl3S C1S H1S 109(2) . . ?
Cl4S C2S Cl5S 110.00(19) . . ?
Cl4S C2S Cl6S 110.44(19) . . ?
Cl4S C2S H2S 110(2) . . ?
Cl5S C2S Cl6S 109.95(18) . . ?
Cl5S C2S H2S 110(2) . . ?
Cl6S C2S H2S 106(2) . . ?
loop_
_geom_bond_atom_site_label_1
_geom_bond_atom_site_label_2
_geom_bond_distance
_geom_bond_site_symmetry_2
_geom_bond_publ_flag
Ru1 Cl1 2.4220(7) . ?
Ru1 O1 2.0981(18) . ?
Ru1 N1 2.100(2) . ?
Ru1 C1 2.226(3) . ?
Ru1 C2 2.205(3) . ?
Ru1 C3 2.156(3) . ?
Ru1 C4 2.187(3) . ?
Ru1 C5 2.166(3) . ?
Ru1 C6 2.173(3) . ?
O1 C11 1.272(3) . ?
N1 C11 1.312(3) 2_556 ?
N1 C12 1.430(3) . ?
C1 C2 1.403(4) . ?
C1 C6 1.431(4) . ?
C1 C7 1.496(4) . ?
C2 H2 0.93(3) . ?
C2 C3 1.422(4) . ?
C3 H3 0.91(3) . ?
C3 C4 1.416(4) . ?
C4 C5 1.428(4) . ?
C4 C8 1.508(4) . ?
C5 H5 0.92(3) . ?
C5 C6 1.404(4) . ?
C6 H6 0.88(3) . ?
C7 H7A 0.92(4) . ?
C7 H7B 0.94(4) . ?
C7 H7C 0.97(5) . ?
C8 H8 0.95(4) . ?
C8 C9 1.521(5) . ?
C8 C10 1.536(4) . ?
C9 H9A 0.93(4) . ?
C9 H9B 1.00(4) . ?
C9 H9C 0.98(5) . ?
C10 H10A 0.97(4) . ?
C10 H10B 0.99(4) . ?
C10 H10C 1.00(4) . ?
C11 C11 1.497(5) 2_556 ?
C12 C13 1.390(4) . ?
C12 C17 1.387(4) . ?
C13 H13 0.90(3) . ?
C13 C14 1.393(4) . ?
C14 H14 0.97(4) . ?
C14 C15 1.391(4) . ?
C15 C16 1.383(4) . ?
C15 C18 1.500(4) . ?
C16 H16 0.95(3) . ?
C16 C17 1.392(4) . ?
C17 H17 0.91(3) . ?
C18 F1B 1.340(13) . ?
C18 F2B 1.376(11) . ?
C18 F3B 1.288(14) . ?
C18 F1A 1.28(2) . ?
C18 F2A 1.24(2) . ?
C18 F3A 1.391(19) . ?
Cl1S C1S 1.736(4) . ?
Cl2S C1S 1.754(3) . ?
Cl3S C1S 1.746(4) . ?
C1S H1S 0.97(3) . ?
Cl4S C2S 1.757(4) . ?
Cl5S C2S 1.763(3) . ?
Cl6S C2S 1.763(3) . ?
C2S H2S 0.96(4) . ?
loop_
_geom_torsion_atom_site_label_1
_geom_torsion_atom_site_label_2
_geom_torsion_atom_site_label_3
_geom_torsion_atom_site_label_4
_geom_torsion
_geom_torsion_site_symmetry_1
_geom_torsion_site_symmetry_2
_geom_torsion_site_symmetry_3
_geom_torsion_site_symmetry_4
_geom_torsion_publ_flag
Ru1 O1 C11 N1 -169.5(2) . . . 2_556 ?
Ru1 O1 C11 C11 12.3(4) . . . 2_556 ?
Ru1 N1 C12 C13 126.6(2) . . . . ?
Ru1 N1 C12 C17 -50.2(3) . . . . ?
Ru1 C1 C2 C3 51.0(2) . . . . ?
Ru1 C1 C6 C5 -54.6(2) . . . . ?
Ru1 C2 C3 C4 55.7(2) . . . . ?
Ru1 C3 C4 C5 53.6(2) . . . . ?
Ru1 C3 C4 C8 -126.4(3) . . . . ?
Ru1 C4 C5 C6 53.0(2) . . . . ?
Ru1 C4 C8 C9 -54.9(4) . . . . ?
Ru1 C4 C8 C10 -179.4(2) . . . . ?
Ru1 C5 C6 C1 55.6(2) . . . . ?
N1 C12 C13 C14 -176.9(2) . . . . ?
N1 C12 C17 C16 177.1(3) . . . . ?
C1 C2 C3 Ru1 -52.4(2) . . . . ?
C1 C2 C3 C4 3.2(4) . . . . ?
C2 C1 C6 Ru1 52.9(2) . . . . ?
C2 C1 C6 C5 -1.8(4) . . . . ?
C2 C3 C4 Ru1 -56.0(2) . . . . ?
C2 C3 C4 C5 -2.4(4) . . . . ?
C2 C3 C4 C8 177.6(3) . . . . ?
C3 C4 C5 Ru1 -53.4(2) . . . . ?
C3 C4 C5 C6 -0.4(4) . . . . ?
C3 C4 C8 C9 36.2(4) . . . . ?
C3 C4 C8 C10 -88.3(3) . . . . ?
C4 C5 C6 Ru1 -53.1(2) . . . . ?
C4 C5 C6 C1 2.6(4) . . . . ?
C5 C4 C8 C9 -143.7(3) . . . . ?
C5 C4 C8 C10 91.7(3) . . . . ?
C6 C1 C2 Ru1 -52.0(2) . . . . ?
C6 C1 C2 C3 -1.1(4) . . . . ?
C7 C1 C2 Ru1 124.3(3) . . . . ?
C7 C1 C2 C3 175.3(3) . . . . ?
C7 C1 C6 Ru1 -123.6(2) . . . . ?
C7 C1 C6 C5 -178.2(3) . . . . ?
C8 C4 C5 Ru1 126.6(2) . . . . ?
C8 C4 C5 C6 179.5(3) . . . . ?
C11 N1 C12 C13 -57.0(3) 2_556 . . . ?
C11 N1 C12 C17 126.2(3) 2_556 . . . ?
C12 C13 C14 C15 -0.3(4) . . . . ?
C13 C12 C17 C16 0.4(4) . . . . ?
C13 C14 C15 C16 0.5(4) . . . . ?
C13 C14 C15 C18 -179.2(3) . . . . ?
C14 C15 C16 C17 -0.3(5) . . . . ?
C14 C15 C18 F1B -143.9(11) . . . . ?
C14 C15 C18 F2B -26.9(15) . . . . ?
C14 C15 C18 F3B 94.1(14) . . . . ?
C14 C15 C18 F1A -131(2) . . . . ?
C14 C15 C18 F2A -1(2) . . . . ?
C14 C15 C18 F3A 115.0(17) . . . . ?
C15 C16 C17 C12 -0.2(4) . . . . ?
C16 C15 C18 F1B 36.5(12) . . . . ?
C16 C15 C18 F2B 153.4(14) . . . . ?
C16 C15 C18 F3B -85.6(14) . . . . ?
C16 C15 C18 F1A 49(2) . . . . ?
C16 C15 C18 F2A 179(2) . . . . ?
C16 C15 C18 F3A -64.6(17) . . . . ?
C17 C12 C13 C14 -0.1(4) . . . . ?
C18 C15 C16 C17 179.4(3) . . . . ?
