#------------------------------------------------------------------------------
#$Date: 2016-02-13 21:28:24 +0200 (Sat, 13 Feb 2016) $
#$Revision: 176429 $
#$URL: svn://www.crystallography.net/cod/cif/4/34/30/4343001.cif $
#------------------------------------------------------------------------------
#
# This file is available in the Crystallography Open Database (COD),
# http://www.crystallography.net/
#
# All data on this site have been placed in the public domain by the
# contributors.
#
data_4343001
loop_
_publ_author_name
'Bia\/lek, Micha\/l J'
'Bia\/lo\'nska, Agata'
'Latos-Gra\.zy\'nski, Lechos\/law'
_publ_section_title
;
 Oxidation and Oxygenation of Carbonyl Ruthenium(II) Azuliporphyrin.
;
_journal_issue                   13
_journal_name_full               'Inorganic chemistry'
_journal_page_first              6184
_journal_page_last               6194
_journal_paper_doi               10.1021/acs.inorgchem.5b00324
_journal_volume                  54
_journal_year                    2015
_chemical_formula_moiety         'C55 H41 N3 O3 Ru, 1.5(C4 H10 O)'
_chemical_formula_sum            'C61 H56 N3 O4.5 Ru'
_chemical_formula_weight         1004.15
_chemical_name_systematic
;
Carbonyl ruthenium(II) 5,10,15,20-tetraphenyl-21-hydroxyazuliporphyrin
;
_space_group_crystal_system      triclinic
_space_group_IT_number           2
_space_group_name_Hall           '-P 1'
_space_group_name_H-M_alt        'P -1'
_symmetry_space_group_name_Hall  '-P 1'
_symmetry_space_group_name_H-M   'P -1'
_atom_sites_solution_hydrogens   geom
_audit_creation_method           SHELXL-2014
_cell_angle_alpha                73.20(2)
_cell_angle_beta                 67.95(3)
_cell_angle_gamma                83.27(3)
_cell_formula_units_Z            2
_cell_length_a                   13.666(3)
_cell_length_b                   13.913(3)
_cell_length_c                   14.580(4)
_cell_measurement_reflns_used    647
_cell_measurement_temperature    100(2)
_cell_measurement_theta_max      50.8630
_cell_measurement_theta_min      3.3880
_cell_volume                     2459.6(12)
_computing_cell_refinement
;
CrysAlisPro, Agilent Technologies,
Version 1.171.36.28 (release 01-02-2013 CrysAlis171 .NET)
(compiled Feb  1 2013,16:14:44)
;
_computing_data_collection
;
CrysAlisPro, Agilent Technologies,
Version 1.171.36.28 (release 01-02-2013 CrysAlis171 .NET)
(compiled Feb  1 2013,16:14:44)
;
_computing_data_reduction
;
CrysAlisPro, Agilent Technologies,
Version 1.171.36.28 (release 01-02-2013 CrysAlis171 .NET)
(compiled Feb  1 2013,16:14:44)
;
_computing_structure_refinement  'SHELXL-2014 (Sheldrick, 2014)'
_computing_structure_solution    'SHELXS-2014 (Sheldrick, 2014)'
_diffrn_ambient_temperature      100(2)
_diffrn_detector_area_resol_mean 8.1956
_diffrn_measured_fraction_theta_full 0.803
_diffrn_measured_fraction_theta_max 0.978
_diffrn_measurement_device_type  'Xcalibur, Onyx'
_diffrn_measurement_method       '\w scans'
_diffrn_radiation_monochromator  graphite
_diffrn_radiation_source         'Enhance (Cu) X-ray Source'
_diffrn_radiation_type           CuK\a
_diffrn_radiation_wavelength     1.54175
_diffrn_reflns_av_R_equivalents  0.2092
_diffrn_reflns_av_unetI/netI     0.3023
_diffrn_reflns_Laue_measured_fraction_full 0.803
_diffrn_reflns_Laue_measured_fraction_max 0.978
_diffrn_reflns_limit_h_max       15
_diffrn_reflns_limit_h_min       -9
_diffrn_reflns_limit_k_max       15
_diffrn_reflns_limit_k_min       -15
_diffrn_reflns_limit_l_max       16
_diffrn_reflns_limit_l_min       -16
_diffrn_reflns_number            14194
_diffrn_reflns_point_group_measured_fraction_full 0.803
_diffrn_reflns_point_group_measured_fraction_max 0.978
_diffrn_reflns_theta_full        67.676
_diffrn_reflns_theta_max         59.999
_diffrn_reflns_theta_min         3.318
_exptl_absorpt_coefficient_mu    3.001
_exptl_absorpt_correction_T_max  0.939
_exptl_absorpt_correction_T_min  0.709
_exptl_absorpt_correction_type   analytical
_exptl_absorpt_process_details
;
CrysAlisPro, Agilent Technologies,
Version 1.171.36.28 (release 01-02-2013 CrysAlis171 .NET)
(compiled Feb  1 2013,16:14:44)
Analytical numeric absorption correction using a multifaceted crystal
            model based on expressions derived by R.C. Clark & J.S. Reid.
(Clark, R. C. & Reid, J. S. (1995). Acta Cryst. A51, 887-897)
;
_exptl_crystal_colour            green
_exptl_crystal_density_diffrn    1.356
_exptl_crystal_description       plate
_exptl_crystal_F_000             1046
_exptl_crystal_size_max          0.20
_exptl_crystal_size_mid          0.07
_exptl_crystal_size_min          0.02
_refine_diff_density_max         0.907
_refine_diff_density_min         -1.185
_refine_diff_density_rms         0.111
_refine_ls_extinction_method     none
_refine_ls_goodness_of_fit_ref   0.854
_refine_ls_hydrogen_treatment    constr
_refine_ls_matrix_type           full
_refine_ls_number_parameters     610
_refine_ls_number_reflns         7148
_refine_ls_number_restraints     18
_refine_ls_restrained_S_all      0.854
_refine_ls_R_factor_all          0.1888
_refine_ls_R_factor_gt           0.1108
_refine_ls_shift/su_max          0.000
_refine_ls_shift/su_mean         0.000
_refine_ls_structure_factor_coef Fsqd
_refine_ls_weighting_details
'w=1/[\s^2^(Fo^2^)+(0.0625P)^2^] where P=(Fo^2^+2Fc^2^)/3'
_refine_ls_weighting_scheme      calc
_refine_ls_wR_factor_gt          0.2447
_refine_ls_wR_factor_ref         0.2935
_reflns_Friedel_coverage         0.000
_reflns_number_gt                2548
_reflns_number_total             7148
_reflns_threshold_expression     'I > 2\s(I)'
_cod_data_source_file            ic5b00324_si_002.cif
_cod_data_source_block           3
_cod_depositor_comments
'Adding full bibliography for 4343001--4343002.cif.'
_cod_original_formula_sum        'C61 H56 N3 O4.50 Ru'
_cod_database_code               4343001
#BEGIN Tags that were not found in dictionaries:
_shelx_space_group_comment
;
The symmetry employed for this shelxl refinement is uniquely defined
by the following loop, which should always be used as a source of
symmetry information in preference to the above space-group names.
They are only intended as comments.
;
_shelxl_version_number           2014-3
_shelx_res_file
;
TITL MBIA99 in P1                New: P-1
CELL  1.54175   13.666   13.913   14.580    73.20    67.95    83.27
ZERR        2    0.003    0.003    0.004     0.02     0.03     0.03
LATT   1
SFAC  C  N  O Ru H
UNIT   122   6   9   2 112
L.S. 5 0    4
FMAP 2
PLAN -20
omit -4 120
ACTA
BOND $H
CONF
simu 0.01 0.01 0.9
simu 0.001 0.001 c200 o200
isor 0.01 0.01 c200 o200
ABIN
WGHT    0.062500
FVAR       6.49264   0.91502   1.09013   0.11535   1.06457   0.19500   0.20000
RU1   4    0.131446    1.156911   -0.283827    11.00000    0.07809    0.03335 =
         0.07865   -0.02627   -0.04367    0.01710
O21   3    0.084711    1.015761   -0.185906    11.00000    0.07272    0.01797 =
         0.07204   -0.00095   -0.04909   -0.00236
O49   3    0.079221    1.174717   -0.126921    11.00000    0.08202    0.03273 =
         0.10323   -0.03859   -0.05946    0.02799
AFIX  83
H49   5    0.130373    1.136510   -0.135124    11.00000   -1.50000
AFIX   0
N22   2   -0.018655    1.185655   -0.279775    11.00000    0.06465    0.05866 =
         0.04978   -0.04183   -0.04116    0.03882
N23   2    0.166806    1.304501   -0.328440    11.00000    0.07765    0.01808 =
         0.07506   -0.01326   -0.02808    0.00620
N24   2    0.278413    1.115385   -0.282769    11.00000    0.06916    0.06031 =
         0.01742   -0.01824   -0.01271    0.01960
C1    1    0.196001    0.925099   -0.306129    11.00000    0.08701    0.02384 =
         0.05254   -0.02024   -0.02857    0.00786
C2C   1    0.134042    0.737222   -0.489323    11.00000    0.09472    0.02769 =
         0.06108   -0.01411   -0.04174   -0.00483
AFIX  43
H2CA  5    0.137277    0.689047   -0.523288    11.00000   -1.20000
AFIX   0
C2A   1    0.243994    0.814145   -0.426019    11.00000    0.05615    0.04998 =
         0.08639   -0.03382   -0.04032    0.02988
AFIX  43
H2AA  5    0.314235    0.819495   -0.434459    11.00000   -1.20000
AFIX   0
C2B   1    0.226254    0.749968   -0.478410    11.00000    0.09140    0.04151 =
         0.08359   -0.02756   -0.05016    0.02229
AFIX  43
H2BA  5    0.284001    0.712448   -0.508649    11.00000   -1.20000
AFIX   0
C2    1    0.173737    0.869548   -0.364853    11.00000    0.08269    0.02702 =
         0.07520   -0.01922   -0.04979    0.02521
C3    1    0.063905    0.892321   -0.355628    11.00000    0.10253    0.02979 =
         0.07151   -0.02171   -0.05338    0.00578
C3A   1    0.004925    0.853932   -0.400630    11.00000    0.06472    0.03711 =
         0.07137   -0.02022   -0.03742    0.00970
AFIX  43
H3AA  5   -0.063483    0.878911   -0.389976    11.00000   -1.20000
AFIX   0
C3B   1    0.037756    0.783338   -0.458741    11.00000    0.07525    0.03420 =
         0.06746   -0.02890   -0.02760    0.01348
AFIX  43
H3BA  5   -0.012873    0.765609   -0.479138    11.00000   -1.20000
AFIX   0
C4    1    0.017157    0.961982   -0.294294    11.00000    0.05046    0.03247 =
         0.10929   -0.03304   -0.04187    0.01563
C5    1   -0.078007    1.017237   -0.275184    11.00000    0.07261    0.03707 =
         0.06447   -0.01787   -0.03492    0.01159
C6    1   -0.094904    1.116916   -0.265826    11.00000    0.08210    0.05274 =
         0.06515   -0.03600   -0.05661    0.02373
C7    1   -0.196852    1.168552   -0.251130    11.00000    0.09116    0.02949 =
         0.04401   -0.01777   -0.02667    0.01592
AFIX  43
H7A   5   -0.261688    1.141023   -0.236083    11.00000   -1.20000
AFIX   0
C8    1   -0.175970    1.265521   -0.264297    11.00000    0.09878    0.03553 =
         0.07230   -0.02190   -0.05641    0.02679
AFIX  43
H8A   5   -0.225762    1.317300   -0.261475    11.00000   -1.20000
AFIX   0
C9    1   -0.068900    1.277187   -0.282785    11.00000    0.06930    0.04609 =
         0.04329   -0.01345   -0.03197   -0.00092
C10   1   -0.014546    1.364671   -0.307346    11.00000    0.07314    0.04220 =
         0.05212   -0.02503   -0.03758    0.01807
C11   1    0.088300    1.379660   -0.325429    11.00000    0.07088    0.04092 =
         0.07792   -0.03368   -0.02333   -0.00364
C12   1    0.138571    1.471595   -0.339155    11.00000    0.08717    0.04759 =
         0.06364   -0.02872   -0.03698    0.00994
AFIX  43
H12A  5    0.107115    1.534980   -0.345470    11.00000   -1.20000
AFIX   0
C13   1    0.239591    1.450313   -0.341341    11.00000    0.09007    0.03362 =
         0.08366   -0.01972   -0.04550    0.00511
AFIX  43
H13A  5    0.288876    1.495343   -0.348548    11.00000   -1.20000
AFIX   0
C14   1    0.254372    1.341083   -0.329903    11.00000    0.07031    0.02738 =
         0.10479   -0.02190   -0.04163    0.00082
C15   1    0.341905    1.284340   -0.311452    11.00000    0.06311    0.03590 =
         0.11254   -0.03680   -0.04209    0.03497
C16   1    0.351294    1.179084   -0.288412    11.00000    0.09066    0.04690 =
         0.08001   -0.03483   -0.05578    0.01438
C17   1    0.446319    1.122860   -0.279855    11.00000    0.07407    0.04617 =
         0.08835   -0.03568   -0.04626    0.01853
AFIX  43
H17A  5    0.505800    1.147100   -0.277710    11.00000   -1.20000
AFIX   0
C18   1    0.428322    1.026812   -0.275710    11.00000    0.08093    0.02742 =
         0.07510   -0.01856   -0.04531    0.00445
AFIX  43
H18A  5    0.475671    0.973529   -0.270855    11.00000   -1.20000
AFIX   0
C19   1    0.326912    1.019631   -0.279862    11.00000    0.06603    0.02875 =
         0.07459   -0.02763   -0.02686    0.01033
C20   1    0.295728    0.937142   -0.297927    11.00000    0.06043    0.04118 =
         0.07748   -0.03254   -0.04296    0.02882
C21   1    0.099062    0.975155   -0.260960    11.00000    0.08070    0.02430 =
         0.06874   -0.00233   -0.04144    0.01047
C25   1   -0.169465    0.963387   -0.264639    11.00000    0.07618    0.03784 =
         0.06162   -0.02068   -0.03639    0.02529
C26   1   -0.206021    0.874417   -0.185161    11.00000    0.06535    0.05220 =
         0.08968   -0.03913   -0.03232    0.01671
AFIX  43
H26A  5   -0.169128    0.849541   -0.140891    11.00000   -1.20000
AFIX   0
C27   1   -0.291009    0.824082   -0.170290    11.00000    0.06229    0.04636 =
         0.09780   -0.03578   -0.04065    0.00641
AFIX  43
H27A  5   -0.313191    0.767182   -0.115553    11.00000   -1.20000
AFIX   0
C28   1   -0.346765    0.858258   -0.238624    11.00000    0.03339    0.06397 =
         0.12661   -0.04871   -0.04804    0.01373
AFIX  43
H28A  5   -0.406489    0.824628   -0.228368    11.00000   -1.20000
AFIX   0
C29   1   -0.311232    0.942947   -0.321576    11.00000    0.07646    0.04670 =
         0.08516   -0.03643   -0.04043    0.01129
AFIX  43
H29A  5   -0.345013    0.963006   -0.368907    11.00000   -1.20000
AFIX   0
C30   1   -0.227102    0.996799   -0.333954    11.00000    0.09539    0.04636 =
         0.06943   -0.03107   -0.05649    0.01581
AFIX  43
H30A  5   -0.206965    1.055135   -0.387203    11.00000   -1.20000
AFIX   0
C31   1   -0.082774    1.462145   -0.313633    11.00000    0.06375    0.03957 =
         0.07391   -0.02502   -0.04864    0.01988
C32   1   -0.116911    1.503609   -0.392592    11.00000    0.08127    0.04142 =
         0.08575   -0.03397   -0.03939    0.00887
AFIX  43
H32A  5   -0.098906    1.472208   -0.445130    11.00000   -1.20000
AFIX   0
C33   1   -0.178164    1.591725   -0.398748    11.00000    0.07802    0.03795 =
         0.09551   -0.03059   -0.04980    0.01886
AFIX  43
H33A  5   -0.199489    1.618586   -0.454619    11.00000   -1.20000
AFIX   0
C34   1   -0.205821    1.637198   -0.321461    11.00000    0.06104    0.03917 =
         0.08729   -0.03619   -0.03874    0.03307
AFIX  43
H34A  5   -0.246954    1.695415   -0.323706    11.00000   -1.20000
AFIX   0
C35   1   -0.173366    1.597533   -0.241609    11.00000    0.12675    0.06718 =
         0.10896   -0.05745   -0.07180    0.03606
AFIX  43
H35A  5   -0.191139    1.629888   -0.189822    11.00000   -1.20000
AFIX   0
C36   1   -0.113956    1.509399   -0.234923    11.00000    0.08614    0.04677 =
         0.04267   -0.01897   -0.02425    0.01872
AFIX  43
H36A  5   -0.094984    1.481922   -0.177673    11.00000   -1.20000
AFIX   0
C37   1    0.427630    1.340408   -0.305612    11.00000    0.07786    0.03437 =
         0.05688   -0.02189   -0.02961    0.02143
C38   1    0.503229    1.390478   -0.395322    11.00000    0.10007    0.04455 =
         0.07875   -0.03010   -0.02835   -0.00323
AFIX  43
H38A  5    0.502041    1.394310   -0.459643    11.00000   -1.20000
AFIX   0
C39   1    0.582266    1.435337   -0.382542    11.00000    0.06830    0.05137 =
         0.11121   -0.04409   -0.02817    0.01267
AFIX  43
H39A  5    0.634759    1.470334   -0.441298    11.00000   -1.20000
AFIX   0
C40   1    0.587331    1.431183   -0.290925    11.00000    0.08824    0.03853 =
         0.15359   -0.03757   -0.07535    0.01520
AFIX  43
H40A  5    0.639237    1.466019   -0.287263    11.00000   -1.20000
AFIX   0
C41   1    0.517421    1.376842   -0.206171    11.00000    0.15453    0.06165 =
         0.11796   -0.01025   -0.09078   -0.02032
AFIX  43
H41A  5    0.524651    1.368355   -0.143366    11.00000   -1.20000
AFIX   0
C42   1    0.433962    1.332581   -0.209571    11.00000    0.12990    0.07262 =
         0.06695    0.00213   -0.03126   -0.03141
AFIX  43
H42A  5    0.382734    1.298135   -0.149326    11.00000   -1.20000
AFIX   0
C43   1    0.373188    0.852720   -0.312771    11.00000    0.05520    0.04267 =
         0.12727   -0.04084   -0.05471    0.03294
C44   1    0.345789    0.754256   -0.249268    11.00000    0.09682    0.02961 =
         0.11612   -0.03165   -0.05602    0.01272
AFIX  43
H44A  5    0.283204    0.741379   -0.192685    11.00000   -1.20000
AFIX   0
C45   1    0.417428    0.676632   -0.275499    11.00000    0.09229    0.05498 =
         0.20803   -0.06425   -0.11211    0.03132
AFIX  43
H45A  5    0.398522    0.610990   -0.237187    11.00000   -1.20000
AFIX   0
C46   1    0.509697    0.691586   -0.351171    11.00000    0.05522    0.06574 =
         0.22925   -0.08554   -0.09020    0.04431
AFIX  43
H46A  5    0.554863    0.637669   -0.364060    11.00000   -1.20000
AFIX   0
C47   1    0.539894    0.791324   -0.413345    11.00000    0.06059    0.08088 =
         0.11428   -0.05298   -0.02959    0.00780
AFIX  43
H47A  5    0.604551    0.803580   -0.467331    11.00000   -1.20000
AFIX   0
C48   1    0.470984    0.868211   -0.391168    11.00000    0.05667    0.05210 =
         0.13113   -0.05483   -0.06590    0.03560
AFIX  43
H48A  5    0.490595    0.933488   -0.430302    11.00000   -1.20000
AFIX   0
C49   1    0.096513    1.255112   -0.085504    11.00000    0.10512    0.05117 =
         0.12161   -0.03161   -0.07239    0.01632
AFIX  23
H49A  5    0.160675    1.239915   -0.070103    11.00000   -1.20000
H49B  5    0.106553    1.318501   -0.137934    11.00000   -1.20000
AFIX   0
C50   1    0.008958    1.266077    0.007272    11.00000    0.09723    0.04950 =
         0.08404   -0.04315   -0.02617    0.00574
AFIX  23
H50A  5   -0.000437    1.203047    0.060133    11.00000   -1.20000
H50B  5   -0.055436    1.280399   -0.007779    11.00000   -1.20000
AFIX   0
C51   1    0.026082    1.346778    0.046854    11.00000    0.09918    0.06545 =
         0.08855   -0.03610   -0.02864   -0.00099
AFIX  23
H51A  5    0.089790    1.331081    0.063013    11.00000   -1.20000
H51B  5    0.038206    1.408930   -0.007415    11.00000   -1.20000
AFIX   0
C52   1   -0.058798    1.363253    0.136507    11.00000    0.16151    0.06419 =
         0.16380   -0.04687   -0.01957   -0.02476
AFIX  33
H52A  5   -0.040531    1.416726    0.156346    11.00000   -1.50000
H52B  5   -0.122039    1.381018    0.121135    11.00000   -1.50000
H52C  5   -0.070334    1.302986    0.191728    11.00000   -1.50000
AFIX   0
O200  1    0.167605    1.146299   -0.404449    11.00000    0.03827    0.04944 =
         0.07716   -0.01146   -0.03143    0.01102
C200  3    0.193934    1.145389   -0.495589    11.00000    0.04015    0.04973 =
         0.07789   -0.01193   -0.02998    0.01007
PART   1
O53A  3    0.107805    1.023355    0.017868    21.00000    0.10109    0.05143 =
         0.08194   -0.01890   -0.05497    0.01233
AFIX  83
H53C  5    0.052086    1.010572    0.066933    11.00000   -1.50000
AFIX   0
C53A  1    0.168163    0.924667    0.003162    21.00000    0.12522    0.11027 =
         0.03284   -0.00271   -0.02758    0.00753
AFIX  23
H53A  5    0.137400    0.867530    0.060733    21.00000   -1.20000
H53B  5    0.173036    0.911339   -0.060154    21.00000   -1.20000
AFIX   0
C54A  1    0.273585    0.953516   -0.001025    21.00000    0.12102    0.10010 =
         0.02419   -0.01466   -0.02135   -0.01306
AFIX  23
H54A  5    0.265925    0.970849    0.061180    21.00000   -1.20000
H54B  5    0.303099    1.010352   -0.059442    21.00000   -1.20000
AFIX   0
C55A  1    0.347155    0.856199   -0.011967    21.00000    0.12508    0.13790 =
         0.05810   -0.02215   -0.04215    0.07191
AFIX  23
H55A  5    0.362321    0.844026   -0.078225    21.00000   -1.20000
H55B  5    0.313197    0.797439    0.041556    21.00000   -1.20000
AFIX   0
C56A  1    0.455243    0.881255   -0.000800    21.00000    0.09041    0.28557 =
         0.10749   -0.00945   -0.04386    0.07083
AFIX  33
H56A  5    0.503255    0.825252   -0.006724    21.00000   -1.50000
H56B  5    0.487435    0.939774   -0.054077    21.00000   -1.50000
H56C  5    0.438613    0.893474    0.064968    21.00000   -1.50000
PART   0

AFIX   0
HKLF 4

REM  MBIA99 in P1                New: P-1
REM R1 =  0.1108 for    2548 Fo > 4sig(Fo)  and  0.1888 for all    7148 data
REM    610 parameters refined using     18 restraints

END

WGHT      0.0626      0.0000

REM Highest difference peak  0.907,  deepest hole -1.185,  1-sigma level  0.111
Q1    1   0.0552  1.1388 -0.2787  11.00000  0.05    0.91
Q2    1   0.0991  1.1321 -0.1969  11.00000  0.05    0.87
Q3    1   0.0564  1.1898 -0.2598  11.00000  0.05    0.73
Q4    1   0.1643  1.1736 -0.3696  11.00000  0.05    0.66
Q5    1   0.2023  1.1187 -0.3076  11.00000  0.05    0.66
Q6    1  -0.0964  1.0869  0.0157  11.00000  0.05    0.60
Q7    1   0.2099  1.1747 -0.2869  11.00000  0.05    0.56
Q8    1  -0.2361  1.1240  0.0188  11.00000  0.05    0.40
Q9    1   0.2179  1.1641 -0.5784  11.00000  0.05    0.40
Q10   1   0.1188  1.1483 -0.4689  11.00000  0.05    0.39
Q11   1   0.1386  1.2840 -0.3133  11.00000  0.05    0.39
Q12   1   0.0135  1.0387 -0.1682  11.00000  0.05    0.39
Q13   1  -0.1815  1.0422  0.0009  11.00000  0.05    0.39
Q14   1  -0.1628  1.0553 -0.0212  11.00000  0.05    0.39
Q15   1  -0.4171  0.8453 -0.2401  11.00000  0.05    0.37
Q16   1  -0.0647  1.1815 -0.1874  11.00000  0.05    0.36
Q17   1   0.1790  0.9118 -0.2489  11.00000  0.05    0.35
Q18   1   0.0016  1.1411 -0.1295  11.00000  0.05    0.35
Q19   1  -0.0226  1.1811 -0.0711  11.00000  0.05    0.35
Q20   1   0.1193  1.0324 -0.2723  11.00000  0.05    0.34
;
_shelx_res_checksum              41718
_shelx_hkl_file
;
   0   0   1  991534   14416
   0   0   2 2933070   53900
   0   0   3 2377918   77585
   0   0   4  876979   54261
   0   0   5  453057   40008
   0   0   6   11566   11523
   0   0   7  504778   58434
   0   0   8     406    7344
   0   0   9  115696   34178
   0   0 -10  106505   26738
   0   0  10   66967   31379
   0   0 -11    9028    7159
   0   0 -11   30054   19486
   0   0  11   19904   21036
   0   0 -12      63    9028
   0   0 -12   13113    9904
   0   0 -13    3246    8801
   0   0 -13    5390    7332
   0   0 -14   17653   13289
   0   0 -14   14138    8439
   0   0 -15      61    8253
   0   1 -14      10    9435
   0   1 -13    1590   10820
   0   1 -13    9276    8486
   0   1 -12   20390   11125
   0   1 -12   37722   25005
   0   1 -11    8946    8264
   0   1 -11   17208   15916
   0  -1  11    5485   18831
   0   1 -10   91836   23707
   0  -1  10   79028   34652
   0   1 -10   32348   23598
   0   1  -9   10477   14304
   0  -1   9   13412   15044
   0  -1   8   28654   18122
   0  -1   7  333089   47045
   0  -1   6  193174   31937
   0  -1   5  144705   27170
   0  -1   4    2718    6376
   0  -1   4    7142    8249
   0  -1   3 1294525   56367
   0  -1   2   12347   12988
   0  -1   1   60352   19200
   0  -1   0 1586718   23616
   0   1   1 1203181   23911
   0   1   2   98413   22035
   0   1   3  207539   26672
   0   1   4 2221847   77130
   0   1   5   21481   11656
   0   1   6  451928   48366
   0   1   7  166864   29542
   0   1   8  136501   31056
   0   1   9  242331   50342
   0  -1 -10    4751    7356
   0   1  10     122    5581
   0  -1 -11  220800   37015
   0   1  11  126596   43068
   0  -1 -11  113473   43767
   0  -1 -12    4039    6679
   0  -1 -13   28630   12565
   0  -1 -13   59679   27871
   0  -1 -14    5016    6853
   0  -1 -14    4311   10125
   0  -1 -15   16097   11724
   0  -1 -15    6345    6087
   0  -1 -16     137    7474
   0   2 -13       9    9638
   0   2 -12    6004    7314
   0   2 -12    8329   10957
   0   2 -11   13382   15300
   0   2 -11   16019   10392
   0  -2  10   30342   25798
   0   2 -10   50574   20590
   0   2 -10   17989   10554
   0   2  -9    3595   10010
   0  -2   9    2654    8351
   0   2  -9     240    7635
   0  -2   8  116132   35392
   0   2  -8   66350   24801
   0  -2   7   40948   17860
   0  -2   6  290811   44980
   0  -2   5   27116   12579
   0  -2   5   36914   14192
   0  -2   4  125710   23459
   0  -2   3  699517   50874
   0  -2   2  347718   26355
   0  -2   1   13724   10082
   0   2  -1    7268    5889
   0  -2   0   68242    3865
   0   2   1    1610    8124
   0   2   2   24819   11902
   0   2   3   11366    3657
   0   2   4   25975   10131
   0   2   5  759820   55461
   0  -2  -5  415764   23017
   0   2   6  137995   24284
   0   2   7  157966   28922
   0   2   8  167583   35277
   0   2   9   11189   10546
   0   2  10   85465   31838
   0   2  11      21   16069
   0  -2 -11      21    9338
   0  -2 -12   44344   17621
   0  -2 -13   26156   15491
   0  -2 -14   10346    8519
   0  -2 -14   34966   20367
   0  -2 -15   10386    7737
   0  -2 -15   34030   15154
   0  -2 -16     690    4070
   0   3 -12      91   11009
   0   3 -11   20109   20391
   0   3 -11   18421   11704
   0   3 -10    3330    6913
   0  -3  10    3507   13425
   0   3 -10     242   10004
   0   3  -9   33559   19880
   0  -3   9   27131   23864
   0   3  -9   18987    9666
   0   3  -8    6327    8090
   0  -3   8    8070   12550
   0   3  -7   38970   19104
   0  -3   7   90576   30081
   0   3  -6   93084   24266
   0  -3   6  141515   33152
   0  -3   5     129    3969
   0   3  -5    5995    3331
   0  -3   4    3618    5728
   0   3  -4    4212    6189
   0  -3   3    2900    4604
   0   3  -3    5591    4282
   0  -3   2   44095   11910
   0   3  -2   28949    6282
   0  -3   1  199755   22469
   0  -3   0  216726   23491
   0  -3  -1  150066   17555
   0   3   2   21582    8525
   0   3   3    5195    6419
   0   3   4   59964   14927
   0   3   5   47114   12969
   0   3   6   88459   20526
   0   3   7   59509   19161
   0   3   8   30069   17352
   0   3   9   89732   28562
   0   3  10   33008   20498
   0   3  11    3430    6206
   0  -3 -11   13299   12225
   0  -3 -12   13055   12030
   0  -3 -13    1217   11677
   0  -3 -14   44509   20503
   0  -3 -15    9695   10072
   0  -3 -15    9926    8982
   0  -3 -16    6048    6880
   0  -3 -16    8658    5737
   0   4 -11      64   11322
   0   4 -10     134    5277
   0   4  -9   22059   15164
   0   4  -9   13616    9139
   0  -4   9    6117   15288
   0  -4   8   47963   26469
   0   4  -8   36955   20495
   0  -4   7   35707   21364
   0  -4   6   46492   23656
   0  -4   6   61878   24339
   0  -4   5   19640   11837
   0   4  -5   13200    8203
   0  -4   4  348748   46925
   0   4  -4  221899   27003
   0  -4   3  258502   36519
   0   4  -3  172283   19332
   0  -4   2   19502    9534
   0  -4   1  446660   40073
   0  -4   0  299607   31939
   0  -4  -1  105186   19164
   0  -4  -2  504638   38977
   0   4   3   10078    6112
   0   4   4  274918   35107
   0   4   5    8430    8627
   0   4   6  151609   30675
   0   4   7   33952   13967
   0   4   8   47593   18585
   0   4   9   21450   16343
   0   4  10    2754    5857
   0  -4 -11   14090   13960
   0   4  11    8480   12490
   0  -4 -12    1225    8785
   0  -4 -13   14934   17176
   0  -4 -14    4360   11003
   0  -4 -15     404    8376
   0  -4 -16     355    5011
   0  -4 -16    1482    4713
   0  -5  10      42    5127
   0  -5   9    1644   13677
   0  -5   9    8303    6628
   0  -5   8   26339   24136
   0  -5   8    7629    7124
   0   5  -8    5416   14218
   0  -5   7   17389   15338
   0  -5   6  287023   56559
   0  -5   5  105148   30934
   0  -5   4  101714   28003
   0  -5   3  402860   49666
   0  -5   2   56437   16821
   0  -5   1  250883   34043
   0  -5   0   32249   11055
   0  -5  -1  170767   26951
   0  -5  -2   16960    8044
   0   5   3   64283    8279
   0  -5  -3  131834   22800
   0   5   4   59705   19704
   0   5   5  134541   30187
   0   5   6  139614   27718
   0   5   7   49496   17304
   0   5   8   80743   25947
   0   5   9    3618    5749
   0  -5 -10    2910    7404
   0   5  10    6896   12235
   0  -5 -10    4183    6222
   0  -5 -10     213   10761
   0   5  11   12924   15641
   0  -5 -11   14021    9142
   0  -5 -12     397    8773
   0  -5 -13    4923    8426
   0  -5 -14    2076   10698
   0  -5 -15    2694    8373
   0  -5 -16    1082    4521
   0  -5 -16      15    3515
   0  -6  10    6905    7156
   0  -6   9   15756   10305
   0  -6   8     156   10172
   0   6  -8     156    8012
   0  -6   8     156    8569
   0  -6   7   57272   30877
   0   6  -7   27535   18326
   0  -6   6  105886   38483
   0  -6   5      24    4239
   0  -6   4  172508   39661
   0  -6   3      73    4453
   0  -6   2  541551   59328
   0  -6   1   83485   20878
   0  -6   0  649507   58852
   0  -6  -1  196768   31947
   0  -6  -2  194110   30750
   0  -6  -3  199080   33925
   0   6   3   92235   14947
   0  -6  -4   12234    7496
   0   6   5  305394   44047
   0   6   6  123623   31241
   0   6   7   81507   26537
   0   6   8   86873   26814
   0   6   9   39248   20771
   0  -6 -10    1257    6561
   0  -6 -10    1806    5775
   0  -6 -10     824    6808
   0   6  10    4934   11267
   0  -6 -11    1853    5644
   0   6  11    2854    5403
   0   6  11   15500   18260
   0  -6 -11     479    9184
   0  -6 -11     308   10863
   0  -6 -12    9097   12769
   0  -6 -13    1516    9676
   0  -6 -14    3615    5323
   0  -6 -15    2118    8074
   0  -6 -15    9020   12623
   0  -6 -16    8070    5957
   0  -6 -16     365    3224
   0  -7  10    2808    5669
   0  -7   9    9516    7292
   0  -7   8     258    9612
   0   7  -8     178    6710
   0  -7   7   12715    9874
   0   7  -7     147   10335
   0   7  -7    1192    4320
   0  -7   7   11090   16209
   0  -7   6    9917   12999
   0   7  -6     121    4742
   0   7  -6     121   14998
   0  -7   5   19166   15437
   0  -7   4   17965   14996
   0  -7   3   95136   30254
   0  -7   2   39603   15756
   0  -7   1  196406   35223
   0  -7   0  422671   54860
   0  -7  -1   46880   19357
   0  -7  -2  283149   41521
   0  -7  -3    6611    8691
   0  -7  -4  161474   34984
   0  -7  -5   78030   23385
   0  -7  -6   72925   23744
   0   7   6   72925   24943
   0   7   7   85032   28763
   0   7   8   33095   18605
   0  -7  -9   63152   29646
   0   7   9   96720   32963
   0  -7  -9   50544   21676
   0  -7 -10    2299    7954
   0  -7 -10   14794   12563
   0   7  10    4446   11614
   0  -7 -10    1390    7553
   0   7  10    7653    6853
   0   7  11   68280   30409
   0   7  11   89424   19145
   0  -7 -11   47948   20395
   0  -7 -11   66418   21068
   0  -7 -11   20923   18469
   0   7  12     176    8718
   0  -7 -12     486    7378
   0  -7 -13   24760   16218
   0  -7 -14    5137    7998
   0  -7 -15    4611    6550
   0  -7 -15   15551   15542
   0  -7 -16   12437    5210
   0  -8   9     766    5105
   0   8  -8   14126   13148
   0  -8   8   10198    9518
   0  -8   7   21239   12796
   0   8  -7     337    6311
   0   8  -6   15785    4415
   0   8  -6    3707    9235
   0   8  -5     372    8400
   0   8  -5      97    6301
   0  -8   5   10335   13443
   0  -8   4   15862   16413
   0  -8   3   12418   12321
   0  -8   2    6139    3110
   0  -8   1  117140   34711
   0  -8   0   65794   20823
   0  -8  -1  106564   25868
   0  -8  -2    4143    8102
   0  -8  -3   86650   29250
   0  -8  -4  110327   27567
   0  -8  -5  107827   28914
   0  -8  -6  143803   37528
   0  -8  -7   33355   20200
   0  -8  -8  130848   36288
   0  -8  -9    5701    9064
   0  -8  -9    5978    9108
   0  -8  -9   10489   12488
   0  -8 -10   70805   24983
   0   8  10   36740   15535
   0  -8 -10   22477   21130
   0  -8 -10   16006   11186
   0  -8 -10   18730   15667
   0   8  11   25035   13523
   0  -8 -11   17967   15252
   0  -8 -11   26085   17157
   0  -8 -11    6537    9565
   0   8  12   26148   10704
   0  -8 -12    6673   11381
   0  -8 -12   17908   16164
   0  -8 -12    8696   10744
   0  -8 -13   16757   14377
   0  -8 -14    2991    6601
   0  -8 -15   10720   10531
   0  -8 -16    1150   10763
   0   9 -11    1216     664
   0  -9   9   13083    8522
   0  -9   8    7137    7540
   0  -9   7   27765   12937
   0  -9   6   42752   17734
   0  -9   5   19515   21410
   0  -9   4   44357   24821
   0   9  -4   24586   11875
   0  -9   3     231    7484
   0   9  -3     231    4578
   0  -9   2   67348   28975
   0  -9   1    8055    7620
   0  -9   0  122634   33364
   0  -9  -1   47143   21759
   0  -9  -2   10138   10778
   0  -9  -3   69896   23938
   0  -9  -4   18791   14353
   0  -9  -5   79822   28921
   0  -9  -6    8260    9704
   0  -9  -7   77465   29157
   0  -9  -8    1122    6688
   0  -9  -9    3308   10176
   0  -9  -9     101    9721
   0  -9  -9     101    4397
   0  -9  -9    5658   14351
   0  -9 -10   26504   15553
   0  -9 -10   32544   25233
   0  -9 -10   46403   24082
   0   9  11    5502    7572
   0  -9 -11     480   14130
   0  -9 -11    7103   15015
   0  -9 -11    3344    3817
   0  -9 -12   13989   11196
   0  -9 -12    3162   11700
   0   9  12   20942   11421
   0  -9 -12   17572   17793
   0  -9 -13   10217    9575
   0  -9 -14    5170    7588
   0  -9 -15    3605    6024
   0  -9 -15  143395   29173
   0  -9 -16    1605   12098
   0  10 -10     280    1286
   0  10  -9    1778    3326
   0 -10   9     265    3799
   0 -10   8      49    7311
   0  10  -8    2389    3821
   0 -10   7   23963   13850
   0 -10   6    9214   10797
   0 -10   5   65852   19043
   0  10  -3   22484   10200
   0 -10   3   20111   13389
   0 -10   2   10972   12976
   0  10  -2    7259    5128
   0 -10   1   42974   22157
   0  10  -1   26323    8926
   0 -10   0  155078   42798
   0 -10  -1   23162   15445
   0 -10  -2   96522   33600
   0 -10  -3   17975   15417
   0 -10  -4  183546   45628
   0 -10  -5   85519   30685
   0  10   5   54974   14127
   0  10   6     336    2868
   0 -10  -6     173    6733
   0  10   7   17476    8415
   0 -10  -7   14309    9090
   0 -10  -8   11013   13545
   0  10   8    4959    5337
   0 -10  -9    6561    8579
   0 -10  -9    4289    6482
   0 -10  -9    9946   15613
   0 -10  -9   20498   23229
   0 -10 -10   27943   20216
   0 -10 -10    2776   14798
   0 -10 -10     872    9477
   0 -10 -11    3863    7926
   0  10  11    9474    9114
   0 -10 -11    9866   10132
   0 -10 -11   10329   12764
   0  10  12      79    4023
   0 -10 -12     972    4904
   0 -10 -12      79    8522
   0 -10 -12    1311    7017
   0 -10 -13     549    3610
   0 -10 -14    3702    5047
   0 -10 -15    6483   12112
   0  11  -9      26     906
   0  11  -8       8    1925
   0 -11   8       8    6854
   0  11  -7    2884    2460
   0 -11   7     228    4716
   0 -11   6     384    6202
   0  11  -6     118    4422
   0  11  -5     410    3365
   0 -11   5    3864    8142
   0 -11   4   13191   10854
   0  11  -4     154    3029
   0  11  -3    3058    3945
   0 -11   2    3672    9860
   0  11  -2    5575    5373
   0  11  -1   28991   11114
   0 -11   1   34704   21729
   0 -11   0    5897    4237
   0  11   0      76    3080
   0 -11  -1    6112    9996
   0  11   1      43    5233
   0  11   2    2731    2915
   0 -11  -2    1470    7555
   0  11   3    9996    6765
   0 -11  -3    1920    5440
   0 -11  -4   34543   20982
   0  11   4   17390    7009
   0 -11  -5   56406   27311
   0  11   5   40521   12498
   0 -11  -6   48038   24535
   0  11   6   56368   14883
   0 -11  -7   15200   12910
   0  11   7   17649    8292
   0  11   8   53196   14533
   0 -11  -9    5261    6412
   0 -11  -9    3753   13863
   0 -11  -9    6021   20500
   0 -11 -10    1635    7486
   0 -11 -10    2835    5471
   0 -11 -10   18771   19847
   0 -11 -11    8165   15994
   0  11  11   10338    6480
   0 -11 -11    4705    6067
   0 -11 -11    6708   10656
   0 -11 -12    1542    6119
   0  11  12   19596    9259
   0 -11 -12    5851   10601
   0 -11 -12     248   14731
   0 -11 -13    7276    5620
   0 -11 -14     123   12063
   0 -11 -15   49564   13972
   0  12  -7    5506    4040
   0 -12   7   13257    7657
   0 -12   6   16146   10383
   0  12  -6     758    3900
   0 -12   5   11285    9759
   0  12  -5     968    3376
   0 -12   4     511    5336
   0  12  -4    9819    5940
   0 -12   3   25147   12986
   0  12  -3     823    2298
   0  12  -2    9264    5880
   0  12  -1    3484    5045
   0  12   0    8174    5589
   0  12   1    8536    6698
   0 -12  -2    4521   20014
   0  12   2    6889    6102
   0  12   3    4667    6612
   0 -12  -3   12174   13087
   0  12   4   18191    8563
   0 -12  -4   14204    9206
   0 -12  -5   12245   16628
   0  12   5   15507    9475
   0  12   6   12853    8060
   0  12   7    6109    3902
   0 -12  -8    4271   12004
   0 -12  -9    7189   10320
   0 -12  -9   40322   26141
   0 -12  -9   55780   25754
   0 -12 -10     501    3377
   0 -12 -10    5657    9002
   0 -12 -10   10279   10468
   0 -12 -11     306   12031
   0  12  11    2740    4648
   0 -12 -11    5824    5077
   0 -12 -11    1927   14738
   0  12  12   13378    7958
   0 -12 -12    6736    7075
   0 -12 -12    8242    9905
   0 -12 -12    6964    5995
   0 -12 -13     185   11176
   0 -12 -14     169   11778
   0 -12 -15    3741    4919
   0  13  -6      11    2075
   0 -13   6    6802    5646
   0 -13   5   19302    9772
   0  13  -5    3269    3570
   0 -13   4    3914    6375
   0  13  -4     451    2530
   0 -13   3    2478    5166
   0  13  -3    4635    3622
   0  13  -2    8188    6964
   0 -13   2   22242   11399
   0 -13   1   29254   11935
   0  13  -1   17604    9079
   0  13   0    8401    6962
   0 -13   0   24828   10607
   0  13   1    1659    2519
   0  13   2   15614    7782
   0  13   3    6113    6040
   0  13   4    6527    5424
   0  13   5   29279   11997
   0  13   6    3217    4444
   0  13   7    4732    6675
   0 -13  -8    4616    5179
   0 -13  -8    1659   11258
   0 -13  -9   14339   10045
   0 -13  -9     366    4093
   0 -13  -9    4346   16267
   0 -13 -10    3798    5451
   0 -13 -10     222   10738
   0 -13 -10      54    7033
   0 -13 -11      87   10675
   0 -13 -11    1649    7655
   0 -13 -11   10369   12093
   0  13  11    1973    3369
   0 -13 -12      34    4600
   0  13  12      34    2786
   0 -13 -13      24    8899
   0 -13 -14      15    6471
   0 -14   5     104    5442
   0  14  -5     104    1752
   0  14  -4     427    1545
   0 -14   4     948    3524
   0 -14   3   10444    7488
   0  14  -3    6194    4664
   0 -14   2    7595    6773
   0  14  -2    3249    3440
   0 -14   1   47974   12972
   0  14  -1   48880   12778
   0 -14   0       9    3228
   0  14   0    3632    4797
   0  14   1   22716    9401
   0  14   2   10159    6856
   0  14   3    1686    3586
   0  14   4    6116    4752
   0  14   5    3790    3401
   0  14   6    1469    3199
   0 -14  -6    3838    6088
   0 -14  -7      76    8812
   0  14   7      76    4293
   0 -14  -8      37    3010
   0 -14  -8   14402   12387
   0 -14  -9    5554   10353
   0 -14  -9    7434    6585
   0 -14 -10    1194    5133
   0  14  10      12    3832
   0 -14 -10      12   10242
   0  14  11    1305    3884
   0 -14 -11     196    6766
   0 -14 -11    1970    4989
   0  14  12      18    4905
   0 -15   3      32    3283
   0  15  -3    1476    1205
   0 -15   2   10235    5082
   0  15  -2   13533    5121
   0  15  -1    6387    4195
   0 -15   1    7540    4735
   0  15   0    2978    3390
   0  15   1    6654    4593
   0  15   2    8799    4492
   0  15   3   27370   10173
   0  15   4     185    3270
   0  15   4      53    2629
   0  15   5   20268    7445
   0 -15  -6    2980    4685
   0  15   6    2410    2017
   0 -15  -7    3178    3901
   0 -15  -8     278    7355
   0 -15  -8    4442    8257
   0 -15  -9      26    5243
   0 -15  -9     730    5701
   0 -15 -10    6455    4739
   0  15  10   10880    5861
   0 -15 -10    7658    4848
   0  15  11      49    2348
   0 -15 -11      49    4900
   0  16  -1     385     707
   0  16   0    3160    2754
   0  16   1       7    1862
   0  16   2    3927    2785
   0  16   2    8242    4187
   0  16   3      23    1713
   0  16   3    5259    2888
   0  16   4   23770    7118
   0  16   5    8026    4615
   0 -16  -6   17656    9155
   0 -16  -7    8192    7681
   0 -16  -7       2    2796
   0 -16  -8    3274    3823
   0 -16  -8      13    4557
   0 -16  -9    3446    3943
   0  16   9    6632    3383
   0 -16 -10    2629    2137
   0  17   5       5    1938
  -1  16   8    9189    5157
   1 -16  -8      44    1686
   1 -16  -7    1166    1650
   1 -16  -6     113    3984
   1 -16  -5     245    3230
  -1  16   4      22    1578
  -1  16   3   31129    8804
  -1  16   2    6801    4897
  -1  16   1    3411    1806
  -1  16   1   12070    5694
  -1  16   0   13711    5160
  -1  16  -1    1505    1318
   1 -15 -10    3190    4889
  -1  15  10    9061    4699
   1 -15  -9    1363    4114
  -1  15   9    9039    6529
   1 -15  -8   15530   11095
   1 -15  -8    1398    4597
   1 -15  -8   14979    7935
   1 -15  -7      48    4665
   1 -15  -7    1965    9074
   1 -15  -7    3237    3869
  -1  15   6   14035    8095
  -1  15   5    9662    5151
  -1  15   4   14049    6564
  -1  15   3   20404    8261
  -1  15   2       3    3426
  -1  15   1    3296    2526
  -1  15   0       1    3267
  -1  15  -1   10818    5045
  -1  15  -2     936    2914
  -1  15  -3    4420    3395
   1 -14 -11    4620    6651
   1 -14 -10    1031    7339
   1 -14 -10      79    3826
  -1  14  10    7028    5450
   1 -14 -10     283    8000
   1 -14  -9   13811    8778
   1 -14  -9   10781    7897
   1 -14  -9   11472   12262
   1 -14  -8    3866   11151
   1 -14  -8     505    5090
   1 -14  -8    3258    3314
   1 -14  -7   64374   22858
   1 -14  -7   32069   13675
   1 -14  -6    4128    6236
  -1  14   6    5403    5179
   1 -14  -5    5236    6439
  -1  14   5    8638    7075
  -1  14   4   42640   12825
  -1  14   3      40    2426
  -1  14   2   17664    8449
  -1  14   1    2925    3534
  -1  14   0   20637    8687
   1 -14   1   15838    8145
  -1  14  -1   17671    8521
   1 -14   2   12145    7620
  -1  14  -2    2069    2826
   1 -14   3    2066    4032
  -1  14  -3    2680    3618
   1 -14   4       4    7786
  -1  14  -4     591    1965
  -1  14  -5    1299    1929
   1 -13 -13    7713    6627
   1 -13 -12    2222    3385
   1 -13 -12   34665   10861
   1 -13 -11      42    5658
  -1  13  11    1005    5558
   1 -13 -11    5363    4064
  -1  13  10   23800   10009
   1 -13 -10    7794    7599
   1 -13 -10   17681    6335
   1 -13 -10   15912   14403
   1 -13  -9    2971    9940
   1 -13  -9    4016   12561
   1 -13  -9      13    3491
   1 -13  -8   63595   25157
   1 -13  -8   61992   24434
   1 -13  -8   10240   14297
   1 -13  -7   60883   22246
  -1  13   7   45436   14256
   1 -13  -6    5196    9144
  -1  13   6    1145    3293
   1 -13  -5   59051   17495
  -1  13   5   43863   14199
  -1  13   4    7767    6684
  -1  13   3   59423   15760
  -1  13   2    1553    3355
  -1  13   1   18046    9362
  -1  13   0   17377    9137
   1 -13   0   19636    9171
  -1  13  -1    8628    7234
   1 -13   1   10784    7981
  -1  13  -2   49720   12758
   1 -13   2   42228   13168
  -1  13  -3    2060    5244
   1 -13   3     111    8099
  -1  13  -4    7454    4881
   1 -13   4       5    6313
  -1  13  -5      27    2529
   1 -13   5   10967    7990
   1 -13   6      28    5119
  -1  13  -6    1155    2001
  -1  13  -7    3252    2750
   1 -12 -14     421    6344
   1 -12 -13   41973   13557
   1 -12 -13    9205    5159
   1 -12 -12    4399    6335
   1 -12 -12   45068   16282
   1 -12 -11    5188   12096
   1 -12 -11      29    6261
   1 -12 -11    3201    5000
  -1  12  11   13271    8598
   1 -12 -10    5111    8514
  -1  12  10   30840   13449
   1 -12 -10   32966   14150
   1 -12 -10   39923   19619
   1 -12  -9   10893   13593
   1 -12  -9    4057   11631
   1 -12  -9      74    5277
   1 -12  -8   35442   18345
   1 -12  -8   31621   23564
  -1  12   7    2040    5211
   1 -12  -7     120   10085
  -1  12   6   67466   18150
  -1  12   5    1875    4072
  -1  12   4   89850   19407
  -1  12   3   42951   14370
   1 -12  -3   39012   23740
  -1  12   2   16883    8436
  -1  12   1   14345    8246
  -1  12   0       1    2676
   1 -12   0   11073    7165
  -1  12  -1  106027   20755
   1 -12   1   75733   17920
  -1  12  -2     101    2576
   1 -12   2   18360   10832
  -1  12  -3   17449    9062
   1 -12   3   20191   11869
  -1  12  -4   19701    8945
   1 -12   4   40412   15488
   1 -12   5   28522   13566
  -1  12  -5   13266    8009
   1 -12   6   22031   11013
  -1  12  -6   12494    6527
   1 -12   7    4279    5610
  -1  12  -7    4412    3944
  -1  12  -8    1567    1421
   1 -11 -15    4152    6102
   1 -11 -14    4668    2281
   1 -11 -14   49014   15593
   1 -11 -13    2300    6487
   1 -11 -13   30221   17247
   1 -11 -12     748    5353
   1 -11 -12     694   10276
  -1  11  11   10750   10647
   1 -11 -11    3910    8455
   1 -11 -11    6621   11037
   1 -11 -11    9166   15664
  -1  11  10    4097    5479
   1 -11 -10    1765   11998
   1 -11 -10     157    9284
   1 -11 -10   10199    7675
   1 -11  -9   18054   12625
   1 -11  -9   12672    8528
   1 -11  -9   14012   19837
   1 -11  -8   24147   21471
   1 -11  -7   10882   14183
   1 -11  -7    4638    9061
  -1  11   7    3181    5445
   1 -11  -6   58559   26647
  -1  11   6   61654   16263
  -1  11   5   14463    8047
   1 -11  -5    7002    4741
  -1  11   4    5003    6882
   1 -11  -4     933    5434
  -1  11   3    9829    6154
   1 -11  -3   24872   15392
   1 -11  -2     113    8835
  -1  11   2    1973    4787
   1 -11  -1    8820   11784
  -1  11   1    2835    4664
   1 -11   0    2712    5901
  -1  11   0    3162    4793
   1 -11   1   45164   24517
  -1  11  -1   35303   12116
  -1  11  -2      28    3917
   1 -11   2      28   11920
  -1  11  -3    2541    2383
   1 -11   3   21283   11234
  -1  11  -4    2466    5195
   1 -11   4    7006    8156
   1 -11   5   22142   12352
  -1  11  -5   17758    8510
   1 -11   6   20081   11586
  -1  11  -6     142    3237
  -1  11  -7    7028    5566
   1 -11   7   17678   11071
   1 -11   8      39    9437
  -1  11  -8    1591    1890
  -1  11  -9    1725    2565
   1 -10 -15     649   11364
   1 -10 -14    2353    6246
   1 -10 -14   58128   21301
   1 -10 -13    2340    4507
   1 -10 -12    2228    4787
   1 -10 -12    4289   10863
   1 -10 -11     434   12695
  -1  10  11    4458    7392
   1 -10 -11     434   12320
   1 -10 -11    3473    7522
   1 -10 -10   11229    8539
   1 -10 -10    7132    7851
   1 -10 -10    4104   12916
  -1  10  10   23554   11001
   1 -10  -9   15131   19045
   1 -10  -9    2740    8963
   1 -10  -9    9287   15273
   1 -10  -8    6584   12994
   1 -10  -8    2581    5301
   1 -10  -7   37244   20780
  -1  10   7   42000   13714
   1 -10  -6    1404    6088
  -1  10   6    6877    4131
  -1  10   5   42053   12891
   1 -10  -5   49416   22718
  -1  10   4    7902    4929
   1 -10  -4   11603   10547
   1 -10  -3   26722   17872
   1 -10  -2    6667    4671
   1 -10  -1    2774   12510
  -1  10   0   13781    7982
   1 -10   0   18604   14677
  -1  10  -1    1983    4433
   1 -10   1       3    8791
  -1  10  -2    7455    6155
   1 -10   2   11374   12045
  -1  10  -3   18780    8346
   1 -10   3    9261   12079
   1 -10   4      16    6195
   1 -10   5   28470   14703
   1 -10   6     791    6295
   1 -10   7     120   10946
   1 -10   8      55    4978
  -1  10  -9    2144    3302
  -1  10 -10       4    1466
   1  -9 -16     627    1460
   1  -9 -15   10586   12931
   1  -9 -15     641    4487
   1  -9 -14    3014    4832
   1  -9 -14    3458   15971
   1  -9 -13   31340   11258
   1  -9 -12    3085    9322
   1  -9 -11   21064   19936
   1  -9 -11    9980   12659
   1  -9 -11    4287    9711
   1  -9 -10    5408   10844
   1  -9 -10    9427   11137
  -1   9  10   16972    8992
   1  -9 -10   21352   17794
   1  -9  -9    7210   11743
   1  -9  -9   20985   19470
   1  -9  -9    2792    4156
   1  -9  -9   26798   21193
   1  -9  -8    4287   14160
   1  -9  -8    1994   15207
   1  -9  -8    3990    9457
   1  -9  -7    6051   13106
  -1   9   7    5722    5204
   1  -9  -6   26612   15328
   1  -9  -5   11208   12272
   1  -9  -4   21319   13316
   1  -9  -3   53210   21849
   1  -9  -2    6386   10496
   1  -9  -1   29533   14653
   1  -9   0   12036   11023
   1  -9   1   24505   15724
   1  -9   2   39805   21082
   1  -9   3    1641    7033
   1  -9   4   45670   26941
   1  -9   5    8972    8280
   1  -9   5    9148   13770
   1  -9   6   53375   18575
   1  -9   7   19365   12855
   1  -9   8   23696   13282
   1  -9   9   28123   12457
  -1   9 -11    4051    3469
   1  -8 -16    1303    3743
   1  -8 -15    2001    3631
   1  -8 -15   12196   14785
   1  -8 -14   32836   23152
   1  -8 -14     849    4638
   1  -8 -13   12320   11074
   1  -8 -12     778    5606
   1  -8 -11    2555   11444
   1  -8 -11    5582    9027
   1  -8 -11    8245   13049
   1  -8 -10    7368   13672
   1  -8 -10    8377   17374
   1  -8 -10     518    8035
   1  -8 -10    3878    7938
   1  -8  -9   33597   21802
   1  -8  -9   59090   23058
   1  -8  -9   37376   17724
   1  -8  -8    4395   15511
   1  -8  -8     493    4549
   1  -8  -8     493    3112
   1  -8  -8    7070   11229
   1  -8  -7   46751   23316
   1  -8  -6   48786   20151
   1  -8  -5   15596   11791
   1  -8  -4  103288   30908
   1  -8  -3    4271    6405
   1  -8  -2   70563   23172
   1  -8  -1   23431   14659
   1  -8   0  317904   52122
   1  -8   1  167505   37538
   1  -8   2   25479   15250
   1  -8   3   74143   28665
   1  -8   4       6    4187
   1  -8   5   25665   22390
   1  -8   6    9644   13104
   1  -8   6   13593   10164
   1  -8   7     100    5291
   1  -8   8   19865   12504
   1  -8   9   12918   10278
   1  -7 -16    2886    3789
   1  -7 -16    1067    3245
   1  -7 -15       4    6718
   1  -7 -15   12920   14116
   1  -7 -14    7011   15957
   1  -7 -14    3483    9937
   1  -7 -13    2880    7104
   1  -7 -12     801    7055
   1  -7 -11    5496    8445
   1  -7 -11     881    9679
   1  -7 -11    5250   12342
   1  -7 -10    4015    8731
  -1   7  10    8333   11067
   1  -7 -10    4558   13469
   1  -7 -10   10091    9605
   1  -7  -9   17685   17741
   1  -7  -9   11358   13267
   1  -7  -9   21276   15685
  -1   7   9    9584   11929
  -1   7   8    8302   12695
   1  -7  -7   33897   17182
   1  -7  -6    2709    3742
   1  -7  -5  159818   36212
   1  -7  -4    3827    2816
   1  -7  -3   29561   12682
   1  -7  -2  111558   29511
   1  -7  -1   11869   12792
   1  -7   0  280911   40892
   1  -7   1   14182   11820
   1  -7   2  139720   34272
   1  -7   3    2249    5270
   1  -7   4   88663   31005
   1  -7   5    8914   10315
   1  -7   6      23    8649
   1  -7   7   21809   12286
   1  -7   7    7249   14261
   1  -7   8   14730   11478
   1  -7   9   25037   12432
   1  -7  10    2900    5936
   1  -6 -16     314    4514
   1  -6 -16    6976    4996
   1  -6 -15    5190    5919
   1  -6 -14     754    7539
   1  -6 -14     754   15823
   1  -6 -13   12486   13102
   1  -6 -12   30630   16215
   1  -6 -11    3701    7819
   1  -6 -10    5163    5112
   1  -6 -10    6827    7483
  -1   6  10    5318    5003
   1  -6 -10    5451    6900
   1  -6  -9    2992    5394
   1  -6  -9    6092    7531
  -1   6   9    7754   10556
  -1   6   8   84869   26296
  -1   6   7   33015   16775
  -1   6   6   50628   19246
  -1   6   5   70588   22114
   1  -6  -5   66063   20936
   1  -6  -4  141514   27827
   1  -6  -3  129405   28203
   1  -6  -2    2097    6137
   1  -6  -1  294198   37633
   1  -6   0   64109   20688
   1  -6   1  246957   39856
   1  -6   2  164404   29796
   1  -6   3   29366   13475
   1  -6   4   49178   21909
   1  -6   5   34119   20551
   1  -6   6  127251   39660
   1  -6   7   12819    8635
   1  -6   7      13    7428
   1  -6   8   50745   16361
   1  -6   8   56678   32769
   1  -6   9   22936   12360
   1  -6  10    2383    5303
   1  -5 -16    4579    4430
   1  -5 -16     167    3729
   1  -5 -15     524    5960
   1  -5 -14   69550   20819
   1  -5 -14    3502    9473
   1  -5 -13    7153    8957
   1  -5 -12     574    6948
   1  -5 -11   12892   11110
  -1   5  10     141    8842
   1  -5 -10      52    7715
   1  -5 -10      52    8132
   1  -5 -10      52    4179
  -1   5   9   28329   17476
  -1   5   8   93442   27686
  -1   5   7    4546    6407
  -1   5   6  127051   28978
  -1   5   5   21606   10269
  -1   5   4   89904   22591
   1  -5  -3   76708   19395
   1  -5  -2   34504   12399
   1  -5  -1   12755    8939
   1  -5   0  288910   35156
   1  -5   1  255518   32809
   1  -5   2   11345    6984
   1  -5   3  102209   26360
   1  -5   4   20091   13760
   1  -5   5  191813   40622
   1  -5   6  116289   35850
   1  -5   7   34889   24080
   1  -5   8   23708   10524
   1  -5   8   21716   10336
   1  -5   8   22801   20175
   1  -5   9   12119    8386
   1  -5   9   10399   18583
   1  -5  10   24996   11871
   1  -4 -16    1947    3415
   1  -4 -16    5084    5233
   1  -4 -15    4741    8039
   1  -4 -15     591    6826
   1  -4 -14    4914   11585
   1  -4 -13       7    6316
   1  -4 -12    7672   10407
   1  -4 -11    4745    8787
   1  -4 -10    6727    8126
  -1   4  10     468    6762
  -1   4   9   37451   19076
  -1   4   8    4741    9808
  -1   4   7  109487   28261
  -1   4   6   11218    7637
  -1   4   5   52267   16614
  -1   4   4    2846    5656
  -1   4   3    4512    5030
   1  -4  -2   24285    9877
   1  -4  -1    1521    3886
   1  -4   0   28942   10224
   1  -4   1   23794    9875
   1  -4   2  317971   37030
   1  -4   3   61101   17926
  -1   4  -3   28610    5281
   1  -4   4   13137    9654
  -1   4  -4   10138    4849
   1  -4   5  153151   34753
   1  -4   6    7370    9179
   1  -4   7   44256   20166
   1  -4   8   13225   11261
   1  -4   9   13989    9426
   1  -4   9   13329    9083
   1  -4  10     376    6234
   1  -4  10     376   14804
  -1   4 -10     376   13791
  -1   4 -11     150    9671
   1  -3 -16    2248    4752
   1  -3 -15    6336   10452
   1  -3 -15    1694    5385
   1  -3 -14    8493   15644
   1  -3 -13   15586   17032
   1  -3 -12   33551   16836
   1  -3 -11     184    6529
   1  -3 -11     306   18747
  -1   3  10   13275   10757
   1  -3 -10   12717   12318
  -1   3   9    1789    6064
  -1   3   8    5463    7167
  -1   3   7    4710    3903
  -1   3   6   65877   18160
  -1   3   5   53528   15801
  -1   3   4  347332   37848
  -1   3   3   41667   12534
  -1   3   2   25951    9852
   1  -3  -1   19702    6723
   1  -3   0     199    3439
   1  -3   1   42756    9876
  -1   3  -2  201283   11338
   1  -3   2  331063   30924
   1  -3   3   67348   17409
   1  -3   4   29831   11407
   1  -3   5    4297    6530
   1  -3   6  152286   33737
   1  -3   6  167455   36389
   1  -3   7   71930   28236
  -1   3  -7   45337   19358
   1  -3   8   17660   20306
  -1   3  -9    8374   12897
   1  -3   9    1381    8347
   1  -3  10    7891   20418
  -1   3 -10    3706    6962
  -1   3 -10     535   10243
  -1   3 -11   13189    9800
  -1   3 -12      94   11834
   1  -2 -16     868    6773
   1  -2 -15    2142    6603
   1  -2 -15    2759    5821
   1  -2 -14    6764   11271
   1  -2 -14      53    5134
   1  -2 -13   10744   15228
   1  -2 -12    9957   12750
   1  -2 -11   54373   27429
   1  -2 -11   66420   20453
  -1   2  10     620    8852
   1  -2 -10     936    7854
  -1   2   9   80216   28964
  -1   2   8   41004   16598
  -1   2   7      80    5844
  -1   2   6  119314   25847
  -1   2   5   77473   16930
   1  -2  -5   40599    6712
   1  -2  -4   29567    7694
  -1   2   4   33262   10568
   1  -2  -4   18713    5071
  -1   2   3  132439   20469
   1  -2  -3   82710    7887
  -1   2   2  358219   29723
   1  -2   0    8291    2593
   1  -2   0    9497    1927
   1  -2   1  873854   38871
   1  -2   2  265221   24290
   1  -2   3  106635   18267
   1  -2   4   13879    8082
   1  -2   5   90979   12460
   1  -2   5  113570   26806
   1  -2   5  109125   24493
   1  -2   6   24203   14457
   1  -2   7   43559   18691
   1  -2   8   83078   28054
  -1   2  -9   18587   11245
   1  -2   9   17898   12232
  -1   2 -10   16144   14604
  -1   2 -10   12541    9300
   1  -2  10    5609   15383
  -1   2 -11   17811    9233
  -1   2 -11    5407    9577
   1  -2  11    1043   17586
  -1   2 -12    4335   14231
  -1   2 -12   13522    9381
  -1   2 -13     130    6974
   1  -1 -15    1778    7518
   1  -1 -15    1319    5099
   1  -1 -14    1903    8522
   1  -1 -14    2735    7381
   1  -1 -13    5165   13690
   1  -1 -13     777    6734
   1  -1 -12     685   10299
   1  -1 -11     293   11633
   1  -1 -11     678    9242
   1  -1 -10   48288   17870
   1  -1 -10   26691   21235
  -1   1  10   30415   24661
  -1   1   9   40748   19003
  -1   1   8   29756   15354
  -1   1   7   64961   21172
  -1   1   6    7070    5562
  -1   1   5  208625   26977
   1  -1  -4   42704    6307
  -1   1   4   97201   17717
   1  -1  -3     896    2505
  -1   1   3     299    2787
  -1   1   2  410554   22983
   1  -1  -2  450727   23753
   1  -1  -1   13221    1674
  -1   1   1   16312    1681
   1  -1   0  484246   21484
   1  -1   0  500941   22133
   1  -1   1   44148    4700
   1  -1   2  702358   36388
   1  -1   3  139959   20732
   1  -1   4   61778    7830
   1  -1   4   82207   18840
   1  -1   4   78818   16267
   1  -1   5   29292   11676
   1  -1   6    1862    5737
   1  -1   7   51442   19557
   1  -1   8     328    4664
   1  -1   9  125429   39132
   1  -1  10   17379   15309
  -1   1 -10   12874   11887
   1  -1  11   66153   35393
  -1   1 -11   89522   30271
  -1   1 -11   23564   10054
  -1   1 -12   58814   22276
  -1   1 -12   14629   10061
  -1   1 -13   13061    9167
  -1   1 -13   19163   19359
  -1   1 -14      89    8462
   1   0 -15     176    8957
   1   0 -14    8903    8258
   1   0 -14     659    6963
   1   0 -13   16154   17038
   1   0 -13    1508    5148
   1   0 -12   16163   12141
   1   0 -12   10045   16222
   1   0 -11    8778   15543
   1   0 -11    2116   10022
   1   0 -10   21072    9175
  -1   0  10   12925   13062
   1   0 -10   14025   10473
   1   0  -9    9804   14388
  -1   0   9     741    7988
  -1   0   8   17740   13720
  -1   0   7   11484    7639
  -1   0   6  237904   32453
  -1   0   5  143407   25137
  -1   0   4   96519   17558
  -1   0   3   70399   10071
   1   0  -3   47472    5265
  -1   0   2   71186    6166
   1   0  -2   67672    4582
   1   0  -1  139502   15796
  -1   0   1  155220   15001
   1   0   0 1453202   27492
   1   0   0 1439647   27470
   1   0   0 1465257   27634
   1   0   1  583718   14631
   1   0   1  595295   14768
   1   0   2  341457   27964
   1   0   2  263952   17073
   1   0   3    5948    2713
   1   0   3    6494     901
   1   0   4  649559   44466
   1   0   5  223338   31728
   1   0   6  221311   34868
   1   0   7  192102   34488
   1   0   8   29067   14400
   1   0   9   84820   29494
   1   0  10   20902   16965
   1   0  11   70073   34801
  -1   0 -11   44466   20777
  -1   0 -12    3149   11849
  -1   0 -13   56766   27093
  -1   0 -13    6673    6176
  -1   0 -14      75   12377
  -1   0 -14    6627    6858
  -1   0 -15      51    7797
   1   1 -14      62   12091
   1   1 -13   12269   15876
   1   1 -13    4040   11188
   1   1 -13    5478    7070
   1   1 -12    6160    8135
   1   1 -12   16748   17560
   1   1 -11   14648   10153
   1   1 -11     519    7867
   1   1 -10    9801   11783
   1   1 -10   27751   20144
   1   1  -9    5498   11413
   1   1  -9    4996    9472
  -1  -1   9    6318   15656
   1   1  -8   20474   12539
  -1  -1   8   29723   16006
   1   1  -7   21294   16023
  -1  -1   7   29417   17801
  -1  -1   6  131699   28845
  -1  -1   5    2138    2857
  -1  -1   4   30690    8646
  -1  -1   3   45318   13174
  -1  -1   3   51230   14938
  -1  -1   2  425046   33889
   1   1  -1  750995   29559
  -1  -1   1  730889   23809
   1   1  -1  689921   22139
  -1  -1   0   54280    1426
   1   1   0   47226    1768
   1   1   1  509768   31490
   1   1   1  548796   31770
   1   1   1  490078   30963
   1   1   2   30681    2014
   1   1   2   37512    1678
   1   1   3  583944   30439
   1   1   4  601294   45913
   1   1   5  502524   45492
   1   1   6  560941   50306
   1   1   7   86966   20856
   1   1   8  536993   63415
   1   1   9   56210   22629
   1   1  10   84473   32428
  -1  -1 -11  103045   29703
   1   1  11  100481   38901
   1   1  12   14165   11174
  -1  -1 -12    2420    6467
  -1  -1 -13   30394   21315
  -1  -1 -14     948    3868
  -1  -1 -14      87   10739
  -1  -1 -15   12113    7345
  -1  -1 -15   15233    7561
  -1  -1 -16       8    6712
   1   2 -13    1810    5184
   1   2 -12    3133    9439
   1   2 -12    1486   11392
   1   2 -12   15215   10038
   1   2 -11   43139   22197
   1   2 -11   17307   12902
   1   2 -10    2475    9110
   1   2 -10      79    4487
   1   2  -9  138097   34744
  -1  -2   9  118671   41842
   1   2  -9   75568   31295
   1   2  -9   24310   10668
   1   2  -8   14697   12635
  -1  -2   8   29673   19796
  -1  -2   7   41114   21598
   1   2  -7   15720   15172
  -1  -2   6   44244   16231
   1   2  -6   23852   11944
  -1  -2   5  166314   29679
   1   2  -5  126033   25981
   1   2  -4   37899   14037
  -1  -2   4   40421   14794
   1   2  -3  246702   28569
  -1  -2   3  292895   31742
  -1  -2   2   84454   18507
   1   2  -2   70100   17595
   1   2  -1   20674   10841
  -1  -2   1   31063   12771
  -1  -2   0     777    6361
   1   2   1   58401    3698
  -1  -2  -1   63648    3671
   1   2   2  246444   11094
   1   2   2  247775   15447
   1   2   3  105390   10896
   1   2   4  298396   34870
   1   2   5  571437   45636
   1   2   6   52491   14059
   1   2   7  295344   43581
   1   2   8   19359   12121
   1   2   9  199791   42355
   1   2  10   67206   26077
  -1  -2 -11   10482   12674
   1   2  11   14458   13796
   1   2  12   71673   16948
  -1  -2 -12   65743   27003
   1   2  12   60315   32947
  -1  -2 -13      36    9527
  -1  -2 -14   45240   20093
  -1  -2 -15       2    5725
  -1  -2 -15    2907    4482
  -1  -2 -16    9398    5277
   1   3 -12    8718   11328
   1   3 -12      64   12779
   1   3 -11    1528   12126
   1   3 -11    8394    9856
   1   3 -11    2899   10994
   1   3 -10    5969   12999
   1   3 -10   42295   21067
   1   3 -10    8035    6472
  -1  -3   9   18831   25062
   1   3  -9   22618   19875
   1   3  -9    9881    9399
  -1  -3   8   11096   14313
   1   3  -8   11117   12679
   1   3  -7   22173   14336
  -1  -3   7   49695   22961
  -1  -3   6    4956    8187
   1   3  -6    1460    5346
   1   3  -5  106685   24434
  -1  -3   5  138222   29748
  -1  -3   5  122481   30025
  -1  -3   4   18257   10127
   1   3  -4   12891    8051
  -1  -3   3   39664   14443
   1   3  -3   37043   11543
  -1  -3   2   10015    7698
   1   3  -2    7087    5352
  -1  -3   1 1356749   63375
  -1  -3   0  411991   29800
  -1  -3  -1   28920    9489
   1   3   2 1171726   57319
   1   3   2 1089892   43594
   1   3   3   15012    9609
   1   3   3   11516    5161
   1   3   4  457630   40600
   1   3   5   46867   16172
   1   3   6  235090   36750
   1   3   7   34136   15560
   1   3   8  169702   34321
   1   3   9   52891   21299
   1   3  10   17498    9534
   1   3  11   27867   19581
  -1  -3 -11   18900   13186
   1   3  11   23548   10878
  -1  -3 -12      33    6394
   1   3  12      33    5967
  -1  -3 -13   77942   28348
   1   3  13  122530   22621
  -1  -3 -14     203    7087
  -1  -3 -15   39800   17484
  -1  -3 -15   20007    8802
  -1  -3 -16    3585    4222
   1   3  16    6430    4504
   1   4 -11    3389   16942
   1   4 -11     110   10197
   1   4 -10    2675    9773
   1   4 -10     354   12299
   1   4  -9   18228   15491
   1   4  -9    5446   13025
   1   4  -9    1960    6160
  -1  -4   8  123055   43694
   1   4  -8  139039   34060
   1   4  -8  180214   30161
   1   4  -8   39751   13738
  -1  -4   7    2102   10769
  -1  -4   6   83952   30787
  -1  -4   6   96132   33509
   1   4  -6   41344   18498
   1   4  -5   18795    9736
  -1  -4   5   30028   15026
   1   4  -4  394267   42010
  -1  -4   4  551372   62594
   1   4  -3   91450   17143
  -1  -4   3  109098   23987
  -1  -4   2   46762   14801
  -1  -4   1  449166   41129
  -1  -4   0  171320   24553
  -1  -4  -1  234505   26499
  -1  -4  -2   50952   13981
   1   4   3   29737    6765
   1   4   3   37691   13013
   1   4   4   68946   17325
   1   4   5      43    7220
   1   4   6  248693   36663
   1   4   7    9901    6607
   1   4   8   86469   27476
   1   4   9      70    6496
   1   4  10   38545   20059
  -1  -4 -11     484    6961
   1   4  11   13160    8785
   1   4  11    7704   10507
   1   4  11     192    6204
   1   4  12     225   13785
  -1  -4 -12    7903   10237
  -1  -4 -13   47543   21482
   1   4  14   27568   10050
  -1  -4 -14    2764    5771
  -1  -4 -15   37883   17158
  -1  -4 -16    7579    6015
  -1  -4 -16     626    6033
  -1  -4 -17    8200    3391
   1   5 -11       2   12254
   1   5 -10    2608    8042
  -1  -5   9      46    5278
   1   5  -9      46    9395
   1   5  -9    3914   12486
  -1  -5   8      90    6247
  -1  -5   8    6742    6291
   1   5  -8      39    8007
   1   5  -8      90    9700
   1   5  -7   92654   24547
  -1  -5   7   73981   36155
  -1  -5   6   29205   19163
  -1  -5   6   30212   20571
  -1  -5   5  115064   33993
  -1  -5   4  527448   65740
  -1  -5   3   26590   12701
  -1  -5   2  524164   53367
  -1  -5   1   91947   21643
  -1  -5   0  539626   48322
  -1  -5  -1  285397   33931
  -1  -5  -2      39    3218
  -1  -5  -3   98783   22019
   1   5   3   72366   12906
   1   5   3   89350   22061
   1   5   4    2256    2687
   1   5   4    8487    8842
   1   5   5  420896   47455
   1   5   6  162635   34103
   1   5   7  152458   35496
   1   5   8   59201   20402
   1   5   9   92713   27509
   1   5  10   52527   26544
  -1  -5 -11     465    5125
  -1  -5 -11    2901    5609
  -1  -5 -11     465    4908
   1   5  11     465   16613
   1   5  11      49    4508
  -1  -5 -12   12149    9736
   1   5  12   33241   20935
   1   5  12   30695    9438
  -1  -5 -13    2745    7825
  -1  -5 -14    9096   11456
  -1  -5 -15     662    7609
  -1  -5 -16    5377    4797
  -1  -5 -16     453    3997
  -1  -5 -17    7213    3704
   1   6 -10     157   10013
  -1  -6  10    3525    5227
  -1  -6   9     185    5973
   1   6  -9    5751    9945
   1   6  -8   24043   13644
  -1  -6   8   11103    7221
  -1  -6   7   36956   30290
   1   6  -7   62452   21113
  -1  -6   6    6587    4592
  -1  -6   6       1    8157
  -1  -6   5   12272   11364
  -1  -6   4     118    5910
  -1  -6   3   12041    9248
  -1  -6   2   15950   11062
  -1  -6   1   33873   15486
  -1  -6   0  181787   31198
  -1  -6  -1     241    3360
  -1  -6  -2  234049   36481
   1   6   3     997    3725
  -1  -6  -3    7837    4250
  -1  -6  -4   17407    9408
   1   6   5   94040   27705
   1   6   6   77218   25968
   1   6   7   72694   21632
   1   6   8   22966   11682
   1   6   9  174748   42761
   1   6  10      97    5616
  -1  -6 -10      97    9759
   1   6  11   15786    9425
  -1  -6 -11    1221    5820
  -1  -6 -11    8319    5922
  -1  -6 -11   15388   13208
   1   6  11   11532   11685
   1   6  12     317    6110
  -1  -6 -12    1487    7690
  -1  -6 -12    2380    8046
  -1  -6 -13   33967   15531
  -1  -6 -14     212    6028
   1   6  15   14927    8219
  -1  -6 -15    5588    6402
  -1  -6 -16     843    4136
  -1  -6 -17    3516    3287
  -1  -7  10     311    4382
   1   7 -10    2470    5098
   1   7  -9      18    9849
  -1  -7   9    7314    8154
  -1  -7   8    6041    8228
   1   7  -8     433    9695
   1   7  -7     377    8411
   1   7  -7     377   12238
  -1  -7   7     377    7389
   1   7  -6     134    3058
   1   7  -6     134   11374
  -1  -7   6     134    6330
  -1  -7   6     134    9010
  -1  -7   5   11907   13877
  -1  -7   4    9021   10876
  -1  -7   3    2296    4664
  -1  -7   2   46125   19626
  -1  -7   1  112840   28945
  -1  -7   0   21944   12630
  -1  -7  -1  222034   38166
  -1  -7  -2   42044   16567
   1   7   3   27644   10038
  -1  -7  -3   46530   17005
  -1  -7  -4   54237   20713
  -1  -7  -5    6888    8690
   1   7   6  217617   41598
  -1  -7  -6  200270   38355
   1   7   7   26886   17607
   1   7   8   28004   16572
   1   7   9   17013   12491
  -1  -7 -10      50    5125
  -1  -7 -10   13365   17304
   1   7  10    1709    7457
   1   7  10    2657    4978
  -1  -7 -10    7266   10455
   1   7  11   24690   17998
   1   7  11   48164   16628
  -1  -7 -11    4571   10566
  -1  -7 -11   12195   10085
  -1  -7 -11   44312   20670
   1   7  12   12298    9846
  -1  -7 -12     236    7373
  -1  -7 -12    6231    8887
  -1  -7 -12    6647    6292
  -1  -7 -13   19688   12841
   1   7  13   29709   14515
  -1  -7 -14     313    4593
  -1  -7 -15   18474    4934
  -1  -7 -16   32834   14373
  -1  -7 -17    1088    2579
   1   8 -11      19    2659
   1   8  -9     168   10029
  -1  -8   9    9244    8291
   1   8  -8     775    6979
  -1  -8   8    4895    7407
  -1  -8   7   36384   13462
   1   8  -7    4715   14258
  -1  -8   6   10357   18167
   1   8  -6    1498    6124
   1   8  -6   37546   16663
  -1  -8   6   21856   22731
   1   8  -5    1352    3257
  -1  -8   5    3434    6813
   1   8  -5      48    8995
  -1  -8   4   27290   21677
   1   8  -4   11284    2677
  -1  -8   3    1740    8456
  -1  -8   2   11317    5612
  -1  -8   1   28457   14853
  -1  -8   0   12516   10142
  -1  -8  -1   29955   18782
  -1  -8  -2   63831   24948
  -1  -8  -3   11138    8505
  -1  -8  -4   19306   10767
  -1  -8  -5   70867   26361
  -1  -8  -6       7    8794
  -1  -8  -7   69545   26145
  -1  -8  -8    5249    8267
   1   8   8    8128   11555
   1   8   9   51221   26290
  -1  -8  -9   25006   17398
  -1  -8 -10   45143   26850
  -1  -8 -10   42389   16140
   1   8  10   91157   36574
  -1  -8 -10   41921   20593
  -1  -8 -10   95267   32964
  -1  -8 -11     180    7345
  -1  -8 -11     864   10729
   1   8  11    3849    7434
  -1  -8 -11    4180   11271
   1   8  11     241    6703
  -1  -8 -11     180   13402
  -1  -8 -12   20715   16139
  -1  -8 -12   15186    8286
  -1  -8 -12   29593   13743
   1   8  12   46873   17882
   1   8  13   10809    4591
  -1  -8 -13    6778    8713
  -1  -8 -14    4758    4520
  -1  -8 -15    7195    8304
  -1  -8 -16   45120   16055
   1   9 -10     367    1308
  -1  -9   9     476    3646
  -1  -9   8   12195    8619
  -1  -9   7   14839   10802
   1   9  -6    3860    9729
   1   9  -5   13761   20221
   1   9  -5   30524   12383
  -1  -9   5   45079   29427
   1   9  -4     677    4722
   1   9  -4    5847    5260
  -1  -9   4   12025   13867
   1   9  -3   18386    6375
  -1  -9   3   37417   23211
   1   9  -3    4783   17999
  -1  -9   2   69580   27431
  -1  -9   1    9079   10995
  -1  -9   0  234340   49920
  -1  -9  -1    5920    8656
  -1  -9  -2  134620   33452
   1   9   2   53710   19468
  -1  -9  -3   87662   31519
  -1  -9  -4  125771   37286
  -1  -9  -5  103440   31139
  -1  -9  -6  106703   34401
  -1  -9  -7  140742   39904
  -1  -9  -8   13927   11549
  -1  -9  -9   49652   25524
  -1  -9 -10   20702   19939
  -1  -9 -10   18361   11222
  -1  -9 -10   12705   20154
  -1  -9 -10   34359   28669
  -1  -9 -11    8976    9824
  -1  -9 -11   21121   18924
   1   9  11   34788   14608
  -1  -9 -11   35896   20705
  -1  -9 -12    3838   10739
  -1  -9 -12   15656   10457
  -1  -9 -12     520    9503
   1   9  12    4763    7280
  -1  -9 -13    5694    7994
   1   9  13   40609   12680
  -1  -9 -13    7455    8395
  -1  -9 -13   16786   14212
  -1  -9 -14    5886    7133
  -1  -9 -16   70301   16103
  -1 -10   9      81    5376
   1  10  -9    1294     563
  -1 -10   8    3421    5613
   1  10  -8    4975    3901
   1  10  -7    7235    5341
  -1 -10   7     440    6520
  -1 -10   6   25642   13166
   1  10  -4    4461    5371
   1  10  -4   15481    6197
   1  10  -3   13721    7475
   1  10  -3   10927    7842
  -1 -10   3   17140   16709
   1  10  -2   13314    8782
   1  10  -2   23173    9186
  -1 -10   2   20426   19387
   1  10  -1   89176   16971
   1  10  -1  105981   18494
  -1 -10   1  134177   42176
   1  10   0   11278    6614
  -1 -10   0   25301   15537
  -1 -10  -1  152486   42089
  -1 -10  -2   40397   21584
  -1 -10  -3   39859   21019
  -1 -10  -4  225838   51357
  -1 -10  -5      69    9572
   1  10   6  108241   18680
  -1 -10  -6  161560   44264
   1  10   7   13082    7892
  -1 -10  -7   22333   19284
  -1 -10  -8   22589   17888
   1  10   8   25338   10062
  -1 -10  -9   22572   19099
  -1 -10 -10    6502   16212
  -1 -10 -10   14849   21351
  -1 -10 -11   35386   19985
   1  10  11   17712    8421
  -1 -10 -11   10101    8625
  -1 -10 -11   24622   21223
  -1 -10 -12    4942   15757
   1  10  12    5591    6860
  -1 -10 -12     269   12516
  -1 -10 -13    6558   10705
   1  10  13   25559   10705
  -1 -10 -13   14417    8825
  -1 -10 -16     599   10797
  -1 -11   8    1002    3925
   1  11  -7     135    2992
  -1 -11   7    1628    5480
   1  11  -6    4156    4754
  -1 -11   6    7156    8100
   1  11  -5    1076    1775
  -1 -11   5    3376    7163
   1  11  -4   12339    7180
   1  11  -3    3352    4460
   1  11  -2   11842    6637
   1  11  -1   26112    8818
  -1 -11   1   24882   18669
   1  11  -1   18461    8419
   1  11   0   14795    7305
  -1 -11   0   13619   16302
   1  11   1   22606    8201
  -1 -11  -1   27680   18848
  -1 -11  -2   10155   11080
   1  11   2    2631    2983
  -1 -11  -3  113221   40045
   1  11   3   61450   15118
  -1 -11  -4   37041   20190
   1  11   4   25278    8773
  -1 -11  -5  106693   35213
   1  11   5   91653   17747
  -1 -11  -6   51500   26434
   1  11   6   31585   11357
  -1 -11  -7   33900   24375
   1  11   7   28772   11570
  -1 -11  -8   24720   19262
   1  11   8   25184   10653
  -1 -11 -10   84575   33135
  -1 -11 -10   46372   27025
  -1 -11 -11    8820   12433
   1  11  11     783    7076
  -1 -11 -11      28    8562
   1  11  12   30764   14053
  -1 -11 -12   12505   15358
  -1 -11 -12   30650   15825
  -1 -11 -13    2895    6644
   1  11  13    2922    4349
  -1 -11 -13     130   15093
  -1 -11 -15     526    9492
  -1 -11 -16     630    6147
  -1 -12   7      31    6724
   1  12  -6    2396    2598
  -1 -12   6    4657    6051
   1  12  -5    3148    3185
  -1 -12   5      70    7466
  -1 -12   4   21149   12235
   1  12  -4    8741    6617
   1  12  -3     123    2444
   1  12  -2   17449    7510
   1  12  -1      82    2521
   1  12   0   22187    9879
   1  12   1   10398    6436
   1  12   2     295    2331
  -1 -12  -2     167    9312
   1  12   3    1209    2998
  -1 -12  -3    5545   11363
   1  12   4      90    2700
  -1 -12  -4      90    8692
  -1 -12  -5      23   11403
   1  12   5      23    3385
   1  12   6   53619   13341
   1  12   6   78881   17831
   1  12   7    5048    5734
  -1 -12 -10     251    8827
  -1 -12 -10    8788   19912
  -1 -12 -11   25060   20771
  -1 -12 -11    4995   10281
   1  12  11    8160    8066
  -1 -12 -12      22   10353
  -1 -12 -12    1541    8086
   1  12  12    2356    6910
  -1 -12 -13    6535    9202
   1  12  13    8266    3077
  -1 -12 -13     923    6279
  -1 -12 -15     160    7751
  -1 -13   6   10600    6574
  -1 -13   5   15177    8626
   1  13  -5     404    1500
  -1 -13   4    1435    5537
   1  13  -4     178    3546
   1  13  -3    9608    4101
  -1 -13   3     245    6263
  -1 -13   2   13842    9736
   1  13  -2     167    2416
   1  13  -1   54096   14513
   1  13   0      35    2630
   1  13   1    8125    6504
   1  13   2    7337    4937
   1  13   3   11942    6201
   1  13   4   26423    9997
   1  13   5   16422    8391
   1  13   6   15303    7786
   1  13   6   25307   10573
   1  13   7     123    2357
  -1 -13  -9    9835   15908
  -1 -13 -10   39811   21114
  -1 -13 -10   22851   18351
  -1 -13 -11    3546   12303
   1  13  11     242    7083
  -1 -13 -11    3849   10809
   1  13  12   16922    8134
  -1 -13 -12   12840    9112
  -1 -13 -12    8746    9232
  -1 -13 -13   18012    9877
  -1 -13 -13    8814    6328
   1  13  13   11602    4113
  -1 -13 -14      23    8513
  -1 -14   5      29    3052
  -1 -14   4      37    4638
  -1 -14   3     481    3992
   1  14  -3     110    1889
   1  14  -2    3403    3797
  -1 -14   2    4496    5739
  -1 -14   1   22345    9384
   1  14  -1   10960    5825
  -1 -14   0    8766    6234
   1  14   0   11931    6895
  -1 -14  -1   13154    7047
   1  14   1   17535    8324
   1  14   2      17    2118
   1  14   3   47940   12546
   1  14   4    3366    3801
   1  14   5   24613    9830
   1  14   5   18283    7977
   1  14   6   27936    9706
   1  14   6   20613    9111
   1  14   7    2664    1936
  -1 -14  -8   30419   18004
  -1 -14  -9    9216   12978
  -1 -14  -9    2709   10776
  -1 -14 -10    9389   12409
  -1 -14 -10   23219   14375
  -1 -14 -11     161    9720
  -1 -14 -11     161    5563
   1  14  11    1684    4841
  -1 -14 -12      35    5384
   1  14  12    1859    3224
  -1 -14 -12    2420    5765
   1  14  13      26    2860
  -1 -15   3    5393    4017
   1  15  -2    1877    1464
  -1 -15   2    3821    3847
  -1 -15   1   11786    5993
   1  15  -1     575    1409
  -1 -15   0   28970    8513
   1  15   0   22777    7228
   1  15   1    7337    4705
   1  15   2   11107    5965
   1  15   3   13077    6399
   1  15   4   18411    6992
   1  15   4   12134    7113
   1  15   5    6949    6252
   1  15   5    6313    4694
   1  15   6   13724    6957
  -1 -15  -6   14858    9221
  -1 -15  -7   25761   10992
  -1 -15  -8     290    6273
  -1 -15  -9    3844    6681
  -1 -15  -9    4460    6489
  -1 -15 -10   19782   10718
  -1 -15 -10   16041    7621
   1  15  10   13962    6763
  -1 -15 -11      41    5019
   1  15  11    2608    4164
  -1 -15 -11    3334    3286
   1  15  12    3442    1881
  -1 -15 -12     352    2373
   1  16   1       9    1244
   1  16   2      11    3767
   1  16   2    3656    2724
   1  16   3    1965    2466
   1  16   3      24    2021
   1  16   4   14974    5817
   1  16   4   14407    6930
   1  16   5     184    2873
  -1 -16  -6    3079    3525
  -1 -16  -7    4011    4733
   1  16   7     200    1738
  -1 -16  -8   19183    8832
  -1 -16  -8    6636    3746
  -1 -16  -9    6608    6225
  -1 -16  -9    4102    4308
   1  16   9   13601    7166
   1  16  10    2925    3910
  -1 -16 -10    2011    2713
  -1 -16 -10    1088    2403
  -1 -16 -11    5208    2921
  -1 -17  -5    7567    5815
   1  17   5    8107    3074
  -1 -17  -6    3374    3976
   1  17   6    2542    2041
  -1 -17  -7    1065    3127
  -1 -17  -8    6183    3831
   1  17   8    8403    4500
   2 -16  -6     277    2314
   2 -16  -5     311    3028
  -2  16   4     183    2354
  -2  16   3   13139    6116
  -2  16   2     273    1336
  -2  16   1   12687    5345
  -2  16   0    1566    1980
  -2  16  -1    4000    2413
   2 -15  -9    7053    4527
   2 -15  -9       5    3829
   2 -15  -8    1755    5461
   2 -15  -8    1260    3463
   2 -15  -7    7256    6180
   2 -15  -7    1819    5384
   2 -15  -6   10740    4954
  -2  15   5    3984    2874
   2 -15  -5    3184    5261
  -2  15   4   51000   13464
  -2  15   3    2272    3938
  -2  15   2    8024    5441
  -2  15   1    3385    4068
  -2  15   0    7886    4751
  -2  15  -1    6421    5141
  -2  15  -2     236    1438
  -2  15  -3    8722    4592
  -2  15  -4      11     911
   2 -14 -11      18    2032
   2 -14 -10     821    4608
   2 -14 -10    3956    3289
  -2  14   9   12627    5185
   2 -14  -9       8    5949
   2 -14  -9    6118    7390
   2 -14  -8   12785   11395
   2 -14  -8    8496    7325
   2 -14  -8    3007    8115
   2 -14  -7   29740   11115
   2 -14  -7   23097   15181
  -2  14   6    4831    4985
   2 -14  -6     280    4342
   2 -14  -6    4939   12088
  -2  14   5   54885   15861
  -2  14   4    6314    5535
  -2  14   3   33892   11706
  -2  14   2      70    4324
  -2  14   1   28996    9471
  -2  14   0   29307   11094
  -2  14  -1    1003    4086
  -2  14  -2   14023    6927
   2 -14   2    4487    4330
  -2  14  -3    1872    3142
   2 -14   3    2127    3895
  -2  14  -4    4087    3599
  -2  14  -5     164    1482
  -2  14  -6    1909     927
   2 -13 -12    4956    6692
   2 -13 -12    2882    3800
   2 -13 -11      41    7919
   2 -13 -11    3974    4999
   2 -13 -10    6259    5229
   2 -13 -10     708    5293
   2 -13  -9    2699    7371
   2 -13  -9   29957   15454
   2 -13  -9    9154   10570
   2 -13  -8   27889   20067
   2 -13  -8   14513   14203
   2 -13  -8   24839   10200
  -2  13   7      82    3563
   2 -13  -7    2490    5689
   2 -13  -7    4667   14779
  -2  13   6   28741   11361
   2 -13  -6   18136   10442
  -2  13   5     710    2985
   2 -13  -5    2081    5423
  -2  13   4  125076   24930
  -2  13   3   52831   14529
  -2  13   2   24331    9621
  -2  13   1   56490   15934
  -2  13   0     611    4880
  -2  13  -1   69101   16151
   2 -13   1   34387   11197
  -2  13  -2    8160    5547
   2 -13   2    5441    5920
  -2  13  -3   49420   13505
   2 -13   3   42801   13727
  -2  13  -4   12929    7465
   2 -13   4    5746    6505
   2 -13   5    5727    6403
  -2  13  -5    7447    5433
  -2  13  -6   13347    6445
  -2  13  -7    1152    1830
   2 -12 -13   40550   12869
   2 -12 -13    4837    4787
   2 -12 -12     593    4125
   2 -12 -12   21175   12883
   2 -12 -11   22959   12400
   2 -12 -11    7615    8383
   2 -12 -10   23989   13325
   2 -12 -10    6984    9062
   2 -12 -10     222    8219
   2 -12 -10      31    4886
   2 -12  -9   49269   16577
   2 -12  -9   98271   21147
   2 -12  -9   72860   23085
   2 -12  -8   18959   15673
   2 -12  -8   25956   12292
   2 -12  -8    5246   10805
   2 -12  -8    7261   14931
  -2  12   7   68770   18084
   2 -12  -7   53719   29058
   2 -12  -7   62567   19929
  -2  12   6   78183   20106
   2 -12  -6   90170   23864
   2 -12  -5   43240   15591
  -2  12   5   37554   14470
  -2  12   4  133498   25398
  -2  12   3      43    3726
  -2  12   2   51957   16324
  -2  12   1   11050    8260
  -2  12   0  124979   22495
   2 -12   1   37618   12986
  -2  12  -1   64797   16818
  -2  12  -2   57526   15881
   2 -12   2   51487   15722
   2 -12   3   46336   15924
  -2  12  -3   44750   14439
  -2  12  -4    2505    3077
   2 -12   4    1299    5772
   2 -12   5   38362   14780
  -2  12  -5   36180   11948
   2 -12   6      31    4895
  -2  12  -6    1268    2142
  -2  12  -7    8964    5305
  -2  12  -8    1003    2783
   2 -11 -14   36870   13081
   2 -11 -14    4578    4846
   2 -11 -13    2400    4415
   2 -11 -13    2400   13888
   2 -11 -12   88135   21263
   2 -11 -12   19292   10999
   2 -11 -11    7275   12069
   2 -11 -11    9852   10620
   2 -11 -10      51    8167
   2 -11 -10    8748    8133
   2 -11 -10    2945    6162
   2 -11  -9   42202   20457
   2 -11  -9   13358   14382
   2 -11  -9   60160   22447
   2 -11  -8    8273   11732
   2 -11  -8   16011   15541
   2 -11  -8   13231    7810
  -2  11   7   63789   17434
   2 -11  -7   79104   23024
  -2  11   6   25948   11106
   2 -11  -6   27354   18963
   2 -11  -6   42548   18632
   2 -11  -5  132345   27696
   2 -11  -5   99467   33411
  -2  11   5  104318   22285
   2 -11  -4      41    9433
  -2  11   4    3782    5002
  -2  11   3   88258   19386
   2 -11  -3   91507   32423
   2 -11  -2   42431   23273
  -2  11   2   49243   14637
   2 -11  -1   44886   24451
  -2  11   1   26777   10468
  -2  11   0   65304   16495
   2 -11   0   72170   31044
  -2  11  -1   12895    7148
   2 -11   1    7988    6809
   2 -11   1   15705    8266
  -2  11  -2   71764   17827
   2 -11   2   56302   16179
  -2  11  -3    5998    5828
   2 -11   3   16802   10391
   2 -11   4    5376    7527
  -2  11  -4   19547    9622
   2 -11   5   19074   11485
  -2  11  -5   22453    9898
   2 -11   6   38466   15716
  -2  11  -6   19150    9269
  -2  11  -7   21508    9091
   2 -11   7   27979   13566
  -2  11  -8    1546    3034
  -2  11  -9    7537    5253
  -2  11 -10      68    1101
   2 -10 -14    3359    4077
   2 -10 -14    2440   11827
   2 -10 -13     441    6055
   2 -10 -13    7957   15312
   2 -10 -12   24904   19518
   2 -10 -12    7802   11060
   2 -10 -11    1482   10417
   2 -10 -11    2315    9621
   2 -10 -10   27511   19023
   2 -10 -10   12078   13455
   2 -10 -10   33893   21813
   2 -10  -9     641   10690
   2 -10  -9      43    7604
   2 -10  -9    5344   12404
   2 -10  -8   11565   15153
   2 -10  -8   65638   25936
   2 -10  -8   61024   24299
   2 -10  -7   95621   22789
   2 -10  -7   46364   23462
  -2  10   7   70976   17877
   2 -10  -6   12019   10722
   2 -10  -6      64    8822
  -2  10   6      64    3253
  -2  10   5   69326   17472
   2 -10  -5   79751   29313
  -2  10   4   15216    7085
   2 -10  -4   11759   11937
  -2  10   3   68669   16991
   2 -10  -3   84827   30439
  -2  10   2    8154    5227
   2 -10  -2   12420   12701
  -2  10   1   15349    7129
   2 -10  -1   31996   17455
   2 -10   0      23    8504
  -2  10   0    3457    5406
   2 -10   1   38035   23725
  -2  10  -1   24805   10161
   2 -10   2   31499   11785
  -2  10  -2   12052    7021
   2 -10   2   30574   20966
   2 -10   3   18145   16212
  -2  10  -3    9580    7924
   2 -10   3   13421    9182
   2 -10   4     228    8078
  -2  10  -4     228    2591
   2 -10   4    9401   14936
   2 -10   5     255   11693
   2 -10   6   40452   18068
   2 -10   7      19    8510
   2 -10   8      11    6427
  -2  10  -9    4497    4018
  -2  10 -10    5518    4216
  -2  10 -11    1006    2010
   2  -9 -15     985    3722
   2  -9 -15   16223   10656
   2  -9 -14     365    5289
   2  -9 -14     180   12248
   2  -9 -13   38374   23050
   2  -9 -13     296    9557
   2  -9 -12    2936    7506
   2  -9 -11   10415    8770
   2  -9 -11    5870   11482
   2  -9 -10     328    7368
   2  -9 -10    1949    7788
   2  -9 -10     328   10290
   2  -9  -9   22159   18687
   2  -9  -9   13483   13285
   2  -9  -9    3646    9001
   2  -9  -8    1468   13309
   2  -9  -8    4535    6200
   2  -9  -8    5510    9775
   2  -9  -8    7039   11489
   2  -9  -7   36958   18183
  -2   9   7   41453   13621
   2  -9  -7   49106   19741
   2  -9  -6   61025   25681
  -2   9   6   50461   15260
   2  -9  -6   86854   22720
   2  -9  -5      31    7253
   2  -9  -4  194255   42955
   2  -9  -3   44330   19731
   2  -9  -2      13    9000
   2  -9  -1   59726   23380
   2  -9   0   90287   29243
   2  -9   1   51214   23257
   2  -9   2     138    8616
   2  -9   3   99194   35532
   2  -9   4    8225    8048
   2  -9   4    5346   13319
   2  -9   5    8273    9143
   2  -9   5     152    8949
   2  -9   6   37648   15691
   2  -9   7      10    6164
   2  -9   8      39    7197
   2  -9   9      73    6539
  -2   9 -11       5    1847
  -2   9 -12     448     980
   2  -8 -15    1259    3118
   2  -8 -15    1259    9772
   2  -8 -14    6741   15596
   2  -8 -14    1251    8782
   2  -8 -13   39906   24050
   2  -8 -13     164    5048
   2  -8 -12     856    9430
   2  -8 -11     772    5426
   2  -8 -10   14049   15124
   2  -8 -10   19719   16032
   2  -8 -10   21741   16995
   2  -8  -9     185   10625
   2  -8  -9     564    5135
   2  -8  -9     156    4257
   2  -8  -9    2745   10370
   2  -8  -8     107    8509
   2  -8  -8     869    5212
   2  -8  -8     107    8093
   2  -8  -8     107    5312
   2  -8  -8     107   10351
  -2   8   7   63264   15484
   2  -8  -7   52363   23193
   2  -8  -7   53870   22144
   2  -8  -7   69355   22657
   2  -8  -6    3099    6544
   2  -8  -5    6126    8092
   2  -8  -4       6    5911
   2  -8  -3  103702   28248
   2  -8  -2   35006   17056
   2  -8  -1   24593   13852
   2  -8   0  291185   49246
   2  -8   1   34249   16325
   2  -8   2   16559   13043
   2  -8   3   43798   22832
   2  -8   4   11830   12804
   2  -8   5       1   10745
   2  -8   5   15625    9695
   2  -8   6      35    5318
   2  -8   6      35    5512
   2  -8   7   58714   19867
   2  -8   8   17692   12688
   2  -8   9   11991   10790
   2  -7 -16     323    2107
   2  -7 -15     262    5065
   2  -7 -15    2072   13298
   2  -7 -14   13042   15745
   2  -7 -14    1734    7798
   2  -7 -13    5210    7793
   2  -7 -13     979   13502
   2  -7 -12     954    9660
   2  -7 -11    3637   10005
   2  -7 -10   43182   29559
   2  -7 -10    9976    6859
   2  -7 -10   32081   14727
   2  -7 -10   21838   17307
   2  -7  -9   13998   12206
   2  -7  -9    4374    8176
   2  -7  -9    1797    5416
   2  -7  -9     108   15096
   2  -7  -9     108    8674
   2  -7  -8    1986    9389
   2  -7  -8     347   11442
   2  -7  -8      52    6847
   2  -7  -8     840    8242
   2  -7  -7   37887   18229
   2  -7  -6    7163    9166
   2  -7  -5   31924   16001
   2  -7  -4   15285   10143
   2  -7  -3  173052   36111
   2  -7  -2   16274   11517
   2  -7  -1  137674   29211
   2  -7   0   21045   12557
   2  -7   1  173675   34959
   2  -7   2   68839   24202
   2  -7   3    4930    6466
   2  -7   4   16055   13357
   2  -7   5    3866    6951
   2  -7   6    2080    6072
   2  -7   6    6240    7709
   2  -7   7    3962    7009
   2  -7   7   19766   20949
   2  -7   7   21566   12724
   2  -7   8   11977   10540
   2  -7   9     283    6275
   2  -7  10    4155    7398
   2  -6 -16     825    3038
   2  -6 -15    2655    6345
   2  -6 -15    3138    6286
   2  -6 -14   11338   15182
   2  -6 -14     194    5285
   2  -6 -13   15142   17454
   2  -6 -13   11618   11894
   2  -6 -12   26116   16132
   2  -6 -11    3123   10948
   2  -6 -10   10462   12417
   2  -6 -10   15725    9455
   2  -6 -10    7844    8540
   2  -6  -9     162    8672
   2  -6  -9     162    5592
   2  -6  -9     676    4669
  -2   6   9     162   10433
  -2   6   8   22477   14229
  -2   6   7      15    6813
   2  -6  -6   20727   13095
   2  -6  -5    9618    8572
   2  -6  -4   11114    7306
   2  -6  -3   23760    9358
   2  -6  -2  108529   26225
   2  -6  -2   69637   15037
   2  -6  -1   33242   12247
   2  -6   0    2300    4004
   2  -6   1   20859   10536
   2  -6   2   32652   12983
   2  -6   3   91201   26892
   2  -6   4    3052    5706
   2  -6   5   40335   19439
   2  -6   6   40004   22806
   2  -6   7   26211   12647
   2  -6   7    2977    6284
   2  -6   7   20341   19499
   2  -6   7    9617   13487
   2  -6   8   23967   12301
   2  -6   8   27710   24228
   2  -6   9    3619    7286
   2  -6  10   10893    9350
   2  -5 -16    4871    4936
   2  -5 -16    1239    3788
   2  -5 -15    2254    8256
   2  -5 -15   11469    9965
   2  -5 -14    9114   14376
   2  -5 -13   35585   18696
   2  -5 -13    3749    9071
   2  -5 -12     830    9652
   2  -5 -11    9472    9590
   2  -5 -10     416   17723
   2  -5 -10     416    5213
  -2   5   9   34370   18924
   2  -5  -9   19384   11230
   2  -5  -9   17997   13632
   2  -5  -9    4956    8738
  -2   5   8      78    3760
  -2   5   7   85539   25555
  -2   5   6    8184    8217
   2  -5  -6    1998    8846
  -2   5   5  116449   27424
   2  -5  -4    2603    2450
   2  -5  -3   26798   10742
   2  -5  -2    7466    7490
   2  -5  -1     372    3110
   2  -5  -1     321    1681
   2  -5   0  124644   21634
   2  -5   1  154665   28521
   2  -5   2   88899   23262
   2  -5   3  142102   27265
   2  -5   4  108020   26431
   2  -5   5   79522   29089
   2  -5   6    5698    8749
   2  -5   7   29266   19745
   2  -5   8   11475    8878
   2  -5   8    2459    5207
   2  -5   8      53    7678
   2  -5   9    2267    5946
   2  -5   9     840    4946
   2  -5   9   12271   15103
   2  -5  10   13010    9273
   2  -4 -16     152    2295
   2  -4 -15     306    4021
   2  -4 -15     822    6198
   2  -4 -14    1168    8612
   2  -4 -13    4020   10799
   2  -4 -12   20641   15623
   2  -4 -11    7384   12522
   2  -4 -11    3036    8497
   2  -4 -10   11658   13633
   2  -4 -10   18030   16766
  -2   4   9    6893    9295
   2  -4  -9     227    7958
  -2   4   8    9475    8725
  -2   4   7   66419   22403
  -2   4   6   19028   10653
  -2   4   5  171530   28570
   2  -4  -5  153787   26508
  -2   4   4   74778   18529
   2  -4  -2    1058    3618
   2  -4  -1  209392   22514
   2  -4  -1  281136   30638
   2  -4   0  449839   38384
   2  -4   1    9602    7861
   2  -4   2  303899   34394
   2  -4   3    1045    4419
   2  -4   4   52675   20115
   2  -4   5    8306    7805
   2  -4   6   90909   27889
   2  -4   7    5829   10342
   2  -4   8   42971   28419
   2  -4   9    9475    7113
   2  -4   9     219    7334
   2  -4   9   19783   19077
   2  -4  10      47   20468
   2  -4  10      47   10628
   2  -4  10      47    6285
   2  -3 -16      22    6798
   2  -3 -15     228    5000
   2  -3 -15    5987    6154
   2  -3 -14     642    5254
   2  -3 -14     642    6214
   2  -3 -13   29483   17002
   2  -3 -12     353    6895
   2  -3 -11   38967   27404
   2  -3 -11   18458   13683
   2  -3 -10    3687   11183
   2  -3 -10    6477   11502
  -2   3   9   37163   18187
   2  -3  -9   34335   21857
  -2   3   8   42119   19027
  -2   3   7     187    8618
  -2   3   6   71931   19919
   2  -3  -5   73714   15162
  -2   3   5   94371   20846
  -2   3   4  345009   35824
   2  -3  -4  310540   33251
  -2   3   3  269645   32159
   2  -3  -1  442343   31583
   2  -3  -1  462469   31174
   2  -3   0  322690   27288
   2  -3   0  237175   16961
   2  -3   1  911204   47260
   2  -3   2   82476   17733
   2  -3   3   19957   10843
   2  -3   4   17494   10384
   2  -3   5   20288   10714
   2  -3   6  141347   34612
   2  -3   6  159897   38870
   2  -3   7    2797    7520
   2  -3   8  111651   33324
   2  -3   9    6660   13070
   2  -3  10   36442   29549
   2  -3  10   22861   11832
  -2   3 -10   78493   27974
   2  -3  10   28506   11895
   2  -3  10   20239   10786
   2  -3  11    1982    7776
   2  -3  11      78    5490
   2  -2 -15    2619    8713
   2  -2 -15    4170    6326
   2  -2 -14    4816    9232
   2  -2 -14    1172    6530
   2  -2 -13    1088    4975
   2  -2 -13     986    7733
   2  -2 -12    1406   10252
   2  -2 -11     261   11322
   2  -2 -11    1021    7990
   2  -2 -10      30   13439
   2  -2 -10   16247   13108
   2  -2  -9    9195   13024
  -2   2   8     167    4570
  -2   2   7   63417   19907
  -2   2   6   33208   12631
   2  -2  -5   24876    7340
   2  -2  -5   19645    6503
  -2   2   5   44489   13229
  -2   2   4  113204   21460
   2  -2  -4   64578   12175
   2  -2  -4   82608   16608
   2  -2  -3   68229    9133
   2  -2  -3   64376   13180
  -2   2   3   83590   14388
  -2   2   2   35681   10393
   2  -2  -2   42311    8203
   2  -2  -1    3268    2230
   2  -2  -1    4544    1533
   2  -2   0    6261    3045
   2  -2   0    3990    1553
   2  -2   1    3269    3257
   2  -2   2  155110   22705
   2  -2   3  182105   27316
   2  -2   4     923    3169
   2  -2   5  134933   17645
   2  -2   5  139209   29551
   2  -2   6   38925   14191
   2  -2   7   64738   21735
   2  -2   8   17747   16810
   2  -2   9   99579   37758
   2  -2  10   36942   20823
   2  -2  10   34375   11127
  -2   2 -10   48618   19126
   2  -2  11     346   10560
  -2   2 -11    5679   12968
  -2   2 -11   12897    7859
   2  -2  11    2637    4475
   2  -2  11   21870    9843
   2  -2  12    9657    8578
  -2   2 -12    9723    7519
  -2   2 -13     123   13240
   2  -2  13     123    5122
   2  -1 -15     655    5729
   2  -1 -14    2394    6643
   2  -1 -14    4339    8708
   2  -1 -13   11540   13139
   2  -1 -13    1206    8202
   2  -1 -12     231    6217
   2  -1 -12    6881   16009
   2  -1 -11    2781   11743
   2  -1 -10      48    7731
   2  -1 -10      48    8537
   2  -1  -9     257    3875
   2  -1  -9   10608    7703
  -2   1   8       3    5722
   2  -1  -8       3    4355
  -2   1   7   31744   14341
  -2   1   6   20216   11806
  -2   1   5   24042   11270
   2  -1  -4      62    1707
  -2   1   4      37    4304
  -2   1   3    9720    5532
   2  -1  -3    8929    5192
   2  -1  -3    7175    4888
  -2   1   2   16693    6624
   2  -1  -2   18134    8361
   2  -1  -2   25215    7607
   2  -1  -1    9751    2943
   2  -1  -1    5006    2379
   2  -1  -1   11560    5742
  -2   1   1    2612    1560
   2  -1   0    1248    1821
   2  -1   0    1330    1241
   2  -1   0     491    3172
   2  -1   0     542    4161
   2  -1   1   21978    6874
   2  -1   1   35898   12184
   2  -1   2  110377   12734
   2  -1   2  147623   16310
   2  -1   3   89029   19163
   2  -1   3   97258   17203
   2  -1   4   23764    9303
   2  -1   4   19322    4660
   2  -1   5    1633    3275
   2  -1   5    3423    2431
   2  -1   6   14186    9433
   2  -1   7    3447    7157
   2  -1   8    3143    6808
   2  -1   9   19821   12933
   2  -1  10     287   11533
  -2   1 -11    9105   13105
   2  -1  11     230    8631
   2  -1  11    9918   19914
  -2   1 -11     230    2110
   2  -1  12    9163    7157
  -2   1 -12    3663    5016
  -2   1 -12     224   15264
  -2   1 -13   11637    7692
  -2   1 -13     526    8773
   2  -1  13    8454    3727
   2  -1  14    2439    3463
  -2   1 -14      92    9193
   2   0 -14    1267    7471
   2   0 -14     285    9976
   2   0 -14    1267    5306
   2   0 -13    3992    9008
   2   0 -13   13378   18009
   2   0 -12   25114   21146
   2   0 -12    2332    5868
   2   0 -11   12646   12523
   2   0 -11    3838   12736
   2   0 -10    6783    9970
   2   0 -10   10013   12800
   2   0  -9    2402    8966
   2   0  -9    3876    9538
   2   0  -8     318    3829
  -2   0   8    2566    6754
  -2   0   7     883    6725
   2   0  -7     942    5182
   2   0  -6     256    3782
  -2   0   6     221    2720
  -2   0   5  126426   23392
  -2   0   4   37365    9706
   2   0  -4   16257    5512
  -2   0   3   54757   11642
   2   0  -3   44808    9817
   2   0  -2   18081    4598
  -2   0   2   18506    4062
   2   0  -2   29569    7998
  -2   0   1   20603    2678
   2   0  -1   15150    5024
   2   0  -1   16232    5173
   2   0  -1   13918    4146
   2   0   0   29484    6775
   2   0   0   23125    5417
   2   0   0   23216    5973
   2   0   1  110737   14376
   2   0   1  103193   12799
   2   0   1   97690    8385
   2   0   2    4396    3561
   2   0   2    2882    3342
   2   0   3  180615   20402
   2   0   3  144442   14223
   2   0   4    9020    4373
   2   0   4   12427    9176
   2   0   5   12517    4829
   2   0   5   20764   11000
   2   0   6  196039   33487
   2   0   7   33102   14993
   2   0   8    1614    6875
   2   0   9   21697   14212
   2   0  10   17222   15928
  -2   0 -11   10947   14577
   2   0  11   14836   18874
   2   0  11    1012    4352
   2   0  12    4816   12362
  -2   0 -12   19672   16478
   2   0  12   15524    8836
   2   0  13    1030    4564
  -2   0 -13    4813   13354
  -2   0 -13    5848    5739
   2   0  14    1739    4633
  -2   0 -14    1775    9729
  -2   0 -14   14355    8226
  -2   0 -15      25    7534
   2   0  15    2567    4199
   2   1 -14     463   10751
   2   1 -13    3454   14571
   2   1 -13     262    5022
   2   1 -13   14870   13048
   2   1 -12   10345   11255
   2   1 -12   10616   16557
   2   1 -11   13303   15380
   2   1 -11    9101    9990
   2   1 -10    7182   13784
   2   1 -10    5925    7693
   2   1 -10    1528    7320
   2   1  -9   45727   22494
   2   1  -9   17057   15772
   2   1  -8     637    7563
  -2  -1   8     588    6247
   2   1  -7   16269   14083
  -2  -1   7   32382   15902
  -2  -1   6    4309    5221
   2   1  -6    2220    7248
   2   1  -5   28800   12323
  -2  -1   5   34227   11491
   2   1  -4     194    4696
  -2  -1   4    3158    2826
  -2  -1   3    7211    4070
   2   1  -3    4440    4843
   2   1  -3     849    3618
   2   1  -2    1445    2397
  -2  -1   2     481    2434
  -2  -1   2     466    1873
   2   1  -2    1633    3049
   2   1  -1  420060   32891
  -2  -1   1  421734   22608
   2   1  -1  344614   24391
   2   1   0  581698   35774
   2   1   0  528108   29765
  -2  -1   0  581092   22568
   2   1   0  631453   38971
   2   1   1   78441    9885
   2   1   1   71991    6961
   2   1   1   74816    9062
   2   1   2  116455    9917
   2   1   2  123179   11151
   2   1   2  129055   12881
   2   1   3  467394   37138
   2   1   3  401182   27580
   2   1   4  145487   16373
   2   1   4  170976   24943
   2   1   5   52356   15136
   2   1   6   31015   13055
   2   1   7   63688   21223
   2   1   8    8561    7085
   2   1   9   13168   12853
   2   1  10   67489   30019
  -2  -1 -11    8897    7253
   2   1  11    3772   10045
   2   1  12     205   10309
  -2  -1 -12      50    8142
   2   1  12    8334    7772
  -2  -1 -13     301   13212
   2   1  13   12686    8928
   2   1  14     438    8076
  -2  -1 -14   11782   19343
  -2  -1 -14    8763    7506
  -2  -1 -15    5657    5986
   2   1  15     414    3357
   2   2 -13     548   12500
   2   2 -13     289    4812
   2   2 -12    4302    8462
   2   2 -12     574   10671
   2   2 -12    6779   12190
   2   2 -11    6375    9960
   2   2 -11    1546   12066
   2   2 -10    3550    6464
   2   2 -10   41072   26357
   2   2  -9    4629    8419
   2   2  -9    1136    6644
   2   2  -9    1136    9527
   2   2  -8   10628   14929
   2   2  -7   83271   28330
  -2  -2   7  144394   36901
  -2  -2   6   13754   11885
   2   2  -6    8981    6456
   2   2  -5  124481   29044
  -2  -2   5  168923   32084
   2   2  -4   18340   10144
  -2  -2   4   14595    8603
  -2  -2   4   18202    8234
  -2  -2   3     587    3548
   2   2  -3    4217    5467
  -2  -2   2  118987   19534
   2   2  -2  104016   21137
   2   2  -1     284    3565
   2   2  -1     164    3153
  -2  -2   1     164    2978
   2   2   0   41804    9008
  -2  -2   0   45092    7886
  -2  -2  -1  175449   13318
   2   2   1  157686   12437
   2   2   1  194974   15951
   2   2   1  211677   18904
   2   2   2   26315   12977
   2   2   2   19888   12079
   2   2   2   23567   12949
   2   2   3  199773   17446
   2   2   3  215395   18305
   2   2   3  231947   16896
   2   2   4   10185    9895
   2   2   5     344    3282
   2   2   6    6794    6332
   2   2   7   18550    9704
   2   2   8   11752   11119
   2   2   9   19926   15273
   2   2  10   43259   22470
   2   2  11   59168   27791
   2   2  11   78576   19823
  -2  -2 -11   48780   17825
  -2  -2 -12   70330   22122
   2   2  12   49805   29921
   2   2  13     356    4700
  -2  -2 -13    4184    8965
   2   2  14   56256   14804
  -2  -2 -14   32094   17370
  -2  -2 -15   10519    8624
  -2  -2 -15   10021    7169
   2   2  16     467    6195
  -2  -2 -16    2784    3394
   2   3 -13      90    4175
   2   3 -12     210   17019
   2   3 -12    7255   10612
   2   3 -11    1265   18366
   2   3 -11     418   10510
   2   3 -11   34186   17278
   2   3 -10   38156   24590
   2   3 -10   23746   14337
   2   3  -9     598   12842
   2   3  -9    5596    8782
   2   3  -8   16225   13423
   2   3  -8   36885   16391
   2   3  -8   26025   13032
  -2  -3   7    9094    9897
   2   3  -7    7363    5400
  -2  -3   6   93113   28719
   2   3  -6   46381   20562
  -2  -3   5   46270   20377
   2   3  -5   35025   17164
  -2  -3   5   53440   19699
  -2  -3   4   88415   24279
   2   3  -4   59193   19168
   2   3  -3   59807   18079
  -2  -3   3   68228   19588
   2   3  -2   48279   14239
  -2  -3   2   54296   15660
  -2  -3   1  305693   30359
  -2  -3   0    3121    6246
  -2  -3  -1    9581    3406
   2   3   2    7842    9526
   2   3   2    7330    9190
   2   3   3     307    4782
   2   3   3    1265    7300
   2   3   4  100182   23290
   2   3   5   77328   20881
   2   3   6  130703   24721
   2   3   7    9681    7234
   2   3   8   96208   28407
   2   3   9    5164    7029
   2   3  10   13861   11890
   2   3  11   10619    8778
   2   3  11    4668    7043
   2   3  12   32381   14928
  -2  -3 -12   11008   11284
   2   3  12   21350   17450
  -2  -3 -13   39333   19388
  -2  -3 -14    6487   12668
   2   3  14   20771    9933
  -2  -3 -15   83725   23961
  -2  -3 -15   24558    9538
   2   3  15   89845   16781
  -2  -3 -16    5756    4833
   2   4 -12      50    6470
   2   4 -11      26    5933
   2   4 -11    5813   11705
   2   4 -10    6044   12623
   2   4 -10    8546   14266
   2   4 -10     110    7902
   2   4  -9     266   10168
   2   4  -9    4801   12996
   2   4  -9    5228   15716
   2   4  -8   42660   17454
   2   4  -8   55162   24476
  -2  -4   7   14499   17718
   2   4  -6   20740   15330
  -2  -4   6   33714   19495
  -2  -4   5   23833   17983
   2   4  -5   17252   13089
  -2  -4   5   13893   12066
   2   4  -4  135338   28702
  -2  -4   4  200215   39067
   2   4  -3      35    5407
  -2  -4   3      35    3328
  -2  -4   2  204041   31514
  -2  -4   1   80476   20279
  -2  -4   0  308805   35313
  -2  -4  -1  383320   33543
   2   4   2   32828    7950
  -2  -4  -2   26729    6922
   2   4   3  136572   25171
   2   4   3  124805   18561
   2   4   4    5248    4960
   2   4   4    5639    7899
   2   4   5  177766   30355
   2   4   6   20055   12777
   2   4   7  316110   48326
   2   4   8  108499   28436
   2   4   9   99216   28800
   2   4  10   66014   27650
   2   4  11    6133   14468
   2   4  11     134    9012
   2   4  11    1159    4131
   2   4  12   38177   14407
  -2  -4 -12   36069   14494
   2   4  12   26384   16788
  -2  -4 -13    8823    9737
  -2  -4 -14   31506   13688
   2   4  14   29925   11458
   2   4  15   37725   12131
  -2  -4 -15    9245   10089
  -2  -4 -16      79    4358
  -2  -4 -16    6725    5294
   2   4  17    6126    3294
  -2  -4 -17    7750    3329
   2   5 -12    5673    7511
   2   5 -11     315    8926
   2   5 -10   30014   19005
   2   5  -9     203   14397
   2   5  -9   10356   13502
   2   5  -8   38372   22351
   2   5  -8     453    8590
   2   5  -7   19115   26715
   2   5  -7   34610   13399
  -2  -5   6   28161   18305
  -2  -5   5  199743   49000
  -2  -5   4   58932   23900
  -2  -5   3   44465   18388
  -2  -5   2   56095   19116
  -2  -5   1  181340   31427
  -2  -5   0  365172   40615
  -2  -5  -1     441    5554
  -2  -5  -2   89126   20571
   2   5   2   86054   19729
   2   5   3   13074    5540
   2   5   3   17738    8480
  -2  -5  -3   13943    7218
   2   5   4   85516   20192
   2   5   4   68005   13073
   2   5   5  319488   43600
   2   5   6    1120    4183
   2   5   7  127095   29255
   2   5   8    4496    7953
   2   5   9  136904   37917
   2   5  10   15876    9912
   2   5  11   20808   15342
   2   5  11   25208   10519
  -2  -5 -11    2737    6265
  -2  -5 -11     324    5006
   2   5  11   18335    9658
  -2  -5 -12    2156    5909
   2   5  12   29524   25532
   2   5  12   45357   17326
   2   5  12   49625   18218
  -2  -5 -12   48241   17384
  -2  -5 -13   17956   11640
   2   5  13     102   10263
  -2  -5 -14   11026    7350
   2   5  15   12426    8130
  -2  -5 -15     194    4837
   2   5  16     215    5417
  -2  -5 -16    5160    6438
  -2  -5 -17      99    2423
   2   6 -11      47    5290
   2   6 -10     464    8541
  -2  -6   9      74    3838
   2   6  -9     299   14348
   2   6  -8   20428   19106
  -2  -6   8   27177   10102
   2   6  -7   20159   17868
  -2  -6   6     200   17902
  -2  -6   6   20489   21622
   2   6  -6    1102    7597
  -2  -6   5    5991   10370
  -2  -6   4      53    6894
  -2  -6   3   47732   20970
  -2  -6   2    5868    6986
  -2  -6   1  226658   38825
  -2  -6   0   50646   16827
  -2  -6  -1  237190   36741
  -2  -6  -2  174001   29221
   2   6   2  152004   27131
  -2  -6  -3   84793   20310
   2   6   3   64333   15349
  -2  -6  -4   30730   15000
   2   6   4   25272   14647
   2   6   4   15750    7962
   2   6   5   53619   17267
   2   6   6  119613   27048
   2   6   7   10908   12088
   2   6   8   49043   21837
   2   6   9   64805   25617
   2   6  10    1822    5597
   2   6  11    3747    9332
   2   6  11    5903    6144
  -2  -6 -11     630    6342
  -2  -6 -11      68    4500
   2   6  11   12567   10114
  -2  -6 -12    5550    4901
   2   6  12    5868    5469
   2   6  12     485   11310
  -2  -6 -12     485   10963
  -2  -6 -12     485    4067
   2   6  12     485   10583
   2   6  13    8870    4466
   2   6  13   11553    8715
  -2  -6 -13    1518    6277
  -2  -6 -14    4672   10243
  -2  -6 -15   10666    8205
   2   6  16    7222    5541
  -2  -6 -17    6437    3743
   2   7 -10      68    6468
  -2  -7   9     106    4580
   2   7  -9    3567    5716
  -2  -7   8   13195    8115
   2   7  -8    1758    8832
   2   7  -7    1536    4230
   2   7  -7    2077   11339
   2   7  -6    2733    3713
   2   7  -6    1096   13274
  -2  -7   6      47   10017
  -2  -7   5     103    8077
   2   7  -5   12171   13165
   2   7  -5    8028    7372
  -2  -7   4    6001   10500
  -2  -7   3   13390   12451
  -2  -7   2   12683   10084
  -2  -7   1    7775    7809
  -2  -7   0  102263   26642
  -2  -7  -1   82651   23447
   2   7   2     331    4797
  -2  -7  -2    6671    7966
   2   7   3   12004    9593
  -2  -7  -3   20289   12517
  -2  -7  -4   11756   12515
   2   7   4    8111    6478
  -2  -7  -5   94889   25237
  -2  -7  -6   30495   17821
   2   7   6   39834   21172
   2   7   7   21441   14057
   2   7   8   32654   16547
   2   7   9      82    5937
  -2  -7 -10   34376   18402
   2   7  10   23345   20869
   2   7  10   11529    6276
  -2  -7 -10    2787    6524
  -2  -7 -11   11181    8662
  -2  -7 -11     289    6474
   2   7  11     289   10906
   2   7  11    4645    6874
  -2  -7 -12   16041   14090
  -2  -7 -12    6145    8622
   2   7  13    4005    7466
  -2  -7 -13     154    7037
   2   7  16      90    2955
  -2  -7 -17    8048    3552
  -2  -8   9     101    4163
   2   8  -9     261    6468
  -2  -8   8     165    5314
   2   8  -8    3665   13481
   2   8  -7    5694    3466
  -2  -8   7   11362    9012
   2   8  -7    7454   14215
   2   8  -6     262   10479
   2   8  -6    2004    4255
   2   8  -5   16602    5284
   2   8  -5    4173   14916
   2   8  -4    4764    5689
  -2  -8   4     130    7447
   2   8  -4     130   11389
  -2  -8   3   20844   17556
  -2  -8   2    8420   11767
  -2  -8   1   22357   14304
  -2  -8   0  100514   30226
  -2  -8  -1     865    4544
  -2  -8  -2   62808   22815
   2   8   2   48182   18020
  -2  -8  -3   12715   12401
   2   8   3    7098    6937
  -2  -8  -4   96433   27705
  -2  -8  -5   63591   25437
  -2  -8  -6    7579    9933
  -2  -8  -7   26077   18054
   2   8   8   22034   18107
  -2  -8  -8   13189   14464
   2   8   9   72023   29867
  -2  -8  -9   30493   19451
  -2  -8 -10   15549   16129
   2   8  10   35488   21321
   2   8  11   34644   11920
  -2  -8 -11   31470   20666
   2   8  11   35992   26345
  -2  -8 -11    8457   14341
   2   8  12   51309   16904
  -2  -8 -12   27793   16412
  -2  -8 -12    3638   10741
  -2  -8 -13     654    5155
  -2  -8 -13    3289    9313
   2   8  13     141    7373
   2   8  16   24036    7093
  -2  -8 -17    4180    3178
  -2  -9   9    6517    5094
  -2  -9   8   29845   11881
   2   9  -7     732    8176
  -2  -9   7    4783    6230
   2   9  -6   16389    9006
   2   9  -6    5961   17491
   2   9  -5    2553    3362
   2   9  -5    1221    9591
   2   9  -4   14362    6393
   2   9  -4    3279   12544
  -2  -9   4   17680   16840
   2   9  -3   24541   16821
  -2  -9   3   25368   19808
   2   9  -3    8053    6068
   2   9  -2      59    9332
  -2  -9   2    5760   13309
   2   9  -2      59    5483
  -2  -9   1   29898   18358
  -2  -9   0    3387    3857
  -2  -9  -1   80381   27956
  -2  -9  -2    4551    9645
   2   9   2    3960    3575
  -2  -9  -3     349    8914
  -2  -9  -4   48993   20770
  -2  -9  -5   25109   17498
  -2  -9  -6   44892   22665
  -2  -9  -7       8    8648
  -2  -9  -8   46540   25510
  -2  -9  -9    9422   15513
  -2  -9 -10      23    9919
  -2  -9 -10      23   13433
  -2  -9 -11   14585   14086
  -2  -9 -11   49331   26016
   2   9  11   33792   15317
  -2  -9 -12    6830   17047
   2   9  12    2826    6789
  -2  -9 -12      75   10184
   2   9  13   31252   12887
  -2  -9 -13    9880    6981
  -2  -9 -13    3983    8594
   2   9  14    1104    5999
   2   9  16    8902    5150
  -2 -10   8    3848    5180
  -2 -10   7     120    4510
  -2 -10   6   37991   13979
   2  10  -6   14975    7207
   2  10  -5     126    7247
   2  10  -5     126    2527
   2  10  -4   13841    8225
   2  10  -4   13579    7968
  -2 -10   3    2359   10478
   2  10  -3      13    6527
   2  10  -3    1957    4874
   2  10  -2   39569   12062
   2  10  -2   58128   13744
  -2 -10   2   75391   34144
   2  10  -1   19260    7899
  -2 -10   1   27216   19946
   2  10  -1   14052    7037
   2  10   0   10226    3369
  -2 -10   0   26520   17552
  -2 -10  -1  207916   48414
   2  10   1   91339   30633
  -2 -10  -2    4091    8366
  -2 -10  -3   23963   17071
  -2 -10  -4   20394   15458
  -2 -10  -5   97962   35085
  -2 -10  -6   56477   27831
   2  10   7    3478    4746
  -2 -10  -7    8335   12375
   2  10   8   15385    7982
  -2 -10  -8   20328   20169
  -2 -10  -9      18    9001
   2  10  11      15    7903
  -2 -10 -11    4234   14266
  -2 -10 -11     288    9689
  -2 -10 -12   12621   15767
  -2 -10 -12    2362   11333
   2  10  12    8917    9630
  -2 -10 -13      29    9372
  -2 -10 -13      29    6719
   2  10  13      29    7250
   2  10  14   16025    7777
   2  10  16    6863    3938
  -2 -11   8      78    3658
  -2 -11   7   25279    9604
  -2 -11   6   25171   12342
   2  11  -5   10502    6282
   2  11  -4   20624    7874
   2  11  -3    3136    5968
   2  11  -3    3111    3521
   2  11  -2   40392   12672
   2  11  -2   34104   15015
   2  11  -1    3460    4639
   2  11  -1      10    4155
  -2 -11   1      10    4236
   2  11  -1      10    5853
   2  11   0   44118   14375
   2  11   0   48378   12393
  -2 -11   0   67318   31326
   2  11   1    1788    5391
  -2 -11  -1    5468   15629
   2  11   1     205    2335
  -2 -11  -2   23973   19444
   2  11   2   10418    7192
   2  11   2   11445    7021
   2  11   3   32610    9757
  -2 -11  -3   54664   26610
  -2 -11  -4     673    6379
   2  11   4    6877    4827
   2  11   5   87056   16988
  -2 -11  -5  148572   45862
   2  11   6      34    2567
  -2 -11  -6      34    7382
   2  11   7   52603   13813
  -2 -11  -7   52225   27850
   2  11   7   62365   15266
  -2 -11  -8    8017   13935
   2  11   8    4284    5133
  -2 -11 -11   32848   23337
   2  11  11   26349   12026
  -2 -11 -11   18184   15125
   2  11  12   33912   15156
  -2 -11 -12   39685   23257
  -2 -11 -12   16795   14846
  -2 -11 -13     163    7612
  -2 -11 -13     738    8601
   2  11  13      77    4589
   2  11  14   12104    7744
   2  11  16    3363    3030
  -2 -11 -16   38879   11121
  -2 -12   7     881    3506
  -2 -12   6    5952    6339
  -2 -12   5   11762    8199
   2  12  -4      82    2569
   2  12  -3   12743    5845
   2  12  -2   11464    6714
   2  12  -1   11150    6403
   2  12   0   19238    8302
   2  12   1    3692    2840
   2  12   2   29862    9971
  -2 -12  -2   46010   23777
   2  12   3     159    6251
  -2 -12  -3    7140   12823
  -2 -12  -4   44601   25897
   2  12   4   40098   12349
  -2 -12  -5   12511   11888
   2  12   5   21975    8927
   2  12   6   86117   17536
  -2 -12  -6   91500   37785
   2  12   6   76179   18242
   2  12   7   25787   10372
   2  12   7   30264   11957
  -2 -12 -11   27446   19564
  -2 -12 -11   71423   32639
   2  12  11   65790   19184
   2  12  12    9335    7680
  -2 -12 -12    5319    8601
  -2 -12 -12    5640   12120
  -2 -12 -13    4484    8653
   2  12  13   42187   11956
  -2 -12 -13   28236   11838
   2  12  14    6290    5800
  -2 -13   6   10920    5698
   2  13  -6    5591    5223
  -2 -13   5     658    3919
  -2 -13   4   18529    9489
  -2 -13   3    6932    7908
   2  13  -2    3527    4673
   2  13  -1   43845   11724
   2  13   0    7177    5479
   2  13   1   20547    9165
   2  13   2       6    2934
   2  13   3   23385    9535
   2  13   4      18    3895
   2  13   5   34378   11629
   2  13   6   19540    8543
   2  13   6   21802    7053
   2  13   7   10918    5544
   2  13   7   15665    8782
  -2 -13 -10   55523   25053
  -2 -13 -10   10086   14172
  -2 -13 -11    3323    5395
  -2 -13 -11   10470   13918
   2  13  11    6738    7519
   2  13  12   15110    8891
  -2 -13 -12   14440    9504
  -2 -13 -12    2789    6200
  -2 -13 -13     908    5973
   2  13  13     583    4224
  -2 -13 -13      72    5863
   2  13  14   14347    6564
  -2 -13 -15    5125    4578
  -2 -14   5     273    2488
  -2 -14   4     156    3226
   2  14  -4    3921    3317
   2  14  -3     346    4281
  -2 -14   3    3904    5620
  -2 -14   2    2694    4290
   2  14  -1     192    3122
  -2 -14   1   10545    7956
   2  14   0   28409    9141
   2  14   1    8007    5378
   2  14   2   22815    7820
   2  14   3   64234   14833
   2  14   4    9214    6657
   2  14   5  110454   18978
   2  14   5  103076   21345
   2  14   6   20623    9722
   2  14   6   17976    7741
   2  14   7   23090    9001
  -2 -14  -9   10226   13051
  -2 -14 -10   20455   17631
  -2 -14 -10   40045   19629
  -2 -14 -11    4397    9411
  -2 -14 -11    2259    7758
   2  14  11     781    4111
  -2 -14 -12    4761    7318
   2  14  12   11822    6861
  -2 -14 -12    2056    4274
   2  14  13     170    3431
  -2 -14 -13       8    4325
  -2 -15   3    3790    3494
  -2 -15   2    1319    3342
  -2 -15   1   19998    7958
  -2 -15   0   14907    6506
  -2 -15  -1    2687    3401
   2  15   1    3279    2172
   2  15   2    8531    5379
   2  15   3     315    1462
   2  15   4    7228    4806
   2  15   4    4639    4983
   2  15   5      80    3000
   2  15   5    2229    1663
   2  15   6    9960    5219
   2  15   6    5319    3762
   2  15   7     484    2256
   2  15   8    4700    2336
  -2 -15  -8   21985   11859
  -2 -15  -9   35202   14391
  -2 -15  -9   25452   14726
   2  15  10     956    5210
  -2 -15 -10     266    4652
  -2 -15 -10    3326    8151
  -2 -15 -11    4852    6215
   2  15  11   12577    6758
  -2 -15 -11   12287    8416
   2  15  12    1653    2879
  -2 -15 -12     394    2937
  -2 -15 -12    1754    3826
   2  16  -2    1637    2116
   2  16   2       9    4003
   2  16   3    4851    4883
   2  16   4    1980    2332
   2  16   5   14491    5911
  -2 -16  -5     149    3221
  -2 -16  -6    5654    5554
   2  16   6    5932    4394
   2  16   7    3440    3471
  -2 -16  -7    4828    6562
  -2 -16  -8    7314    5419
  -2 -16  -8    9954    9655
   2  16   8    2824    3015
  -2 -16  -9     885    3110
  -2 -16  -9      32    2959
  -2 -16 -10     107    3394
   2  16  10    8252    5103
  -2 -16 -10    8748    5345
   2  16  11    1827    3266
  -2 -16 -11      52    2399
  -2 -16 -11    2848    3615
   2  17   1      12    1539
   2  17   2      85    2052
   2  17   3    2741    2186
   2  17   4    2885    1547
   2  17   4    2920    2535
   2  17   5   12190    4848
   2  17   6    4105    3002
  -2 -17  -7   13477    8252
   2  17   7   11236    3096
   2  17   8     363    2165
  -2 -17  -8       3    2838
  -2 -17  -9    4498    3906
   2  17   9    8793    3663
   3 -16  -6    2066    3126
   3 -16  -5     169    1805
  -3  16   3    1444    2762
  -3  16   2   23524    7692
  -3  16   1    3285    2773
  -3  16   0    5473    3205
  -3  16  -1    3676    2585
   3 -15  -9     977    2585
   3 -15  -8      26    3405
   3 -15  -7      23    4329
   3 -15  -6      40    4034
  -3  15   5   10030    5678
  -3  15   4   18862    7715
  -3  15   3    9216    5774
  -3  15   2   24845    8447
  -3  15   1     350    2130
  -3  15   0    4601    4941
  -3  15  -1      30    1759
  -3  15  -2   15525    6924
  -3  15  -3    4139    3170
  -3  15  -4       3     987
   3 -14 -10      30    2813
   3 -14  -9      31    6610
   3 -14  -8     488    2440
   3 -14  -8    1357    4897
   3 -14  -7       6    6140
   3 -14  -7       6    5032
  -3  14   6   14473    7989
   3 -14  -6    3371    6925
  -3  14   5   15766    8345
  -3  14   4     335    3299
  -3  14   3    9381    7491
  -3  14   2    1124    3899
  -3  14   1    8852    7204
  -3  14   0    2866    5647
  -3  14  -1    8334    6573
  -3  14  -2   15898    6619
  -3  14  -3    1469    3447
  -3  14  -4    2187    3479
  -3  14  -5     683    1329
  -3  14  -6     868    1857
   3 -13 -11    8434    7008
   3 -13 -11    1600    3386
   3 -13 -10      74    9514
   3 -13 -10    1055    4196
   3 -13  -9    3302    6869
   3 -13  -9    7793   10435
   3 -13  -8    3068    4507
   3 -13  -8    6654    7521
   3 -13  -7    6476    6569
   3 -13  -7    7293    8607
   3 -13  -6    4088    4690
  -3  13   6    7634    5701
   3 -13  -6    6869    8962
   3 -13  -5    3615    7181
  -3  13   5   13887    8171
  -3  13   4   43464   14466
  -3  13   3    4847    5740
  -3  13   2   50990   16037
  -3  13   1   17484    7780
  -3  13   0      66    2753
  -3  13  -1   32546   11731
   3 -13   2       2    3766
  -3  13  -2       2    2694
  -3  13  -3   41263   12393
   3 -13   3   23626    9716
  -3  13  -4    2120    3275
  -3  13  -5    2460    4157
  -3  13  -6      51    2597
  -3  13  -7    1971    2013
   3 -12 -13    7125    6795
   3 -12 -12    4161    7973
   3 -12 -12    2033    4458
   3 -12 -11     110    4537
   3 -12 -11     410   12468
   3 -12 -10     539    9032
   3 -12 -10    4322    8869
   3 -12  -9    5017    9770
   3 -12  -9    4390    8628
   3 -12  -8      33    8903
   3 -12  -8      33   10922
   3 -12  -8    6135    6559
   3 -12  -7    9132    6142
   3 -12  -7    7841   12091
   3 -12  -6    1954    6062
  -3  12   6      73    5011
   3 -12  -6    1983    4476
   3 -12  -5   72931   16794
  -3  12   5  113277   24590
  -3  12   4   11326    7434
  -3  12   3   50833   16343
  -3  12   2   36973   13212
  -3  12   1   49245   14836
  -3  12   0   54939   16314
  -3  12  -1      60    4273
  -3  12  -2  123249   23287
   3 -12   2   61641   16021
   3 -12   3   11716    8435
  -3  12  -3   19554    9960
  -3  12  -4   21747    9805
   3 -12   4   16497   10315
   3 -12   5   10298    8108
  -3  12  -5   23003   10359
  -3  12  -6   13773    7348
  -3  12  -7   12899    6816
  -3  12  -8    1157    1778
  -3  12  -9    1646    1882
   3 -11 -13   12956   10312
   3 -11 -13    2140    5044
   3 -11 -12   53464   17498
   3 -11 -12   10169   10273
   3 -11 -11     204    5231
   3 -11 -11   30114   16701
   3 -11 -10    8038    9410
   3 -11 -10    2617    6652
   3 -11 -10   30601   15505
   3 -11  -9    1424    7421
   3 -11  -9     153    6047
   3 -11  -9    4282    6370
   3 -11  -8   52623   25512
   3 -11  -8   77840   23252
   3 -11  -8   39340   28621
  -3  11   7   25836   12351
   3 -11  -7   21060   11803
   3 -11  -7   13016   12201
   3 -11  -6   14068   17249
  -3  11   6   16553   11077
   3 -11  -6   15239    9789
   3 -11  -5  208161   28648
  -3  11   5  241111   35326
  -3  11   4    5383    5183
   3 -11  -3   62897   24704
  -3  11   3   81428   20186
  -3  11   2    1355    5109
   3 -11  -2      10   11429
  -3  11   1  100565   21879
   3 -11  -1   96310   35017
  -3  11   0      71    2817
   3 -11   0    3988    4517
   3 -11   1  105727   36977
  -3  11  -1  101750   20599
   3 -11   2   44408   14286
  -3  11  -2   53871   15743
   3 -11   3   26019   12035
  -3  11  -3   37465   13347
  -3  11  -4   65116   16265
   3 -11   4   55949   17633
  -3  11  -5      38    2500
   3 -11   5      38    9675
   3 -11   6   12842   10297
  -3  11  -6   24628   11315
  -3  11  -7    1118    2593
   3 -11   7       4    8851
  -3  11  -8   18555    8542
  -3  11  -9    2956    4184
  -3  11 -10    1801    2109
   3 -10 -14   18990   10580
   3 -10 -14    1199    3184
   3 -10 -13    6537    9340
   3 -10 -13   17176   14300
   3 -10 -12    1623    6990
   3 -10 -12   23922   17787
   3 -10 -11   67213   21599
   3 -10 -11   12409   10576
   3 -10 -10     984    6010
   3 -10 -10    4286    5792
   3 -10  -9   15734   12151
   3 -10  -9   11671   15314
   3 -10  -9   16947   14044
   3 -10  -8   17147   18203
   3 -10  -8   50596   17095
   3 -10  -8   24377   21729
   3 -10  -7    4819    9879
   3 -10  -7   14710    9617
  -3  10   7    9948    7221
   3 -10  -6      27   19168
   3 -10  -6    7874   11554
  -3  10   6    2127    5285
   3 -10  -6    6702   12775
   3 -10  -5       2    4116
  -3  10   5    4996    6526
   3 -10  -5    4331    7871
   3 -10  -4   49768   14795
   3 -10  -4   48366   21696
  -3  10   4   59629   16821
  -3  10   3   61390   17004
   3 -10  -3   71386   26901
  -3  10   2    1508    2947
   3 -10  -2   13164   13739
  -3  10   1   79270   18276
   3 -10  -1   94733   31631
  -3  10   0    5849    5082
   3 -10   0    8370   10711
  -3  10  -1   42813   13730
   3 -10   1   56110   25558
   3 -10   2    9048   11973
   3 -10   2   10560    7244
  -3  10  -2    2228    3992
  -3  10  -3    4583    5793
   3 -10   3   12806    8331
   3 -10   3   14172   15704
   3 -10   4   27096   13685
  -3  10  -4    3288    5946
  -3  10  -5   31987   12898
   3 -10   5   37544   16276
   3 -10   6   14663   10594
   3 -10   7   13592   10810
  -3  10  -8   23513   10967
   3 -10   8   16040   11333
  -3  10  -9    6673    5478
  -3  10 -10    6732    5058
  -3  10 -11     457    1563
   3  -9 -14     770    4818
   3  -9 -14      96    9514
   3  -9 -13     440    4776
   3  -9 -13    2163   13400
   3  -9 -12    4468    9405
   3  -9 -12    3291   15464
   3  -9 -11   93792   28337
   3  -9 -11    7057   10845
   3  -9 -10    1488    8620
   3  -9 -10    2593    8260
   3  -9  -9    5553    8307
   3  -9  -9   23573   16831
   3  -9  -9   16977   14953
   3  -9  -8     103    6744
   3  -9  -8    5649   12717
   3  -9  -8     103   10311
   3  -9  -7   13088   12454
  -3   9   7   22197   11353
   3  -9  -7   19511   11781
  -3   9   6   63968   16994
   3  -9  -6   62714   19052
   3  -9  -6   92154   37869
   3  -9  -6   54677   21676
  -3   9   5   35334   13177
   3  -9  -5   22163   13351
   3  -9  -5   33802   12476
   3  -9  -4  127692   33654
   3  -9  -3    6766    4020
   3  -9  -2   27380   15998
   3  -9  -1   15582   14048
   3  -9   0   78809   26175
   3  -9   1      28    8514
   3  -9   2   27004   18684
  -3   9  -2   26734   10776
   3  -9   3     283    9101
   3  -9   3     283    4169
   3  -9   4    2770    8962
   3  -9   4   27453   12127
   3  -9   5     870    6650
   3  -9   5    5596    7752
   3  -9   6    9456    9118
   3  -9   7   11895   11888
   3  -9   8    1777    7240
  -3   9 -11    2988    3528
  -3   9 -12     122    1105
   3  -8 -15     430    2641
   3  -8 -15     265    3635
   3  -8 -14     717    3717
   3  -8 -14    6528   11720
   3  -8 -13     461    7314
   3  -8 -13    1599   13872
   3  -8 -12    1462    9820
   3  -8 -12   38420   22074
   3  -8 -11    2169    8491
   3  -8 -11    3206   14821
   3  -8 -10      51    6343
   3  -8  -9   31059   14938
   3  -8  -9   27124   19044
   3  -8  -9   44548   17674
   3  -8  -8   15472   15278
   3  -8  -8   15770   10544
   3  -8  -8    5760   11253
   3  -8  -7   16825   11405
   3  -8  -7    8170    5864
   3  -8  -6   14711   12801
   3  -8  -6   16350   11527
   3  -8  -5    8815    9637
   3  -8  -4   11173   10200
   3  -8  -3  106231   29125
   3  -8  -2    9737    7520
   3  -8  -1   57169   21604
   3  -8   0   29656   16102
   3  -8   1  187953   39718
   3  -8   2  145056   36362
   3  -8   3    8150   11524
   3  -8   4   54814   26506
   3  -8   5    8383   13760
   3  -8   5    7464    7129
   3  -8   6   16347   18299
   3  -8   6   15005   11105
   3  -8   7   14165   10824
   3  -8   8      68   12384
   3  -8   9      33    7691
  -3   8 -13    1294    1752
   3  -7 -15    1729    3601
   3  -7 -15   17539    6789
   3  -7 -14     635    5190
   3  -7 -14     635   12162
   3  -7 -13   43233   20344
   3  -7 -13    1471    6958
   3  -7 -12   18694   17520
   3  -7 -12      94    5689
   3  -7 -11    9706    7527
   3  -7 -10    2477   11071
   3  -7  -9   36469   16098
   3  -7  -9   34231   18003
   3  -7  -9   23313   18646
   3  -7  -9   21421   18522
   3  -7  -8    1617    6317
   3  -7  -8   18795   16444
   3  -7  -8     652    8543
   3  -7  -8   10846   11084
   3  -7  -7    2468    2680
   3  -7  -7      97    5018
   3  -7  -7      97    7919
   3  -7  -6    9341   13065
   3  -7  -6    4601    6451
   3  -7  -6   12542   11029
   3  -7  -5   44261   18939
   3  -7  -5   35489   16425
   3  -7  -4   27082   14500
   3  -7  -3   15187    9618
   3  -7  -2   51602   17444
   3  -7  -1   26149   11648
   3  -7   0   13941   10707
   3  -7   1  372063   52705
   3  -7   2    6082    7262
   3  -7   3   62575   25348
   3  -7   4   10095   10674
   3  -7   5   48336   23883
   3  -7   6   18743   11217
   3  -7   6   23976   20591
   3  -7   7     379    8049
   3  -7   7    8860    7926
   3  -7   8   16752   10856
   3  -7   8    5627   16414
   3  -7   9    1592    7286
   3  -6 -15     143    5564
   3  -6 -15    1233    4322
   3  -6 -14    7944   12210
   3  -6 -14    2734   12292
   3  -6 -13    9868   13761
   3  -6 -13    2664    7342
   3  -6 -12   50034   21275
   3  -6 -12    7337   14558
   3  -6 -11   25538   18784
   3  -6 -10    6086   11038
   3  -6  -9   10785   12509
   3  -6  -9    4546    6699
   3  -6  -9    3794    8940
   3  -6  -8      11    8791
   3  -6  -8    3364    6254
   3  -6  -8     731    4678
   3  -6  -8      11    5352
   3  -6  -7   28576   15550
   3  -6  -7   22826   12834
   3  -6  -6   28535   12968
   3  -6  -6   30891   17085
   3  -6  -6   40605   18614
   3  -6  -5  100038   25280
   3  -6  -5  116353   26983
   3  -6  -5  136302   33305
   3  -6  -4   32916   14752
   3  -6  -4   23970   11243
   3  -6  -3    4388    5467
   3  -6  -3    3650    4938
   3  -6  -2   80281   20517
   3  -6  -1   46588   16139
   3  -6   0      50    3317
   3  -6   1  108578   24175
   3  -6   2  165212   31946
   3  -6   3   59821   21745
   3  -6   4   21072   14351
   3  -6   5   13835   12971
   3  -6   6    1035    9722
   3  -6   7    1053    9354
   3  -6   7     639    7781
   3  -6   7    1925    6275
   3  -6   8     570    7420
   3  -6   8     570   10864
   3  -6   8     335    4743
   3  -6   8      84    5371
   3  -6   9     313    7626
   3  -5 -15    4618    6733
   3  -5 -15     774    6481
   3  -5 -14     599    7920
   3  -5 -14    2550    8684
   3  -5 -13    6022    8371
   3  -5 -13     137   10939
   3  -5 -12   13692   15016
   3  -5 -12   20411   19687
   3  -5 -11    1430    9571
   3  -5 -10    4648    9925
   3  -5 -10     730    5720
   3  -5  -9      73    4704
   3  -5  -9    5832    6144
   3  -5  -8   28576   17188
   3  -5  -8   23151   13341
   3  -5  -7   37035   18285
  -3   5   7   43579   18415
   3  -5  -6   30455   14702
   3  -5  -5  105941   25244
   3  -5  -5  126387   27656
   3  -5  -5  125022   26840
   3  -5  -4    6895    6290
   3  -5  -4   10590    8656
   3  -5  -3   38483   12076
   3  -5  -3   39478   13621
   3  -5  -2   46120   13682
   3  -5  -2   57235   15748
   3  -5  -1   17968    6502
   3  -5  -1   31873   12538
   3  -5   0   16640    8033
   3  -5   1    4128    3177
   3  -5   2  166859   29000
   3  -5   3   19427   10249
   3  -5   4   18649   14017
   3  -5   5   18945   15561
   3  -5   6   76778   27807
   3  -5   7    8766   13704
   3  -5   8   23620   12983
   3  -5   8   25684   23096
   3  -5   8   17809   12090
   3  -5   9    4209    6292
   3  -5   9   20899   11580
   3  -5   9   20289   15430
   3  -5   9    3712    6218
   3  -5  10      39   10377
   3  -5  10    9344    9059
   3  -4 -15     623    6870
   3  -4 -15    5669    7399
   3  -4 -14     272    8256
   3  -4 -14    3233    8910
   3  -4 -13     497    6987
   3  -4 -12     509    6722
   3  -4 -12    7248   12647
   3  -4 -11   39032   15866
   3  -4 -11   15858   15916
   3  -4 -10    5496   11196
   3  -4 -10      58   12265
   3  -4  -9    4201    7704
   3  -4  -9   12443   10207
   3  -4  -8   12252   11995
   3  -4  -7     237    3107
  -3   4   7    4023    8218
   3  -4  -6   11775    8222
  -3   4   6   12556    7735
  -3   4   5   32553   14527
   3  -4  -5   17569   11205
   3  -4  -5   20075   12199
   3  -4  -4   37993   14526
   3  -4  -4   41910   15855
   3  -4  -3   13365    7036
   3  -4  -3   18154    8784
   3  -4  -2   51041   14376
   3  -4  -2   49568   13251
   3  -4  -1  206230   24145
   3  -4  -1  239089   27350
   3  -4   0  115510   19561
   3  -4   1  359499   35320
   3  -4   2   57925   16824
   3  -4   3   67870   20473
   3  -4   4   20521    9202
   3  -4   5     887    7283
   3  -4   5     107    6794
   3  -4   6  132298   37698
   3  -4   7     396    6451
   3  -4   8   69222   32228
   3  -4   9     637    5114
   3  -4   9      33    5387
   3  -4   9    6009   12458
   3  -4   9   18978   10720
   3  -4  10   58769   18419
   3  -4  10   40683   26070
   3  -4  10   42898   14855
   3  -4  11      38    9055
   3  -4  11    2249    3279
   3  -4  12    5176    7894
   3  -3 -15   13015    7813
   3  -3 -15    4691    8547
   3  -3 -14   10654    8775
   3  -3 -14   15534   11043
   3  -3 -13    5133   12106
   3  -3 -13    4103    7370
   3  -3 -12     225    8890
   3  -3 -11    9404   13734
   3  -3 -10     992    6806
   3  -3 -10     116    7090
   3  -3  -9   10860   12816
   3  -3  -9   11213    8352
   3  -3  -8     215    3332
   3  -3  -7   10476    6676
  -3   3   7   16007    9720
   3  -3  -6   10151    9615
  -3   3   6   19068   10840
   3  -3  -5    7785    8524
  -3   3   5    8063    6998
   3  -3  -5    5222    8244
   3  -3  -4  133375   23781
  -3   3   4  136470   22204
   3  -3  -4  111901   22846
   3  -3  -3    1449    2547
   3  -3  -3    9709    6640
  -3   3   3    3921    4752
   3  -3  -2    2056    2346
   3  -3  -2    6062    6580
   3  -3  -2    2640    4439
   3  -3  -1     213    3000
   3  -3  -1    2542    2348
   3  -3   0    3533    3942
   3  -3   0    2295    2596
   3  -3   1     117    2065
   3  -3   2  118019   20950
   3  -3   3   42936   12689
   3  -3   4   11301    9038
   3  -3   4    4052    3400
   3  -3   5  142568   26436
   3  -3   5  114944   30938
   3  -3   6    4451    2799
   3  -3   6    6817    5958
   3  -3   6    5313    3798
   3  -3   7   96322   27862
   3  -3   8   33604   22521
   3  -3   9  106890   40636
   3  -3  10   39210   14835
   3  -3  10   24399   18732
   3  -3  10   24182   10189
   3  -3  11      41    5803
   3  -3  11      41    6078
   3  -3  12   44384   15443
   3  -3  12    5515    7028
   3  -3  13     899    6071
   3  -2 -15      33    8130
   3  -2 -14    7607    7540
   3  -2 -14    9249   12596
   3  -2 -13     850   12783
   3  -2 -13   17163   11778
   3  -2 -12    2926   12545
   3  -2 -11     630    7268
   3  -2 -10    8647   13751
   3  -2 -10   22144   18378
   3  -2  -9    2949    8568
   3  -2  -9    8110   10711
   3  -2  -8    5733    5537
   3  -2  -7   27818   16464
   3  -2  -6     113    6332
  -3   2   6    3177    5057
   3  -2  -5  123019   19671
   3  -2  -5  133015   27582
   3  -2  -4       5    3621
   3  -2  -4    1669    4175
  -3   2   4      14    3765
   3  -2  -4      14    4358
   3  -2  -3   86876   18929
   3  -2  -3   79580   18368
   3  -2  -3   79852   13672
  -3   2   3   76665   14159
   3  -2  -2   10535    7667
   3  -2  -2    7719    4599
   3  -2  -2    5963    5114
   3  -2  -1  167698   19312
   3  -2  -1  129889   14085
   3  -2  -1  170555   23134
   3  -2  -1  154188   23069
   3  -2   0   97163   11036
   3  -2   0   97509   14936
   3  -2   0  118192   20100
   3  -2   1   19784    9638
   3  -2   1   15451    4903
   3  -2   2  562247   45170
   3  -2   2  453743   33955
   3  -2   3    3260    3575
   3  -2   3   10117    6808
   3  -2   4   10180    7277
   3  -2   4    3612    4798
   3  -2   5  111599   25559
   3  -2   5  117743   18312
   3  -2   6   56922   11298
   3  -2   6   61734   18915
   3  -2   7  109544   32101
   3  -2   8    7324   11593
   3  -2   9   78444   29162
   3  -2  10     155    8745
  -3   2 -10     279    6806
   3  -2  10     155    5903
   3  -2  11     309    8234
   3  -2  11     309   11162
   3  -2  11    3356   13278
   3  -2  11      52    4623
   3  -2  12    2405    4427
   3  -2  12   12178    8833
   3  -2  13    1608    5089
   3  -2  13     397   10321
   3  -2  14     920    3871
   3  -1 -14    6993    8437
   3  -1 -14      65    7547
   3  -1 -14     959   12047
   3  -1 -13    2275    8734
   3  -1 -13    2562    7930
   3  -1 -12    7089   11718
   3  -1 -12   13589   17762
   3  -1 -11    2350    7400
   3  -1 -10   14214   15462
   3  -1 -10   14519   15643
   3  -1  -9    5130   10288
   3  -1  -9    8032   13943
   3  -1  -8   16743   14521
   3  -1  -7    1481    3102
   3  -1  -6      95    6815
   3  -1  -6     106    3410
  -3   1   6      95    5146
   3  -1  -5   10095    8946
   3  -1  -5    9433    7622
  -3   1   5   19384    9566
  -3   1   4   65056   13018
   3  -1  -4   37818   10864
   3  -1  -4   50660   13437
   3  -1  -4   46449   14634
  -3   1   3   57751   11334
   3  -1  -3   61237   15109
   3  -1  -3   55042   14087
   3  -1  -3   55881   17719
   3  -1  -2    2438    4210
   3  -1  -2    3338    3639
  -3   1   2      59    2339
   3  -1  -2      59    6484
   3  -1  -1  831964   53669
   3  -1  -1  700995   44568
   3  -1  -1  786416   50695
   3  -1   0   23673    3405
   3  -1   0   31629    9506
   3  -1   0   40913   10530
   3  -1   0   42240   11996
   3  -1   1  907501   52147
   3  -1   1  685168   27351
   3  -1   2  138800   20099
   3  -1   2  113550   15296
   3  -1   3  129493   20534
   3  -1   3  115074   20459
   3  -1   4     386    3215
   3  -1   4    1369    4666
   3  -1   5   29124    8043
   3  -1   5   38479   13286
   3  -1   6  123032   28029
   3  -1   6   80679   12613
   3  -1   7    6951    8696
   3  -1   8   27068   13365
   3  -1   9    3748    7215
   3  -1  10   19342   16193
   3  -1  11     437    9210
   3  -1  11    6457    6925
  -3   1 -11    2455    6890
   3  -1  11     437    8246
   3  -1  12     612    5839
   3  -1  12     612    7906
  -3   1 -12    1630    9649
   3  -1  13     492    8568
   3  -1  13   17165   10725
   3  -1  14     289    5895
   3  -1  15     264    3294
   3   0 -14     487    7666
   3   0 -14     487    3802
   3   0 -13   11842   11512
   3   0 -13    5793   15469
   3   0 -12    2777    8817
   3   0 -12   13176   13395
   3   0 -11     852   12269
   3   0 -11     901    5573
   3   0 -10     170   10271
   3   0 -10     131    4868
   3   0  -9    6996   13200
   3   0  -9   14647   14832
   3   0  -8   19252   13830
   3   0  -7      66    7414
   3   0  -6   36890   17230
   3   0  -6   17397   13791
  -3   0   6   39451   14960
   3   0  -5    7601    7711
   3   0  -5    8128    4641
  -3   0   5    6157    5948
   3   0  -4    9720    8123
   3   0  -4    9854    8111
  -3   0   4    9870    6006
   3   0  -4    7873    6794
   3   0  -3   22504   10678
   3   0  -3   22608    8777
  -3   0   3   25724    6751
   3   0  -3   24668   11353
   3   0  -2    2933    4352
   3   0  -2     888    3593
   3   0  -2    1943    3807
  -3   0   2    2444    1947
   3   0  -1     956    2721
   3   0  -1    9302    6323
   3   0  -1    8425    3664
   3   0   0  568528   38596
   3   0   0  576462   37326
   3   0   0  614695   40666
   3   0   1 1269781   33090
   3   0   1 1360960   56700
   3   0   1 1356381   59901
   3   0   2  280757   28835
   3   0   2  269450   24841
   3   0   2  246815   20719
   3   0   3  145868   18090
   3   0   3  163389   20155
   3   0   4    2671    3646
   3   0   4    5046    5472
   3   0   5   26405    6624
   3   0   5   30366   10764
   3   0   6   20532   10861
   3   0   6   12216    5774
   3   0   7    5755    7704
   3   0   8   10408    6897
   3   0   9    8331   11247
   3   0  10   35668   20704
   3   0  11     447    8332
   3   0  11     447    7740
   3   0  11     447    7444
  -3   0 -11     447   10363
   3   0  12   18138   10706
   3   0  12   10745   21131
  -3   0 -12     509    9701
  -3   0 -13   14166    9890
   3   0  13    1871    5241
   3   0  14   29520   12027
   3   0  14    1020    6963
   3   0  15     200    5496
   3   0  16    3582    4890
   3   1 -14     635    6173
   3   1 -13     629   12068
   3   1 -13     629    7112
   3   1 -13     629    9225
   3   1 -12    2095    8009
   3   1 -12     850    4968
   3   1 -11     720    4619
   3   1 -11   16472   19012
   3   1 -10   12951   13047
   3   1 -10   15970   14396
   3   1  -9   14626    9645
   3   1  -9    3016    8112
   3   1  -9   16514   14833
   3   1  -8    4671    6453
   3   1  -8    3152    8301
   3   1  -7    7905    9248
   3   1  -7   25178   17894
   3   1  -6    4899    5406
  -3  -1   6     148    4693
  -3  -1   5  113245   22434
   3   1  -5   96988   25749
  -3  -1   4   31699   10071
   3   1  -4   15419    7565
   3   1  -4   31605   13718
   3   1  -3   10032    7163
  -3  -1   3   12134    5854
   3   1  -3   16508   11009
   3   1  -2   16882    6484
  -3  -1   2   12633    4000
   3   1  -2   12236    6631
   3   1  -2   15771    9150
   3   1  -1   73818   20568
   3   1  -1   75848   20972
  -3  -1   1   62449   11009
  -3  -1   1   35506    6817
   3   1  -1   62441   15497
   3   1   0    8938    6326
   3   1   0    8114    8258
  -3  -1   0    6708    3129
  -3  -1  -1   30657    4725
   3   1   1   35389    8725
   3   1   1   17937    4485
   3   1   1   37880    9462
   3   1   2  185339   22249
   3   1   2  181148   18582
   3   1   2  161384   15801
   3   1   3    7642    6478
   3   1   3    7291    5681
   3   1   3    8998    6573
   3   1   4  116313   20297
   3   1   4  105352   15538
   3   1   5   31953   13283
   3   1   5   26802    7949
   3   1   6   87146   14343
   3   1   6  100366   22021
   3   1   7   71014   21636
   3   1   8   18298   13242
   3   1   9   11719   12723
   3   1  10   13998   14661
   3   1  11   18050   17278
   3   1  11   26639   10902
   3   1  11   21361   11507
   3   1  12    2734   16398
  -3  -1 -12     783    5997
   3   1  12   17425   11233
   3   1  13   27071   13520
  -3  -1 -13    7728   13514
  -3  -1 -14   29659   13058
  -3  -1 -14   15292    6440
   3   1  14   18154    8166
   3   1  15    7955    7167
   3   1  15     560    7768
   3   1  16     198    3919
   3   2 -13    2607   10034
   3   2 -12    4307   14936
   3   2 -12     784   10427
   3   2 -12     784    6512
   3   2 -11    1723   10686
   3   2 -11     996    7161
   3   2 -10    2002   13440
   3   2 -10    8120   11847
   3   2  -9    1546   12001
   3   2  -9    1817   11315
   3   2  -9    9367   10702
   3   2  -8   22477   14810
   3   2  -8    5807   10459
   3   2  -8   14266   11107
   3   2  -8    3178    5333
   3   2  -7   27583   14974
   3   2  -6   23924   13368
  -3  -2   5   30754   13218
   3   2  -5   31463   16101
   3   2  -4   65759   19393
  -3  -2   4   71537   16779
  -3  -2   3  116163   19857
   3   2  -3  121281   27261
  -3  -2   3  116003   23454
   3   2  -2    5537    5564
  -3  -2   2    5188    4616
   3   2  -2    5426    2962
   3   2  -1  218546   32177
  -3  -2   1  193337   23048
   3   2  -1  162764   24620
  -3  -2   0  207589   19648
   3   2   0  205578   29382
   3   2   0  190253   23941
  -3  -2  -1  642154   33964
   3   2   1  701921   44427
   3   2   1  736443   51109
   3   2   2  309174   27410
   3   2   2  259991   21873
   3   2   2  305738   26339
   3   2   3   35231    5899
   3   2   3   33414    7977
   3   2   3   48039    9960
   3   2   4  318554   30781
   3   2   4  350602   36929
   3   2   5  111283   18887
   3   2   5  138654   24781
   3   2   6  395075   44674
   3   2   7   36887   15599
   3   2   8  127170   31956
   3   2   9     440    7397
   3   2  10    4948    3838
   3   2  11   29444   21105
   3   2  11   51684   17760
  -3  -2 -12     657    9172
   3   2  12    4337    8687
  -3  -2 -13     743    6773
   3   2  13    3824    7634
   3   2  14   23103   12676
  -3  -2 -14    7353   12601
  -3  -2 -15    6421    6545
   3   2  15    9278    8333
   3   2  16    3011    3138
   3   2  17    1195    1911
   3   3 -13    2120    7044
   3   3 -12       9    7346
   3   3 -11     981   14274
   3   3 -11   30687   18573
   3   3 -11    5855   18444
   3   3 -10     611   15574
   3   3 -10    9991   12765
   3   3 -10     611   13705
   3   3  -9   16340   19484
   3   3  -9    6814    9356
   3   3  -8   37501   15669
   3   3  -8   13178   17172
   3   3  -8     848    7490
   3   3  -8   13730    9245
   3   3  -7    1083    7208
   3   3  -6   27384   20668
  -3  -3   5   29897   15843
   3   3  -5   15816   13169
   3   3  -4   36156   17154
  -3  -3   4   41259   15322
  -3  -3   4   41008   17271
   3   3  -3    9789    8805
  -3  -3   3   13578    9148
  -3  -3   2   27856   11160
   3   3  -2   26874   11807
  -3  -3   1   62809   14735
  -3  -3   0  308857   30811
   3   3   0  247112   30457
   3   3   0  285242   37392
   3   3   1   25000    8662
   3   3   1   23993    8969
  -3  -3  -1   21855    6697
   3   3   2   21996    6460
   3   3   2   23415    6957
  -3  -3  -2   18203    3924
   3   3   2   19998    6313
   3   3   3   26870   11991
   3   3   3   20851   11403
   3   3   3   25618   11692
   3   3   4  137354   20288
   3   3   4  158846   23525
   3   3   4  155166   21022
   3   3   5   34048   10971
   3   3   6   27711   13530
   3   3   7    3452    6856
   3   3   8   39326   16370
   3   3   9   51708   21546
   3   3  10   60752   26598
   3   3  11   33845   13337
   3   3  11   10781   16945
   3   3  11   13372   10560
   3   3  12   11539   14795
  -3  -3 -12   33610   14845
   3   3  12   14447   10086
  -3  -3 -13    7870   12114
   3   3  13    9003   10152
  -3  -3 -14   14523   13008
   3   3  14   30933   13749
  -3  -3 -15   26106   13076
   3   3  15   54634   13441
  -3  -3 -16    1896    3534
   3   3  16     444    3519
   3   3  17    3896    3932
   3   4 -12    3600    6392
   3   4 -11   12043   20852
   3   4 -10    3132    7792
   3   4 -10   27737   19313
   3   4  -9   27640   15330
   3   4  -9    9704   19981
   3   4  -9     632    9617
   3   4  -8   13019   11722
   3   4  -8     272    9599
   3   4  -8    1962   12190
   3   4  -7   17913   12192
   3   4  -7   45777   18925
   3   4  -6    2056    9154
  -3  -4   5   64564   23435
   3   4  -5   39838   18263
   3   4  -4   18199   13774
  -3  -4   4   24703   15262
  -3  -4   4   24299   15971
   3   4  -3   16054   12068
  -3  -4   3   17009   11224
  -3  -4   2  126849   27088
  -3  -4   1    8227    6965
  -3  -4   0  215460   28601
   3   4   1   63046   19947
  -3  -4  -1   64305   17519
   3   4   2   83809   21376
  -3  -4  -2   77393   18553
  -3  -4  -3    9604    4958
   3   4   3   10934    5153
   3   4   3    1066    4351
   3   4   4   29610    8126
   3   4   4   41636   12335
   3   4   5   37846   16449
   3   4   5   32863   13438
   3   4   6   88016   24744
   3   4   7  162810   32865
   3   4   8     298    8380
   3   4   9   49940   23296
   3   4  10     128    5200
   3   4  11    7129    6749
   3   4  11    4932    8492
   3   4  11    6013    5167
   3   4  12    5189    7678
   3   4  12    3324    5898
   3   4  12    6198   10699
   3   4  13   16411   11846
  -3  -4 -14   22431   13636
   3   4  15     456    6686
   3   4  16     263    3939
  -3  -4 -16    3446    4157
   3   4  17      50    4217
   3   5 -12    1265    3072
   3   5 -11     147    7343
   3   5 -10    7702   10956
   3   5  -9     219   10454
   3   5  -8   10881   26564
   3   5  -8     195    8924
   3   5  -7    8670   13219
   3   5  -7   16267   18725
   3   5  -7       2   16161
   3   5  -6     165    8419
   3   5  -6   30689   17932
  -3  -5   5  112088   35783
  -3  -5   5  109510   40156
  -3  -5   4    4164    6909
  -3  -5   3  152299   35770
  -3  -5   2   58494   21784
  -3  -5   1  350405   46076
  -3  -5   0   67480   19127
  -3  -5  -1  130845   26261
   3   5   1  107508   26999
   3   5   2  134046   24559
  -3  -5  -2  136557   23616
   3   5   3   10304    5313
  -3  -5  -3   10176    5363
   3   5   4   34008   15502
   3   5   4   32144   11161
   3   5   5    6337    6968
   3   5   5    2315    4235
   3   5   6  168627   32265
   3   5   7    5714    7740
   3   5   8   70123   26968
   3   5   9   37055   19299
   3   5  10   29705   17047
   3   5  11   21021   12160
  -3  -5 -11     195    7430
   3   5  11   61503   19297
   3   5  11   45094   27240
   3   5  12   37099   14832
   3   5  12   16900   10697
   3   5  12    8778   10485
   3   5  13   24178   13054
   3   5  14   15345   11599
   3   5  15     865    6121
   3   5  16    8049    6851
   3   5  17   16608    5713
   3   6 -11     390    4959
   3   6 -10     505   12387
   3   6  -9    4561   11682
  -3  -6   8   12359    8114
   3   6  -8    2401   19156
   3   6  -7    6383   14553
   3   6  -7    4791    4647
   3   6  -6   25823   21706
   3   6  -6   23041    9752
  -3  -6   5     145   10982
  -3  -6   4   90173   32594
  -3  -6   3   25859   19209
  -3  -6   2   57743   24039
  -3  -6   1  190123   35662
  -3  -6   0  180259   33343
  -3  -6  -1  599646   60473
   3   6   1  450730   55967
  -3  -6  -2    5889    7214
   3   6   2    4611    6018
  -3  -6  -3  841608   70702
   3   6   3  717607   59049
  -3  -6  -4   79789   21379
   3   6   4   59411   13903
   3   6   5   45611   11665
   3   6   5   62287   19949
  -3  -6  -5   53321   18320
   3   6   6  463428   60646
   3   6   7   32998   18085
   3   6   8  138467   34623
   3   6   9    3781    8577
   3   6  10   62792   28965
  -3  -6 -11   13442   10251
   3   6  11     223    5998
   3   6  11     336    7030
  -3  -6 -11    2256    6736
  -3  -6 -12   10791    9609
  -3  -6 -12    8622    7602
   3   6  12   16988    9802
   3   6  12   10257    8472
   3   6  12    6484   12210
   3   6  13    4818    8891
   3   6  13   12862   10830
   3   6  14   46031   17492
   3   6  16    1653    5204
   3   6  17    5253    3929
  -3  -6 -17    7124    4192
   3   7 -10      10    7629
   3   7  -9    6306    6643
  -3  -7   8    4176    4739
   3   7  -8    1680   11935
   3   7  -7      24    5279
   3   7  -7      24    6851
   3   7  -6      34    8501
   3   7  -6    6762    5172
   3   7  -5   11393    8153
  -3  -7   5    1625    7522
   3   7  -5    2752    6778
  -3  -7   4    8410   15551
  -3  -7   3    4000    4451
  -3  -7   2   16817   12091
  -3  -7   1    8825   11630
  -3  -7   0  271099   46820
   3   7   1   22137   14450
  -3  -7  -1   27846   13203
   3   7   2   67325   21562
  -3  -7  -2   90212   25269
   3   7   3   27234   11546
  -3  -7  -3   23248   11324
  -3  -7  -4   91385   24421
   3   7   4   66228   16231
  -3  -7  -5  132940   34223
  -3  -7  -6   19639   15185
   3   7   6   15663   13170
   3   7   7  188334   41141
   3   7   8     287    6191
   3   7   9   70134   29909
   3   7  10   15157    8324
   3   7  10   11575   11628
  -3  -7 -10    7438    9760
  -3  -7 -11   20708   14561
  -3  -7 -11   20602    9470
   3   7  11   31563   13549
   3   7  11   29158   21766
  -3  -7 -12   16524   12643
  -3  -7 -12   23508   17283
   3   7  12   73635   21509
   3   7  12   65793   20946
   3   7  12   52360   29030
   3   7  13   16666   13570
   3   7  13   15057   11397
  -3  -7 -13     107    6029
  -3  -7 -13    5095    8633
   3   7  14   45250   15887
   3   7  16   24346    9280
   3   7  17     450    4840
  -3  -7 -17    6663    3429
   3   8  -9    3130    5303
  -3  -8   9    3851    3843
   3   8  -8    7138   14157
  -3  -8   8    7178    6161
   3   8  -7      84    5976
   3   8  -7   14244   12250
   3   8  -6   20619   14816
   3   8  -6     259    3115
  -3  -8   5   30138   24596
   3   8  -5   46963   23206
   3   8  -5   23640   12067
   3   8  -4    2352    5797
   3   8  -4     503    9435
  -3  -8   4     503    5292
   3   8  -3   37442   11210
  -3  -8   3   44387   22322
   3   8  -3   12790   19861
  -3  -8   2     831    8048
  -3  -8   1   17406   13431
  -3  -8   0  102399   32051
  -3  -8  -1   18027   13187
   3   8   1   11944   11135
   3   8   2   23092   14040
  -3  -8  -2   32202   17134
   3   8   3   23742   12508
  -3  -8  -3   42422   19443
   3   8   4   10391    8455
  -3  -8  -4   18934   13327
  -3  -8  -5    3699    6751
  -3  -8  -6   31831   15593
  -3  -8  -7    3259    7816
   3   8   7    1836   10010
  -3  -8  -8   67128   30791
   3   8   8   72447   29470
  -3  -8  -9   13379   12823
   3   8   9   47005   22898
   3   8  10     201   12115
   3   8  11   83621   37236
  -3  -8 -11   65273   25441
   3   8  11  103461   23554
  -3  -8 -11   56506   20212
   3   8  12   32518   13741
   3   8  12   13505    9809
  -3  -8 -12     112    5605
  -3  -8 -12   15673   11673
   3   8  13   19409   11707
  -3  -8 -13    5119    9296
  -3  -8 -13   16240   13766
   3   8  13   19786   10890
   3   8  14    1285    5697
   3   8  16   24869    8551
  -3  -8 -17      92    8144
   3   8  17   11203    4556
  -3  -9   9       7    2585
   3   9  -8     908    8891
  -3  -9   8    8236    6056
  -3  -9   7     989    4749
   3   9  -7     116    6829
   3   9  -6   48204   21539
   3   9  -6   19191    9699
   3   9  -5    2451    4006
   3   9  -5     130    9928
   3   9  -4   20538   10689
   3   9  -4   13081   14359
   3   9  -4   20625   22342
  -3  -9   4   47027   25230
  -3  -9   3   15267   19328
   3   9  -3    6838    5656
   3   9  -3     261   11794
   3   9  -2   15139   10203
  -3  -9   2   19170   17019
   3   9  -2   21892   13815
  -3  -9   1   23126   18315
  -3  -9   0   12658   10376
   3   9   0    5351   14569
   3   9   1  161176   41415
  -3  -9  -1  252213   50774
  -3  -9  -2    7935    9381
   3   9   2    3403    9807
   3   9   3   11120   10142
  -3  -9  -3   18257   14281
  -3  -9  -4   80906   29188
  -3  -9  -5   84604   31205
  -3  -9  -6   20712   16806
  -3  -9  -7   30917   20797
  -3  -9  -8   38068   23221
  -3  -9  -9     195    6543
  -3  -9 -10    3516    7516
   3   9  11   20825   11978
   3   9  11   18111   19263
  -3  -9 -11   28412   14697
  -3  -9 -11    4956   10910
  -3  -9 -12   21877   16228
   3   9  12    7300    6145
  -3  -9 -12    2056    7823
   3   9  13    1741    7385
  -3  -9 -13    1710    8838
  -3  -9 -13    1676    5019
  -3  -9 -14    9257    8508
   3   9  14   10203    8819
   3   9  17   11380    4079
  -3  -9 -17    4010    6096
  -3 -10   8      26    2969
  -3 -10   7    2365    4869
  -3 -10   6   40992   13817
   3  10  -5   12845    6049
   3  10  -5    1562   11862
   3  10  -4   12030   11779
   3  10  -4   17835    8940
   3  10  -3      73    6250
   3  10  -3    4188   11376
   3  10  -2   18075    9870
   3  10  -2   29594   20942
  -3 -10   2   28836   22335
   3  10  -1     190    7397
   3  10  -1     334    4203
  -3 -10   1      50   10713
  -3 -10   0   46900   24238
   3  10   0   18101   16252
   3  10   0   27595   10865
   3  10   1   19952    7481
   3  10   1   17864   17924
  -3 -10  -1   40409   22688
   3  10   2   35199   20767
  -3 -10  -2   56268   25587
  -3 -10  -3   49026   25027
  -3 -10  -4    7831   15682
  -3 -10  -5  364267   66217
  -3 -10  -6   11233   11790
   3  10   7   61449   13129
   3  10   7   76617   16581
  -3 -10  -7   97130   36990
   3  10   8     153    4263
  -3 -10  -8    8122   13193
   3  10   9   10530    8264
  -3 -10  -9   25410   20827
  -3 -10 -10     245    4032
  -3 -10 -11    3544   13518
   3  10  11   18616    9803
   3  10  12   13642   11516
  -3 -10 -12    7847   11805
  -3 -10 -12       7    7372
   3  10  13       5    6569
  -3 -10 -13    2632    8964
  -3 -10 -13       5    9610
   3  10  14   13369   10698
  -3 -10 -14    5134    6391
  -3 -10 -14    2381    8662
  -3 -11   7    4911    5331
  -3 -11   6      90    5142
   3  11  -4    1737    7204
   3  11  -3   17695   10492
   3  11  -2   11226    8080
   3  11  -1   33481   12078
   3  11   0   46403   11722
  -3 -11   0   41389   24866
   3  11   0    3701   12101
   3  11   1   19053    7278
  -3 -11  -1   29975   21795
   3  11   2   17059    8421
  -3 -11  -2   24200   19357
   3  11   3     316    3580
  -3 -11  -3    3145   10085
   3  11   4   30870    9542
  -3 -11  -4   72334   30930
   3  11   5    7731    5485
  -3 -11  -5    8106   15568
   3  11   6   37659   11259
  -3 -11  -6   61867   30001
   3  11   7   16633    9984
   3  11   7   12561    6798
  -3 -11  -7   17562   14698
  -3 -11  -8   29548   25053
   3  11   8   35631   12859
   3  11   9   48314   13829
   3  11   9   29246    9385
  -3 -11 -11   24186   17642
   3  11  11   43723   18120
   3  11  12    8768    9291
  -3 -11 -12    4752    7503
  -3 -11 -12   11316   13813
  -3 -11 -13     409    5910
   3  11  13    9803    8350
  -3 -11 -13    3885    5135
  -3 -11 -14    2272    4120
  -3 -11 -14    6515    8024
   3  11  14    9456    7844
  -3 -12   7     392    2595
  -3 -12   6   20527    8083
  -3 -12   5   12623    8805
   3  12  -2      12    8021
   3  12  -1   63489   18083
   3  12   0     344    4828
   3  12   1   55346   15571
   3  12   2   27427    9679
   3  12   3   19156    8103
  -3 -12  -3   38106   25686
   3  12   4   15616    6774
  -3 -12  -4   31610   22035
   3  12   5   19381    8424
  -3 -12  -5   17932   16353
  -3 -12  -6   77150   35019
   3  12   6   57404   17443
   3  12   6   50257   12767
   3  12   7    6927    5956
   3  12   7   10658    7256
   3  12   8   76839   17736
   3  12   9   22842    9479
   3  12   9   14578    7272
   3  12  11   42436   18977
  -3 -12 -11   16760   18288
  -3 -12 -11   56758   24363
  -3 -12 -12   26508   17056
   3  12  12   22782   12301
  -3 -12 -12    6081   10151
   3  12  13   20141    9993
  -3 -12 -13   10427   11525
  -3 -12 -13    8690    8808
   3  12  14    1970    3318
  -3 -12 -14      37    7457
  -3 -12 -14    4687    5479
  -3 -12 -16      29    6259
  -3 -13   6    2965    3457
   3  13  -6     648    2892
  -3 -13   5     323    3536
   3  13  -5     620    3056
  -3 -13   4   10353    7101
   3  13   0   61514   17942
   3  13   1     162    5039
   3  13   3   27136    9450
   3  13   4    1222    2691
   3  13   5   74933   15441
   3  13   6   23077    8788
   3  13   6   28217   11667
   3  13   7   34342   11329
   3  13   7   39725   14281
   3  13   8   32516   11053
   3  13   9    8694    4785
   3  13   9     341    2868
  -3 -13 -11    7819   15652
   3  13  11      49    6276
  -3 -13 -11       0    7949
   3  13  12   35782   11697
  -3 -13 -12   13739   10200
  -3 -13 -12   29968   17780
  -3 -13 -13    2112    5674
  -3 -13 -13    1871    4911
   3  13  13    2003   46118
   3  13  14   22993    8522
  -3 -13 -15      60    5497
  -3 -14   5      27    3235
   3  14  -4    4423    4287
  -3 -14   4    2697    3945
   3  14  -3    8364    4793
  -3 -14   3    7257    5636
  -3 -14   2    9321    7296
   3  14  -2     186    3205
   3  14  -1   10415    6697
   3  14   4    8089    4332
   3  14   5    5542    4145
   3  14   5   11153    6089
   3  14   6      47    2704
   3  14   6    2394    5467
   3  14   7    3757    4753
   3  14   8    5546    3999
   3  14   8   16045    6981
   3  14   9   21851    8338
  -3 -14 -10    8127   12861
   3  14  11   36827   12314
  -3 -14 -11   31679   16431
  -3 -14 -11   19040   14224
   3  14  12    2368    3096
  -3 -14 -12      20    5605
  -3 -14 -12     695    4930
   3  14  13   17604    7209
  -3 -14 -13    4725    4101
  -3 -14 -13    5710    6757
   3  14  14    4760    2882
  -3 -15   3     513    2257
  -3 -15   2    5445    4741
  -3 -15   1   19377    6927
  -3 -15   0   10695    6421
  -3 -15  -1   10000    5902
   3  15   4    2602    4604
   3  15   5   12897    8968
   3  15   5   10151    4558
   3  15   6   24133   10007
   3  15   7    1959    4022
   3  15   8   13337    5836
   3  15   8   13753    5988
  -3 -15  -9    3883    6044
   3  15   9    6928    4205
  -3 -15 -10   10021    9129
  -3 -15 -10    8637    8148
   3  15  11    7388    6760
  -3 -15 -11    8563    7184
  -3 -15 -11    2680    6904
  -3 -15 -12     321    4400
   3  15  12    5733    4432
  -3 -15 -12     584    3299
  -3 -15 -13    5054    3037
   3  15  13   12156    4144
   3  16  -1    1149    2153
  -3 -16   0    4679    3057
   3  16   0    1174    3208
   3  16   1   13479    6740
  -3 -16  -1    4352    2824
   3  16   2    2317    3556
   3  16   3   12132    6567
   3  16   4    7355    5633
   3  16   5   44467   11465
   3  16   6       5    4396
   3  16   6     216    2439
   3  16   7   31590    7981
  -3 -16  -7   44513   12805
   3  16   7   34773    7659
  -3 -16  -8    8375    6046
   3  16   8    1384    2625
  -3 -16  -9    5157    5333
  -3 -16  -9    7244    7618
   3  16   9    3429    1872
  -3 -16 -10    7115    6903
  -3 -16 -10    3824    3135
   3  16  10   10963    5337
  -3 -16 -11      20    2979
   3  16  11    3232    3219
  -3 -16 -11    1898    4389
  -3 -16 -12    1103    2174
   3  17   2    7560    3630
   3  17   2    5090    2883
   3  17   3      17    2737
   3  17   3      17    1575
   3  17   4   16102    5310
   3  17   4    8450    4296
   3  17   5   12130    4311
   3  17   5   12597    4860
   3  17   6    6207    3657
   3  17   7    8696    3566
   3  17   8     978    3324
  -3 -17  -8     523    3811
   3  17   9   24885    6809
  -3 -17  -9   16177    6544
   4 -16  -5     879    2303
   4 -16  -4    1005    2864
  -4  16   2   16894    5239
  -4  16   1      42    1265
  -4  16   0   10114    4241
  -4  16  -1      11     702
   4 -15  -8    1915    3739
   4 -15  -7    1129    3990
   4 -15  -6       6    3081
  -4  15   4      33    2816
  -4  15   3   23121    8697
  -4  15   2    5504    4676
  -4  15   1      59    1881
  -4  15   0      23    1874
  -4  15  -1    6321    4399
  -4  15  -2    6645    4096
  -4  15  -3       5    2032
  -4  15  -4    1978    1849
   4 -14 -10    4144    3786
   4 -14  -9     136    4068
   4 -14  -8    3753    6945
   4 -14  -7    6465    7237
  -4  14   5    1491    2242
  -4  14   4   22535   10059
  -4  14   3    1864    4560
  -4  14   2   12180    7864
  -4  14   1    6568    5260
  -4  14   0    4771    5129
  -4  14  -1   23522    9793
  -4  14  -2    2303    1825
  -4  14  -3   21287    7556
  -4  14  -4    2147    2833
  -4  14  -5     443    1756
  -4  14  -6     130    1300
   4 -13 -11      75    2236
   4 -13 -11    3022    1953
   4 -13 -10     140    4507
   4 -13  -9    9045    6377
   4 -13  -8     124    4937
   4 -13  -7   13122   18471
  -4  13   6    6649    6995
  -4  13   5   22712   11736
  -4  13   4   19219   11234
  -4  13   3   63913   17642
  -4  13   2   27423   11290
  -4  13   1    2118    2806
  -4  13   0   22812   10853
  -4  13  -1     519    2624
  -4  13  -2   54321   14802
  -4  13  -3   30640   11477
  -4  13  -4    6364    5821
  -4  13  -5     676    2615
  -4  13  -6      97    2036
  -4  13  -7     650    1894
   4 -12 -12    4940    4178
   4 -12 -11      82    9745
   4 -12 -11    3158    6063
   4 -12 -10      84   10634
   4 -12 -10    1384    7909
   4 -12  -9      87    9563
   4 -12  -9      87    4879
   4 -12  -8   20549   11023
   4 -12  -8    3305   12166
   4 -12  -8      58    3672
   4 -12  -7    1001    8960
   4 -12  -7    2180    4849
   4 -12  -6       6    7722
  -4  12   6    2810    5140
  -4  12   5   28952   12816
  -4  12   4     452    2941
  -4  12   3   62678   18904
  -4  12   2   10161    8506
  -4  12   1   22567   11950
  -4  12   0   26946   11814
  -4  12  -1    5212    6151
  -4  12  -2   57973   16659
   4 -12   3    2020    4800
  -4  12  -3     112    5370
  -4  12  -4   23251    9270
  -4  12  -5    1634    3367
  -4  12  -6   18366    8863
  -4  12  -7   10088    5857
  -4  12  -8    3148    2511
  -4  12  -9     120    1184
   4 -11 -13    2260    2744
   4 -11 -12     508    9534
   4 -11 -12     508    5983
   4 -11 -11   43439   15728
   4 -11 -11   10457    8698
   4 -11 -10    6145   11374
   4 -11 -10   29753   14296
   4 -11  -9     101   15397
   4 -11  -9     101    6651
   4 -11  -8    5715   10614
   4 -11  -8   30790   21743
   4 -11  -7     591    7634
   4 -11  -7    9686   10511
   4 -11  -7       5    9936
   4 -11  -6   19410   10515
   4 -11  -6   14898   12968
  -4  11   6   28067   13530
   4 -11  -5   22583    6655
  -4  11   5   58355   18508
  -4  11   4   27661   13536
  -4  11   3   11590    8925
  -4  11   2   12862    9571
  -4  11   1   14946    9051
  -4  11   0      61    4742
  -4  11  -1   10280    6671
   4 -11   2     292    3504
  -4  11  -2      63    4034
   4 -11   3   11333    7216
  -4  11  -3   32931   11726
   4 -11   4    2622    5801
  -4  11  -4    9334    7502
  -4  11  -5    7176    5590
   4 -11   5    1717    5820
  -4  11  -6    8707    7840
  -4  11  -7     487    2574
  -4  11  -8   22692    9759
  -4  11  -9    3719    3541
  -4  11 -10      85    1785
   4 -10 -13   48758   15583
   4 -10 -13     553    5244
   4 -10 -12   33906   16240
   4 -10 -12    7442   11083
   4 -10 -11     749   11144
   4 -10 -11    8176   11692
   4 -10 -10    3339    8923
   4 -10 -10   38472   17825
   4 -10  -9    9351   11140
   4 -10  -9    6655   12214
   4 -10  -8     205    6939
   4 -10  -8     153    6498
   4 -10  -8    8303   12001
   4 -10  -7    8157    7912
   4 -10  -7   12804   13333
  -4  10   6   36282   13501
   4 -10  -6   59487   17274
   4 -10  -6   26224   11711
   4 -10  -6   19867    6271
   4 -10  -5   17511   11226
   4 -10  -5   13981    7259
  -4  10   5   15640    9441
   4 -10  -4   67483   35804
  -4  10   4   59388   17974
  -4  10   3     608    4279
  -4  10   2   13790    8865
   4 -10  -1       6    4486
  -4  10   1       6    4990
  -4  10   0   10874    7946
   4 -10   0    9628   10755
   4 -10   1    7170   10675
  -4  10  -1    7777    6948
   4 -10   2   20448    8741
   4 -10   2   46673   25362
  -4  10  -2   28571   11893
   4 -10   3   43289   14244
   4 -10   3   64597   32493
   4 -10   3   89234   41380
  -4  10  -3   44736   14712
   4 -10   4    1851    5126
  -4  10  -4    5633    3907
   4 -10   5   24709   12323
  -4  10  -5   30628   12175
  -4  10  -6      18    3738
   4 -10   6    9368    9439
   4 -10   7   22222   13111
  -4  10  -7   20036    9690
  -4  10  -8    5322    5444
  -4  10  -9    7349    5720
  -4  10 -10    1848    3009
  -4  10 -11    2324    2595
   4  -9 -14     766    5230
   4  -9 -13     395   11585
   4  -9 -13    7476    3907
   4  -9 -12   10116   11795
   4  -9 -12     933   11763
   4  -9 -11    5019    7865
   4  -9 -11    6684   13438
   4  -9 -10   19290   16492
   4  -9 -10    1409   14692
   4  -9  -9   38384   18960
   4  -9  -9     587    6390
   4  -9  -8    8161    4661
   4  -9  -8   11910   15082
   4  -9  -7     238    3999
   4  -9  -7     238    8057
   4  -9  -6     117    9146
  -4   9   6     156    2519
   4  -9  -6    4600    4512
  -4   9   5    8977    7171
   4  -9  -5    4601    3932
   4  -9  -5   11288   15352
  -4   9   4    5705    5516
   4  -9  -4      51   13999
  -4   9   3   26048    9880
  -4   9   2      13    2468
   4  -9  -2    8171   11646
   4  -9  -1   13916   11762
   4  -9   0   42642   19341
  -4   9   0   39199   12478
   4  -9   1    3039   10237
  -4   9  -1      33    3231
  -4   9  -2   28979   10066
   4  -9   2   30858   18402
   4  -9   2   18142    8792
   4  -9   3    2223    4379
  -4   9  -3    8410    8734
   4  -9   3    3461    5069
   4  -9   3    2177   10116
   4  -9   4    2167    4496
   4  -9   4    1725    3215
   4  -9   4    6078    9464
   4  -9   5   13395    9705
   4  -9   5    1252    7044
   4  -9   5    1684    1660
   4  -9   6    1118    3640
   4  -9   6   11358   10458
   4  -9   7     147    2662
   4  -9   7     147    6468
   4  -9   8    4391    7366
  -4   9 -11    2686    3123
  -4   9 -12      48    1122
   4  -8 -14    2837    5472
   4  -8 -14   13279    6882
   4  -8 -13    9411    9723
   4  -8 -13    3453   11376
   4  -8 -12   14669   13019
   4  -8 -12   20031   14942
   4  -8 -11   15936   14667
   4  -8 -11    1992    6309
   4  -8 -10   87607   25805
   4  -8 -10   11403   14951
   4  -8  -9  141132   29649
   4  -8  -9   21035   19688
   4  -8  -8   19366   17576
   4  -8  -8   27048    9156
   4  -8  -7    4101    6322
   4  -8  -7    2614    7908
   4  -8  -7    1270   11160
   4  -8  -6  130080   23239
   4  -8  -6   97901   20039
  -4   8   6  132007   23770
  -4   8   5    4046    5553
   4  -8  -5    5414    4682
   4  -8  -4  129503   37516
   4  -8  -3   69978   22858
   4  -8  -2   21047   12420
   4  -8  -1  141783   31958
   4  -8   0    3883    6378
   4  -8   1  237749   43879
   4  -8   2    6491   11596
   4  -8   3   94681   34260
   4  -8   4    9450    6041
   4  -8   4    3210    8123
   4  -8   5    6434    7559
   4  -8   5     922    4497
   4  -8   5     284    1576
   4  -8   6     205    7899
   4  -8   6    1930    1620
   4  -8   6    3105    5814
   4  -8   7     312    9688
   4  -8   7     283    2598
   4  -8   8     367    7313
   4  -8   8    2012    4223
   4  -8   9    3715    4307
   4  -8  10    1359    2515
  -4   8 -13       8    1764
   4  -7 -14    7136    7142
   4  -7 -14    8843    5759
   4  -7 -13      71   11215
   4  -7 -13    6085    9265
   4  -7 -12    5874    8623
   4  -7 -12     689   14942
   4  -7 -11    7442   14333
   4  -7 -11   16061   18075
   4  -7 -10    1973    7939
   4  -7 -10   50161   20993
   4  -7  -9   46525   20166
   4  -7  -9  175520   28841
   4  -7  -8    2942   10697
   4  -7  -8     510    7351
   4  -7  -8    1220    8886
   4  -7  -7   14856    9073
   4  -7  -7   64746   17221
   4  -7  -7   35375   22613
   4  -7  -7   35140   19545
   4  -7  -6   10833   10612
   4  -7  -5  130161   36435
   4  -7  -4  146945   36504
   4  -7  -4  111594   26095
   4  -7  -3   30711   14020
   4  -7  -2  132361   28070
   4  -7  -1   15950    8998
   4  -7   0  230768   38667
   4  -7   1  199051   37213
   4  -7   2   68421   24251
   4  -7   3  237397   45186
   4  -7   4   56898   26246
   4  -7   4   47784   20897
   4  -7   5  147086   44278
   4  -7   5  165286   43581
   4  -7   6      49    5419
   4  -7   6    2789    9483
   4  -7   6    5807    8343
   4  -7   6      49    9126
   4  -7   7   43421   17149
   4  -7   7   17613   20542
   4  -7   7   44730   17040
   4  -7   7   24729   13175
   4  -7   8   27216   13510
   4  -7   8   52022   14908
   4  -7   9     112    4209
   4  -7   9     174    8176
   4  -7  11      47    2934
   4  -7  12    4059    3568
  -4   7 -14     752    1404
   4  -6 -14    1289    3685
   4  -6 -14    7257    7177
   4  -6 -13   10604   10853
   4  -6 -13     272   12198
   4  -6 -12   21988   15863
   4  -6 -12   21350   15930
   4  -6 -11    1265    7790
   4  -6 -11    6047   12480
   4  -6 -10   88987   21058
   4  -6 -10   24233   16914
   4  -6  -9    5743    7891
   4  -6  -9    2571    9615
   4  -6  -8    2939    8404
   4  -6  -8    6980   12481
   4  -6  -7   55333   15997
   4  -6  -7   75363   27628
   4  -6  -7   81241   19327
   4  -6  -7   69627   26294
   4  -6  -6   26839   14867
   4  -6  -5   50623   20282
   4  -6  -5   50932   18049
   4  -6  -4   14640   13277
   4  -6  -4   11239    9501
   4  -6  -4   15682    9996
   4  -6  -3   76066   23460
   4  -6  -3   53035   18113
   4  -6  -3   80098   20396
   4  -6  -2    7247    6136
   4  -6  -1  169420   28783
   4  -6   0  149195   28175
   4  -6   1   95317   22991
   4  -6   2  313973   44115
   4  -6   3    8768    8993
   4  -6   4  161311   39498
   4  -6   4  181527   42162
   4  -6   5   12096   13253
   4  -6   5    2228    7166
   4  -6   6   27665   16598
   4  -6   7   21146   21518
   4  -6   7   15318   11226
   4  -6   7   21317   12531
   4  -6   7   35152   14708
   4  -6   8   16116   21056
   4  -6   8   25456   13600
   4  -6   8   19618   14159
   4  -6   8   35316   15914
   4  -6   9   16293   11774
   4  -6   9   17342   13701
   4  -6   9   38899   17076
   4  -6  10       8    4572
   4  -6  11   30336   10642
   4  -6  13      26    1485
   4  -5 -15    1575    3794
   4  -5 -14   10196    7860
   4  -5 -14     462    5509
   4  -5 -13    1876    9511
   4  -5 -13   17686   12966
   4  -5 -12   16133   12448
   4  -5 -12   66467   17962
   4  -5 -11    8562   14489
   4  -5 -11    4803   11853
   4  -5 -10   16083   13568
   4  -5 -10    3985   12752
   4  -5  -9   10829   10336
   4  -5  -9    2666    7393
   4  -5  -8    7698    7923
   4  -5  -8    8389   11636
   4  -5  -7    6703    6852
   4  -5  -6     726    7149
   4  -5  -5   13049    8844
   4  -5  -5    3872    6498
   4  -5  -4     155    5659
   4  -5  -4    3404    4121
   4  -5  -4    2966    3397
   4  -5  -3   21480   13692
   4  -5  -3   25065   12702
   4  -5  -3   23854   11508
   4  -5  -2   51112   13800
   4  -5  -2   40393   13032
   4  -5  -1   71181   16258
   4  -5  -1  114324   21050
   4  -5   0   23191    8304
   4  -5   1    5998    3941
   4  -5   2   20615   10935
   4  -5   3    3483    2650
   4  -5   4   29414   14671
   4  -5   4   22955   12929
   4  -5   5    9667    9945
   4  -5   5    9380   10022
   4  -5   6   41757   22622
   4  -5   7    2953    9305
   4  -5   8   89495   18599
   4  -5   8   94178   21545
   4  -5   8  117409   24690
   4  -5   8   83304   33670
   4  -5   9     154   10941
   4  -5   9    1533    3257
   4  -5   9     154    9397
   4  -5   9    5189    8705
   4  -5  10   47172   18215
   4  -5  10   13333   14856
   4  -5  11   14978   10958
   4  -5  11    7762   10112
   4  -5  12    1864    5056
   4  -4 -15     988    3241
   4  -4 -15     204    7673
   4  -4 -14    4028    6312
   4  -4 -14     349    5929
   4  -4 -13    2106    7582
   4  -4 -13    4428    8523
   4  -4 -12       2    8374
   4  -4 -12   31454   15921
   4  -4 -11    4734   14615
   4  -4 -11   21993   14142
   4  -4 -10    1428    8679
   4  -4 -10   46626   17168
   4  -4  -9    3736   12367
   4  -4  -9     350    9288
   4  -4  -9   12672   10810
   4  -4  -8     107    7523
   4  -4  -8     893    7396
   4  -4  -7   20975   13105
   4  -4  -6    6588    8640
   4  -4  -5   15951   10624
   4  -4  -5   14766    9310
   4  -4  -4   38048   16090
   4  -4  -4   31007   15321
   4  -4  -4   37487   13155
   4  -4  -3   21533   11907
   4  -4  -3   20050   11815
   4  -4  -3   19003    9704
   4  -4  -2    1421    4487
   4  -4  -2    3189    3204
   4  -4  -2    1186    3154
   4  -4  -1    1198    2975
   4  -4  -1     428    6115
   4  -4  -1      20    3361
   4  -4   0     232    3126
   4  -4   1   33681   11136
   4  -4   2   20514    8872
   4  -4   3   23615    9884
   4  -4   3   25241   10275
   4  -4   4   10501    7211
   4  -4   4   20767    9967
   4  -4   5   60241   24265
   4  -4   5   70566   22266
   4  -4   6   47961   20955
   4  -4   6   33252   12060
   4  -4   7   39241   19408
   4  -4   8   28682   22861
   4  -4   9     472    4920
   4  -4   9     954    7351
   4  -4   9    6300   16388
   4  -4   9     376    7352
   4  -4  10    7929    7531
   4  -4  10   15323   15898
   4  -4  10    9435    9534
   4  -4  11     661    6057
   4  -4  11    1601    7890
   4  -4  12   16791    8248
   4  -4  12     183    5148
   4  -4  13     581    5523
   4  -3 -15     100    7052
   4  -3 -14    2066    4588
   4  -3 -14     335    7604
   4  -3 -13     741    4205
   4  -3 -13    5632    8068
   4  -3 -12   13491   12971
   4  -3 -11     602    8486
   4  -3 -10   23119   10809
   4  -3 -10   20634   15968
   4  -3  -9      99    4759
   4  -3  -9     127    6408
   4  -3  -8   11820   11498
   4  -3  -8   22102   16496
   4  -3  -7   19448   13295
   4  -3  -6    1343    8079
   4  -3  -5   10627    8868
   4  -3  -5   12345    7541
   4  -3  -4     793    5688
   4  -3  -4    3768    4412
   4  -3  -3  362370   42182
   4  -3  -3  278065   28806
   4  -3  -3  329191   39306
   4  -3  -2   22216   12098
   4  -3  -2   31094   13182
   4  -3  -2   19058    7476
   4  -3  -1   30542   12705
   4  -3  -1   33270    9020
   4  -3  -1   31148   11902
   4  -3   0  143226   16452
   4  -3   0  157236   26136
   4  -3   1    4655    4502
   4  -3   1    8300    9412
   4  -3   2  210152   24942
   4  -3   2  244921   33965
   4  -3   3   92030   22291
   4  -3   3  109625   26612
   4  -3   4    2281    6965
   4  -3   4    2867    6304
   4  -3   5   81025   22100
   4  -3   5   84099   20183
   4  -3   6     415    6173
   4  -3   6    4510    8622
   4  -3   7   14123   14799
   4  -3   8    9409   13396
   4  -3   9    5342    6519
   4  -3  10     103    9326
   4  -3  10     103   10810
   4  -3  10     103    5150
   4  -3  11      50    6434
   4  -3  11     851    7502
   4  -3  11    5547    5519
   4  -3  12    7108    8094
   4  -3  12    4691   11616
   4  -3  13      31    5936
   4  -3  13      31    3758
   4  -3  14    7582    7794
   4  -2 -14      44    5456
   4  -2 -14      44    4076
   4  -2 -14      44    5840
   4  -2 -13   14695    9852
   4  -2 -13    8029   11180
   4  -2 -12    3914   10545
   4  -2 -12   13707   10199
   4  -2 -11   45018   21804
   4  -2 -10   32095   19238
   4  -2  -9   18040   15855
   4  -2  -9   20458   17785
   4  -2  -8   39414   19576
   4  -2  -8   50877   20833
   4  -2  -7    8801   11299
   4  -2  -6   29012   14507
   4  -2  -5   45828   17670
   4  -2  -4    9807    7916
   4  -2  -4    7806    5920
  -4   2   4    8024    4205
   4  -2  -4   11904    6336
   4  -2  -3   69868   19694
   4  -2  -3   58705   14208
   4  -2  -3   75684   19275
   4  -2  -2    4645    4560
   4  -2  -2    2169    5984
   4  -2  -2    3890    5817
   4  -2  -2    2323    1955
   4  -2  -1   98212   16571
   4  -2  -1  100873   19848
   4  -2  -1   69357    8944
   4  -2  -1  108759   21402
   4  -2   0    2596    5277
   4  -2   0      14     985
   4  -2   1  563192   49026
   4  -2   1  466491   26598
   4  -2   2  235432   25660
   4  -2   2  281901   37148
   4  -2   3    2350    6196
   4  -2   3    4471    6524
   4  -2   4   35424   15777
   4  -2   4   42330   14786
   4  -2   5   12899    8614
   4  -2   6    9976    9212
   4  -2   6   12564    8152
   4  -2   7     226    8364
   4  -2   8   71420   24851
   4  -2   9   14143   15889
   4  -2  10   32031   12613
   4  -2  10   48664   16729
   4  -2  10   31484   20309
   4  -2  11   24398   12082
   4  -2  11   23258   11001
   4  -2  11     135   10456
   4  -2  11     135    7551
   4  -2  12     190    7485
   4  -2  12    5021    7341
   4  -2  12     190    8962
   4  -2  13     237    7629
   4  -2  13     237    4638
   4  -2  14    1237    5419
   4  -2  14     158    3721
   4  -2  15    5129    6055
   4  -1 -14     412    8906
   4  -1 -14     337    7382
   4  -1 -14      81    6624
   4  -1 -13     540    4255
   4  -1 -13   20677   14047
   4  -1 -12    2249    8523
   4  -1 -12     634    9601
   4  -1 -11   25373   19833
   4  -1 -11    5906    9330
   4  -1 -10    1406   11291
   4  -1  -9   21000   19995
   4  -1  -9   36790   19026
   4  -1  -8    4130    9001
   4  -1  -8   10640   13205
   4  -1  -7   21517   14891
   4  -1  -6   19116   11766
   4  -1  -5    3702    5643
   4  -1  -5     826    2811
   4  -1  -4   64781   18645
   4  -1  -4   88597   22550
   4  -1  -4   86431   19169
  -4   1   3     969    2539
   4  -1  -3     605    5178
   4  -1  -3     614    3337
   4  -1  -3    2211    4157
   4  -1  -2   70145   18751
   4  -1  -2   67086   16598
   4  -1  -2   60716   16500
   4  -1  -1   82411   17894
   4  -1  -1   90056   21066
   4  -1  -1   73591   18931
   4  -1   0  110481   20645
   4  -1   0  105131   22017
   4  -1   0  108276   21909
   4  -1   1  331370   35115
   4  -1   1  300009   34052
   4  -1   2   55431   16325
   4  -1   3   35013   10356
   4  -1   4   17213    5966
   4  -1   4   27935    9881
   4  -1   5   54123   17497
   4  -1   5   55076   13866
   4  -1   6   78626   14879
   4  -1   6  108456   25502
   4  -1   7    5975    5480
   4  -1   8   57713   26030
   4  -1   9     205    6297
   4  -1  10   41182   22667
   4  -1  11     494    7993
   4  -1  11     494   11343
   4  -1  11     494    9410
   4  -1  12   36429   15064
   4  -1  12   60059   18107
   4  -1  13    2123    6664
   4  -1  13   11982   10494
   4  -1  14   11672    8476
   4  -1  14    3558    8130
   4  -1  15    1230    4272
   4  -1  16    1883    4639
   4   0 -14    1602    7175
   4   0 -13     896   10294
   4   0 -13     896    8697
   4   0 -13      22    6683
   4   0 -12      98   10320
   4   0 -12    7593   11559
   4   0 -11    3168   10324
   4   0 -11    3238   14766
   4   0 -10    2480    9103
   4   0 -10    1378   12733
   4   0  -9    1755    4276
   4   0  -9    4838   11363
   4   0  -8     142    8225
   4   0  -8    2426    9422
   4   0  -7   10513    8532
   4   0  -6    3088    3158
   4   0  -6    1532    4145
   4   0  -5   50058   20277
   4   0  -5   77172   23282
   4   0  -4   12466   11070
   4   0  -4    9170    9737
   4   0  -4    9162    7125
   4   0  -3   46922   17312
   4   0  -3   41041   15158
   4   0  -3   41298   14388
   4   0  -2  124128   26755
   4   0  -2  106804   21199
   4   0  -2  122324   25241
   4   0  -1   37174   14191
   4   0  -1   32469   10379
   4   0  -1   29201   10831
   4   0   0  226931   28597
   4   0   0  225796   29037
   4   0   1     524    1044
   4   0   1    6103    7043
   4   0   1    1800    4642
   4   0   2  796987   55571
   4   0   2  699725   36112
   4   0   2  785500   51294
   4   0   3   12499    6705
   4   0   3    7713    5494
   4   0   4  444062   36793
   4   0   4  495668   42925
   4   0   5  148434   26591
   4   0   5  110218   17920
   4   0   6   76383   21263
   4   0   6   67358   13657
   4   0   7  181839   36750
   4   0   8   21994   16664
   4   0   9   97006   29532
   4   0  10    5550   11462
   4   0  11   51581   17849
   4   0  11   49730   15871
  -4   0 -11   44634   16845
   4   0  11   38087   13485
   4   0  11   35814   25904
   4   0  12   15001   19427
   4   0  12   28713   13606
   4   0  12   12499    9902
  -4   0 -12   14927   13315
   4   0  13   12499   10387
   4   0  13   25754   13332
   4   0  14    3252    7931
   4   0  14    9727    7243
   4   0  15     327    6940
   4   0  16    3650    4683
   4   1 -13     174    5666
   4   1 -13     174    6871
   4   1 -12    2199   13092
   4   1 -12     217    8988
   4   1 -12     781   13016
   4   1 -11    2822    9441
   4   1 -11      23   10760
   4   1 -10    1490    7325
   4   1 -10    1490   14117
   4   1  -9   11447   11660
   4   1  -9    2467    9714
   4   1  -9      49    8024
   4   1  -8    5428    6603
   4   1  -8    5572   12371
   4   1  -8    7762    6074
   4   1  -7     102    6783
   4   1  -6   14144   11134
   4   1  -6   10147   10625
   4   1  -5   13111   10823
   4   1  -5   19268   12390
   4   1  -4    2981    3052
   4   1  -4     102    4094
   4   1  -4    5334    5852
   4   1  -3     378    4040
   4   1  -3    2314    6880
   4   1  -3     921    3150
   4   1  -2   41617   15755
   4   1  -2   40150   15205
  -4  -1   2   12132    3719
   4   1  -2   28232   11508
   4   1  -1    3387    6009
   4   1  -1    5025    6507
   4   1  -1    1479    3648
   4   1   0     211    4790
  -4  -1   0     372     876
   4   1   1  751523   55113
   4   1   1  701297   48830
   4   1   2  234343   20286
   4   1   2  296999   29811
   4   1   2  295864   33981
   4   1   3   59935   13490
   4   1   3   63550   17629
   4   1   3   57182   13770
   4   1   4  111908   19126
   4   1   4  126630   21461
   4   1   5     317    3013
   4   1   5    4347    4849
   4   1   6  115639   25379
   4   1   6   99461   17785
   4   1   7     943    3437
   4   1   7    2679    2768
   4   1   8  218847   40668
   4   1   9   33949   20082
   4   1  10   37210   23296
   4   1  11   94802   21207
   4   1  11   66887   32329
   4   1  11   69884   20914
   4   1  12    4217    9789
   4   1  12    1420    7393
   4   1  12    2246   12970
   4   1  12   14785   12002
   4   1  13   36165   12125
  -4  -1 -13   31519   12994
   4   1  14    2355   10071
   4   1  15   25173   12287
   4   1  15    2448    8184
   4   1  16       1    2756
   4   1  17    3108    3363
   4   2 -13     114    3806
   4   2 -12     175    9193
   4   2 -12    1668   12637
   4   2 -11    1224   12527
   4   2 -11    4969   17249
   4   2 -11     669   11044
   4   2 -10    9037   12247
   4   2 -10    1005   10339
   4   2  -9    1825    5118
   4   2  -9   30682   14517
   4   2  -8   24659   13156
   4   2  -8    3998   12461
   4   2  -8   12321   15570
   4   2  -7     250    5180
   4   2  -7     250    9524
   4   2  -7     250    7343
   4   2  -6   17857   15976
   4   2  -6   27117   19582
   4   2  -5   12126   11486
   4   2  -5    6524   10528
   4   2  -4   38491   18230
   4   2  -4   11106    9829
   4   2  -3       8    4517
   4   2  -3    5389    6297
   4   2  -3    1019    3960
  -4  -2   2   39509    8301
   4   2  -2   37840   15350
   4   2  -2   58302   19998
   4   2  -2   37607   13703
  -4  -2   2   39653   11897
   4   2  -1   37315   13348
  -4  -2   1   27417    5311
  -4  -2   1   41106    9428
   4   2  -1   53318   16557
   4   2  -1   32165   11841
   4   2   0   16554   11920
  -4  -2   0   20600    7239
   4   2   0   22839   11068
   4   2   1  231507   33081
  -4  -2  -1  230858   21131
   4   2   1  210563   28526
   4   2   2    5843    4752
  -4  -2  -2    4245    1942
   4   2   2   15062    8780
   4   2   2    5030    3882
   4   2   3    1784    3826
   4   2   3    1564    3983
   4   2   3     571    3810
   4   2   4   52220   17304
   4   2   4   60220   16661
   4   2   4   52622   14621
   4   2   5  553474   49385
   4   2   5  492707   40643
   4   2   6   62645   18212
   4   2   6   62532   14551
   4   2   7   69551   21495
   4   2   8   96562   28219
   4   2   9   24752   16401
   4   2  10   24540   17890
   4   2  11    1293    6818
   4   2  11    8955    9927
   4   2  12   16009   11064
   4   2  12   13596   18276
   4   2  13    5299    9550
   4   2  13    2886    4631
   4   2  13     688    6825
   4   2  14   45785   18776
   4   2  15    2188    7336
   4   2  16    4897    4831
   4   2  16    1234    7499
   4   2  17     150    1863
   4   3 -13       9    6681
   4   3 -12     406   10256
   4   3 -11     555    9523
   4   3 -11     555    9401
   4   3 -10    1156    7646
   4   3 -10    1156   13135
   4   3 -10    1087   12637
   4   3  -9    1174    6006
   4   3  -9    1206   10704
   4   3  -8     934    6330
   4   3  -8     715    7585
   4   3  -8   15058   15992
   4   3  -7    8583   12382
   4   3  -7     336    5477
   4   3  -7   15758   11849
   4   3  -7    6990    8995
   4   3  -6     420    7666
   4   3  -6    4054    8977
   4   3  -5   34524   19769
   4   3  -5   22523   15179
   4   3  -4   28959   17916
   4   3  -4   12203   10540
  -4  -3   3   17589   11165
   4   3  -3   15484    9466
   4   3  -3   22277   14503
   4   3  -2   91755   25264
  -4  -3   2   90157   21630
   4   3  -2   52759   18165
   4   3  -1   29717   13024
  -4  -3   1   43635   13014
   4   3  -1   31437   12277
   4   3   0  271382   41268
  -4  -3   0  321643   33488
   4   3   0  264052   36097
   4   3   1     215    7834
   4   3   1     215    3526
  -4  -3  -1     864    3923
   4   3   2  450790   45921
  -4  -3  -2  407118   33493
   4   3   2  344642   30669
   4   3   2  428182   40596
   4   3   3  198874   24639
   4   3   3  202042   27578
   4   3   3  212702   27324
   4   3   4    9803    6297
   4   3   4    5653    3016
   4   3   4    7990    3440
   4   3   5  470293   49351
   4   3   5  391489   43958
   4   3   5  432937   42749
   4   3   6   12354   10083
   4   3   7   52640   18123
   4   3   8    6856    7225
   4   3   9   26515   17055
   4   3  10    6420   10567
   4   3  11     331    7284
   4   3  11     331   10810
   4   3  11     331    7747
   4   3  12   12135   16091
   4   3  12    8334    9561
   4   3  13    2372    7480
   4   3  14   23866   12451
   4   3  15     657    7305
   4   3  16    2097    5772
   4   3  17     655    2496
   4   4 -12    1455    5144
   4   4 -11     123    8023
   4   4 -10    6586   14596
   4   4  -9     486   10009
   4   4  -9   16654   19403
   4   4  -8     966   15566
   4   4  -8   16948   22364
   4   4  -8    6131   14707
   4   4  -7   13136    9730
   4   4  -7   18100   14555
   4   4  -7    1455    6417
   4   4  -6   49845   16335
   4   4  -6    9691    4911
   4   4  -5   61698   27778
   4   4  -5   28789   20636
  -4  -4   4      67    4854
  -4  -4   3   30655   15699
  -4  -4   2   13431   11093
   4   4  -1    4416    7035
  -4  -4   1   25129   11771
   4   4   0    5427    9678
  -4  -4   0    1307    4721
   4   4   1  120957   27835
   4   4   1  117037   23398
  -4  -4  -1  154528   24949
   4   4   2  234647   34460
  -4  -4  -2  227020   28527
   4   4   2  202110   29573
  -4  -4  -3    1771    3246
   4   4   3    8980    6531
   4   4   3     718    3838
   4   4   3     718    2854
   4   4   4   23440   11925
   4   4   4   13518    9687
   4   4   5    1076    6102
   4   4   5    5305    6769
   4   4   6   65909   19268
   4   4   7    9337   10334
   4   4   8  159753   39766
   4   4   9   20685   13312
   4   4  10   69759   26477
   4   4  11   48060   28444
   4   4  11   34346   14958
   4   4  11   87020   22134
   4   4  12     113    6288
   4   4  12     113   12392
   4   4  12    2607    6465
   4   4  13   25707   13396
   4   4  14    9682   11483
   4   4  15   12279   11523
   4   4  16    1162    4313
   4   4  17     529    2582
   4   4  17     529    4329
   4   5 -12     724    3639
   4   5 -11     132    7311
   4   5 -10    3596    9862
   4   5  -9     503   10197
   4   5  -8     910   23161
   4   5  -7     746   14171
   4   5  -7    6465    7303
   4   5  -7    3048   10270
   4   5  -7     746   15694
   4   5  -6     736   13920
   4   5  -6    6287   12566
   4   5  -6     736    5866
   4   5  -6   11759   12715
   4   5  -6    3673   11285
   4   5  -5     417    9279
  -4  -5   4    9996    7737
  -4  -5   3   12267   11667
  -4  -5   2   16106   13647
  -4  -5   1  226853   38117
   4   5  -1  108432   28166
   4   5   0    7728    9978
  -4  -5   0    2461    3951
  -4  -5  -1  195217   31427
   4   5   1  167983   33312
   4   5   2   43121   17884
  -4  -5  -2   54928   17858
   4   5   3   23122   12546
  -4  -5  -3   29198   14564
   4   5   4     896    3085
  -4  -5  -4     949    5414
   4   5   4     610    5787
   4   5   5  120500   24817
   4   5   5   98600   18117
   4   5   6  160072   34999
   4   5   7   52944   22551
   4   5   8  128261   32711
   4   5   9    6821    6400
   4   5  10   76659   32994
   4   5  11   10512    6625
   4   5  11     508    5223
   4   5  12    9633    9538
   4   5  12    1044    5178
  -4  -5 -12    1436    4795
   4   5  12    6792    7249
   4   5  13     177    9843
   4   5  14   42853   18507
   4   5  15   10642    9712
   4   5  16    1640    6193
   4   5  17    5066    4697
   4   5  18    1700    2169
   4   6 -11      20    5167
   4   6 -10      46    5901
   4   6  -9    1452   15958
   4   6  -8     214   12495
   4   6  -7    6573    6530
   4   6  -7   11180   17536
   4   6  -6     436    5284
   4   6  -6     436    6588
   4   6  -6     144    2854
   4   6  -5   12248   12062
   4   6  -5   10382    4904
   4   6  -5    6904   23704
   4   6  -4    9931    9710
  -4  -6   4   23316   19398
  -4  -6   3    5536    4922
  -4  -6   2   32507   19557
   4   6  -1     145    6144
  -4  -6   1    4337    6401
  -4  -6   0  136236   31738
   4   6   0   80892   25036
   4   6   1     426    3694
  -4  -6  -1    1518    4368
  -4  -6  -2  142108   30615
   4   6   2  116115   30227
  -4  -6  -3   18400    9789
   4   6   3   14698    7680
   4   6   4   27068    9020
  -4  -6  -4   34534   13048
  -4  -6  -5    5697    8498
   4   6   5    5059    6537
   4   6   5    4860    6960
   4   6   6   39229   11800
   4   6   6   58117   19782
   4   6   7   64163   22358
   4   6   8   15604   16943
   4   6   9   30808   20929
   4   6  10   34834   23139
   4   6  11    1599    8155
  -4  -6 -11      93    8477
   4   6  11      93    7698
   4   6  12   29149   12690
  -4  -6 -12    1295    6565
   4   6  12   21402   21130
   4   6  12   42883   17306
   4   6  13    4703    6690
   4   6  13    3734    7998
   4   6  14   28400   13186
   4   6  16   20398    9930
   4   6  17     851    5968
   4   6  18     136    3288
   4   7 -10      24    6969
   4   7  -9     413   11312
   4   7  -8     548    9283
   4   7  -7    1572    2619
   4   7  -7    1290   10542
   4   7  -6   16422    9492
   4   7  -6    2717   15321
   4   7  -5    5617    7554
   4   7  -5   11059   13822
   4   7  -5    3716   18765
   4   7  -4     500    3399
  -4  -7   4      35   10787
   4   7  -4      35   10635
   4   7  -4      35    7036
   4   7  -3    4531    3920
  -4  -7   3    3928    7380
   4   7  -2      54   12701
  -4  -7   2    3378    7570
   4   7  -1   15585    9968
  -4  -7   1   53640   22762
  -4  -7   0  123930   32931
   4   7   0   60068   22545
   4   7   1   69355   24567
  -4  -7  -1   98525   28004
  -4  -7  -2  263382   45561
   4   7   2  220975   42659
   4   7   3      40    6901
  -4  -7  -3     821    3148
   4   7   4   48481   17174
  -4  -7  -4   76921   24480
   4   7   5   16853    8031
  -4  -7  -5   22512   13501
   4   7   6  119013   31266
  -4  -7  -6  105979   29333
   4   7   7   75331   28201
   4   7   8   21108   17173
   4   7   9   67737   28116
   4   7  10      19    4967
   4   7  10   13500   13664
  -4  -7 -11   12475   10197
   4   7  11   52414   17379
   4   7  11   33704   25561
   4   7  12    5336    6675
  -4  -7 -12    1543    7259
  -4  -7 -12    6169    7641
   4   7  12      71   17236
  -4  -7 -13   13347    5965
   4   7  13   61221   19799
   4   7  13   73888   20804
   4   7  14     179    6360
   4   7  14   12080   10528
   4   7  15   11345    9483
   4   7  16   17927    8593
   4   7  17    3656    3972
   4   7  18     189    3175
   4   8  -9     904    5031
  -4  -8   8   18855    7711
   4   8  -8      81   36771
  -4  -8   7    7945    7197
   4   8  -7     228    3719
   4   8  -7       4   11270
   4   8  -6    4091    4438
   4   8  -6    3623   21884
   4   8  -5    6000    5510
   4   8  -5      98   10149
   4   8  -4   12705    9017
  -4  -8   4   21922   19728
   4   8  -4    3631   17815
   4   8  -4    5304    7304
   4   8  -3    9871   15336
   4   8  -3      27    6136
   4   8  -3    2756    9757
  -4  -8   3   12164   17299
   4   8  -2   16278   10788
   4   8  -2      56   11470
   4   8  -2    7917    5379
  -4  -8   2    2544   13358
   4   8  -1   10305    8973
  -4  -8   1   17094   14880
   4   8   0   13800   11117
  -4  -8   0    7744    3358
   4   8   1   44535   20838
  -4  -8  -1   55851   22546
  -4  -8  -2   57536   23877
   4   8   2   35364   18210
  -4  -8  -3   53935   22002
   4   8   3   38437   17515
   4   8   4    4981    8309
  -4  -8  -4   12432   12904
  -4  -8  -5   68163   24589
  -4  -8  -6   79556   28632
  -4  -8  -7   78441   30607
  -4  -8  -8   97854   32300
   4   8   8  123325   38176
  -4  -8  -9   14972   11157
   4   8   9   21094   16400
   4   8  10   84948   17979
   4   8  10  133096   43734
   4   8  11   51361   16736
  -4  -8 -11   33851   15275
   4   8  11   43322   26346
   4   8  12   22883   13823
  -4  -8 -12    3211    8373
  -4  -8 -12   15618    8952
  -4  -8 -13   11705   10724
   4   8  13   52262   18751
   4   8  13   59048   18871
  -4  -8 -13    7051   10494
  -4  -8 -14    1594    4220
   4   8  14     885    7496
   4   8  15      81    7186
   4   8  17   14987    6164
  -4  -9   8     856    2999
   4   9  -7     124   11069
  -4  -9   7    7075    6535
   4   9  -7     124   11718
   4   9  -6     168    5434
   4   9  -6     168    9578
   4   9  -5   12079    7109
   4   9  -5    7705   19605
   4   9  -4   21382   10440
   4   9  -4   36996   21971
   4   9  -3      99    9147
   4   9  -3    9389    9237
   4   9  -3    4497   14490
  -4  -9   3    3965   16458
   4   9  -2   22869   18193
   4   9  -2   28301   12556
  -4  -9   2   41369   25087
   4   9  -2   33792   22675
   4   9  -1      48    4400
  -4  -9   1      30    4374
   4   9  -1     998    5410
   4   9  -1    1795    7294
   4   9   0   54043   25714
  -4  -9   0   91849   32824
  -4  -9  -1   44063   23489
   4   9   1   39026   23942
   4   9   2   68098   28047
  -4  -9  -2   90113   31540
   4   9   3   41377   20376
  -4  -9  -3   93225   31670
  -4  -9  -4   10047   12836
  -4  -9  -5  362239   64360
  -4  -9  -6   18487   14866
  -4  -9  -7  186526   47424
  -4  -9  -8   27051   21453
   4   9   9   16101   10538
   4   9   9   12193    6167
  -4  -9  -9   17929   20052
   4   9  10   33753   22275
   4   9  10   24799    9679
  -4  -9 -10   26098   22280
   4   9  11    6924    7148
  -4  -9 -11    2247    4987
   4   9  11    5862    8051
  -4  -9 -11      25    8581
   4   9  12   23551   12004
  -4  -9 -12   12133   10594
  -4  -9 -12   10113   11807
   4   9  13     310    5062
  -4  -9 -13    2010    5596
  -4  -9 -13    9304    9953
   4   9  13     858    4480
  -4  -9 -14   11070    8416
  -4  -9 -14    8989    7954
   4   9  14   42113   14370
   4   9  14   33150   14360
   4   9  17    7769    4225
  -4 -10   8    1796    2239
  -4 -10   7    2368    4043
   4  10  -6      24    7271
  -4 -10   6   13081    8273
   4  10  -5   13459    7312
   4  10  -5    1172   14733
   4  10  -4     757    7079
   4  10  -4    1897    4450
   4  10  -3    5800    4702
   4  10  -3      86    7272
   4  10  -2   14499    9919
   4  10  -2    3099   11538
   4  10  -1   19131   12046
   4  10  -1    2525   15721
  -4 -10   1   33865   24746
   4  10  -1   11149    9471
   4  10   0   34034   23753
   4  10   0   34963   12929
  -4 -10   0   58000   27905
   4  10   1    8533    6153
   4  10   1    6157   13206
  -4 -10  -1    9942   14577
   4  10   2   83354   15420
   4  10   2   67908   29387
  -4 -10  -3      11    5879
  -4 -10  -4  125048   40163
  -4 -10  -5   51063   25932
  -4 -10  -6   83468   32556
   4  10   7   79985   18416
  -4 -10  -7   94234   37519
  -4 -10  -8   14199   17615
   4  10   8    3288    4618
   4  10   9   26777   10601
   4  10   9   15990    6163
  -4 -10  -9   13997   13601
  -4 -10 -10   13924   18516
   4  10  10      57    3216
   4  10  11   23189   15290
  -4 -10 -11    6766   12627
   4  10  12     795    6153
  -4 -10 -12       2    6231
  -4 -10 -12       2   12002
   4  10  13   29180   13074
  -4 -10 -13    4568    4231
  -4 -10 -13   11427   10531
  -4 -10 -14       1    4555
   4  10  14    6864    8769
  -4 -10 -14    2903    6766
   4  10  17       5    1879
   4  11  -8    1067    3853
  -4 -11   7      30    4028
  -4 -11   6      44    3739
   4  11  -4     556    5076
   4  11  -3    8658    7865
   4  11  -2      14    4405
   4  11  -1   10225    6181
   4  11   0   11971   18721
   4  11   0    7655    8236
  -4 -11   0    3918   10514
   4  11   1   19902    9927
  -4 -11  -1   31736   23090
   4  11   1   30916   22488
   4  11   2   17925   11276
  -4 -11  -2    4598    9721
   4  11   2   12695    4867
   4  11   3    1064    5646
   4  11   3      49    5322
  -4 -11  -3      49   11054
  -4 -11  -4   44487   25291
  -4 -11  -5    9062    8445
  -4 -11  -6   61403   29559
   4  11   7    6999    7091
  -4 -11  -7    7300   15663
  -4 -11  -8   58475   31022
   4  11   8   71920   17158
   4  11   9     206    3733
   4  11   9     206    3824
   4  11  10   68937   17385
   4  11  10   32418    9719
   4  11  11   40809   18325
  -4 -11 -11   46753   18967
   4  11  12   13955    9104
  -4 -11 -12   13075   12288
  -4 -11 -12   15590   14297
  -4 -11 -13   17859   11429
  -4 -11 -13   22815   14552
   4  11  13   33121   14907
  -4 -11 -14      19    5161
  -4 -11 -14     488    5039
   4  11  14   10129    5333
   4  12  -7    3286    2884
  -4 -12   6     992    3426
  -4 -12   5     133    3917
   4  12  -3    3175    6402
   4  12  -2    7542    8995
   4  12  -1      31    5100
   4  12   0   28472   12084
   4  12   1   15954    9881
   4  12   1     250    6299
   4  12   2     151    4829
   4  12   2    2608    4180
   4  12   3   14325    9987
   4  12   3    5167    4816
   4  12   4    1349    5400
   4  12   6      85    5469
   4  12   7   56802   16995
   4  12   8    4551    6096
   4  12   9   35649   11217
   4  12   9   57675   16663
   4  12  10   54364   14740
   4  12  10   35887   10709
   4  12  11      40    5392
  -4 -12 -11    5184   12758
   4  12  12   46404   16609
  -4 -12 -12   37441   14836
  -4 -12 -12   45786   21241
   4  12  13      55    5195
  -4 -12 -13    8522    7019
  -4 -12 -13     102    4855
  -4 -12 -14    4734    7227
   4  12  14   21721    9539
  -4 -12 -14    7901    8167
  -4 -13   5    9405    5466
   4  13  -5    2148    3069
  -4 -13   4     170    4209
   4  13  -4    5186    6807
   4  13  -3    5318    8009
   4  13  -2    5018    8509
   4  13  -1   10426    8739
   4  13   0   23341   12053
   4  13   1   14363    6411
   4  13   1    6325    4720
   4  13   2   12243    8597
   4  13   6    6620    8025
   4  13   7  104304   22743
   4  13   8    9380    7508
   4  13   9   26059    8767
   4  13   9   37973   12622
   4  13  10    4765    5822
   4  13  10    6419    5023
  -4 -13 -11    7842   10537
   4  13  11   18658   12427
   4  13  12    1227    5616
  -4 -13 -12      52    7738
  -4 -13 -12    3463   13664
   4  13  13   19091    9638
  -4 -13 -13    5002    6190
  -4 -13 -13    6123    3917
  -4 -13 -14     242    3719
  -4 -13 -14    4134    4878
   4  13  14   10521    5523
  -4 -14   4      95    4058
   4  14  -4    2125    2840
  -4 -14   3   12726    7131
   4  14  -3    6630    4459
  -4 -14   2    9685    7289
   4  14  -2    1169    5267
   4  14  -1   23225    9205
   4  14   0    4564    7533
   4  14   1   21864   10146
   4  14   5   14031   11143
   4  14   6   24880   12125
   4  14   7      45    3684
   4  14   8    8416    5899
   4  14   8   17933    9792
   4  14   9    8591    5287
   4  14   9    8158    5950
   4  14  10    2109    4692
   4  14  10      59    5079
   4  14  11   23751   11288
  -4 -14 -11    4810    8375
  -4 -14 -11   20595   13741
  -4 -14 -12    1817    6260
  -4 -14 -12       9    5923
   4  14  12       9    4821
  -4 -14 -13    2584    3818
  -4 -14 -13    3726    5556
   4  14  13   13467    6435
   4  14  14       8    1931
  -4 -15   3     993    2126
   4  15  -2    2062    2213
  -4 -15   2   11796    4866
   4  15  -1      46    1895
  -4 -15   1    5330    4991
  -4 -15   0   14758    7110
   4  15   3   17145   10604
   4  15   4    7217    6172
   4  15   5    8975    8374
   4  15   6     217    3801
   4  15   7   36636   10459
   4  15   7   34520   12049
   4  15   8    9345    4998
   4  15   8   10145    5642
   4  15   9    8809    5098
   4  15   9   15321    6708
   4  15  10   18041    5552
   4  15  10   41265   14415
  -4 -15 -10   19863   14015
  -4 -15 -10   53003   16980
   4  15  11    2410    4073
  -4 -15 -11    3309    6985
  -4 -15 -11     692    3996
   4  15  12   10085    7232
  -4 -15 -12    3611    6652
  -4 -15 -12    4334    5457
  -4 -15 -13    2286    2537
   4  15  13    7197    4374
  -4 -15 -13    9976    5622
  -4 -16   0    8307    3426
   4  16   0    6113    4724
   4  16   1       2    2667
  -4 -16  -1     199    1732
   4  16   1      43    2261
  -4 -16  -2    8002    3432
   4  16   2    7772    6292
   4  16   3    5184    5760
   4  16   4   20934    8613
   4  16   5   16757    7366
   4  16   5   23174    8550
   4  16   6    3241    3471
   4  16   6    4357    4302
   4  16   7   42307    9822
   4  16   7   45640   10403
   4  16   8     281    2454
   4  16   8      23    2415
   4  16   9    9758    4212
  -4 -16  -9   20060    8851
  -4 -16 -10    3601    5305
  -4 -16 -10    7720    6614
   4  16  10    2907    3883
   4  16  11    7653    5167
  -4 -16 -11    2672    3268
  -4 -16 -11     652    3559
   4  16  12     117    1626
  -4 -16 -12    2293    2412
  -4 -16 -12    1618    2079
   4  17   3    3096    3032
   4  17   3    3347    3048
   4  17   4    5377    3286
   4  17   4    9895    4427
   4  17   5    2798    2734
   4  17   5       7    2201
   4  17   6    9977    4703
   4  17   6   13133    4406
   4  17   7    3140    2664
   4  17   8    5157    1831
   4  17   8   10938    4952
  -4 -17  -8    7591    3881
  -4 -17  -8   10870    6321
   4  17   9    6828    4733
  -4 -17  -9    1116    3651
   5 -16  -3    2793    4169
  -5  16   1    8502    3324
  -5  16   0    3275    1904
   5 -15  -7    2410    3505
   5 -15  -6      44    4725
   5 -15  -5     663    3719
  -5  15   3    6723    4214
  -5  15   2   29159    8605
   5 -15  -2   10091    4692
  -5  15   1    6061    4615
  -5  15   0    3243    3486
  -5  15  -1   20457    7239
  -5  15  -2      37    1455
  -5  15  -3    9845    3686
   5 -14  -9    6803    5455
   5 -14  -8     118    3007
   5 -14  -7   12493   10876
   5 -14  -6    1781    7319
  -5  14   4   40395   11637
  -5  14   3     650    3470
  -5  14   2   18630    9090
  -5  14   1      48    2496
  -5  14   0    6485    5250
  -5  14  -1     848    3083
  -5  14  -2   18304    7585
  -5  14  -3    5083    4355
  -5  14  -4    9204    4979
  -5  14  -5    2869    2742
  -5  14  -6     249     874
   5 -13 -10    2872    5897
   5 -13  -9    5323    4896
   5 -13  -9    1644    1652
   5 -13  -8    2846    4945
   5 -13  -7   17112   14214
   5 -13  -6      84    6116
  -5  13   5   26546   10196
  -5  13   4     232    4855
  -5  13   3   92346   23098
  -5  13   2      92    3721
  -5  13   1   44171   14945
  -5  13   0   16643    9190
  -5  13  -1   15350    8818
  -5  13  -2   51649   13536
  -5  13  -3     693    3184
  -5  13  -4   16925    7981
  -5  13  -5     569    1877
  -5  13  -6    2823    2964
  -5  13  -7     313    1739
   5 -12 -11      47    3357
   5 -12 -11    1585    2437
   5 -12 -10    4245    9131
   5 -12  -9   15091   10208
   5 -12  -9     112    7224
   5 -12  -8   26623   11387
   5 -12  -8   13513   17112
   5 -12  -7    6193    8559
   5 -12  -7    3268    8979
  -5  12   5   11151    8913
  -5  12   4   55543   17950
  -5  12   3   22789   10023
  -5  12   2   19743   10768
  -5  12   1   19100    9894
  -5  12   0    9264    6647
  -5  12  -1   67239   17774
  -5  12  -2    2476    4001
  -5  12  -3   39003   12999
  -5  12  -4    3431    4167
  -5  12  -5   17635    8196
  -5  12  -6    8932    6007
  -5  12  -7      57    2868
  -5  12  -8    2376    2580
  -5  12  -9       4    1116
   5 -11 -12    6895    6916
   5 -11 -12    1825    2348
   5 -11 -11      41    7337
   5 -11 -11   10635    9485
   5 -11 -10      47    7375
   5 -11 -10      47   12115
   5 -11  -9      11   11301
   5 -11  -9    3622    8743
   5 -11  -8   10164   12679
   5 -11  -8      68   14587
   5 -11  -7    3979   14790
   5 -11  -7   27583   14252
   5 -11  -6   17260   10521
  -5  11   5      11    5326
  -5  11   4   53103   18934
  -5  11   3    2554    6873
  -5  11   2   44309   16054
  -5  11   1     195    4503
  -5  11   0    3665    5007
  -5  11  -1   11976    8484
  -5  11  -2   10696    7884
  -5  11  -3   22479   10685
  -5  11  -4     714    2371
  -5  11  -5   28296   11236
  -5  11  -6      63    3853
  -5  11  -7   14087    7387
  -5  11  -8    3502    3049
  -5  11  -9    3399    3105
  -5  11 -10    2334    2411
   5 -10 -13     120    1751
   5 -10 -12   19808   11036
   5 -10 -12    8558    8856
   5 -10 -11     178    4853
   5 -10 -11      93    9518
   5 -10 -10   71905   19957
   5 -10 -10   12196   11891
   5 -10  -9      40   12307
   5 -10  -9      40    7355
   5 -10  -8   21621   24557
   5 -10  -8  128019   25586
   5 -10  -7   33260   25677
   5 -10  -7   39378   15577
   5 -10  -6     252    9284
  -5  10   5  132377   28853
   5 -10  -5  233056   32332
  -5  10   4   24228   12645
   5 -10  -4   26006   18873
   5 -10  -3   66522   30242
  -5  10   3  104076   24379
   5 -10  -2   69990   32326
  -5  10   2   77255   20800
   5 -10  -1   36218   23475
  -5  10   1   23880   11695
   5 -10   0   16221   14883
  -5  10   0    2844    3910
   5 -10   1   20509   18284
  -5  10  -1   20265   10686
   5 -10   2   27149   10920
  -5  10  -2   57845   16651
   5 -10   3      41    7409
  -5  10  -3     791    5023
   5 -10   4      46    5453
  -5  10  -4    5764    5504
   5 -10   4     301    3415
  -5  10  -5    1641    3540
   5 -10   5    1625    4884
   5 -10   6    5519    5708
  -5  10  -6    7349    7145
  -5  10  -7    5169    6052
   5 -10   7    2970    4046
  -5  10  -8     970    3395
  -5  10  -9    5866    5299
  -5  10 -10      27    1726
  -5  10 -11    1752    2182
   5  -9 -13    4164    3857
   5  -9 -13    2915    2980
   5  -9 -12   42805   16175
   5  -9 -12    3517    7151
   5  -9 -11   11961   13061
   5  -9 -11   11440   11044
   5  -9 -10   10060   15915
   5  -9 -10  101864   23695
   5  -9  -9    3520   11813
   5  -9  -9   22543   14950
   5  -9  -8  123816   25997
   5  -9  -8   27166   23251
   5  -9  -7   56383   18867
   5  -9  -7    3586    6916
   5  -9  -7   26789   24367
   5  -9  -6  184583   29023
   5  -9  -5   11480   10387
  -5   9   5    6026    8725
   5  -9  -5    2643    3286
   5  -9  -4  131726   23390
   5  -9  -4  111311   37098
  -5   9   4  137324   26956
  -5   9   3   79252   20598
   5  -9  -3   64446   28457
  -5   9   2   28298   13081
   5  -9  -2   27763   19150
   5  -9  -1  183440   47813
  -5   9   1  209139   33440
   5  -9   0    8826   10744
  -5   9   0    1423    2646
  -5   9  -1  123767   23745
   5  -9   1  125161   39455
   5  -9   2   51992   27420
  -5   9  -2   51210   15441
   5  -9   2   49520   14442
   5  -9   2   42787   21818
   5  -9   3   36194   11539
   5  -9   3   42435   23755
  -5   9  -3   39815   13317
   5  -9   3   37565   12139
   5  -9   3   40154   27140
   5  -9   4   12720    8194
   5  -9   4   58201   30984
  -5   9  -4   30469   12232
   5  -9   4   36155   22987
   5  -9   4   22573    9365
   5  -9   5       3    6708
  -5   9  -5    2694    4522
   5  -9   5     866    3138
   5  -9   6    2569    5898
   5  -9   6   12518    7865
   5  -9   7    5062    4475
   5  -9   8     152    3562
   5  -9   9    3011    2582
  -5   9 -11    1755    3442
  -5   9 -12      70    1186
   5  -8 -13      10    6189
   5  -8 -13   15991    6640
   5  -8 -12     311   12207
   5  -8 -12     313    5437
   5  -8 -11  104248   24483
   5  -8 -11   10081   14470
   5  -8 -10     899    6929
   5  -8 -10   20355   15332
   5  -8  -9   25769   24303
   5  -8  -9  174610   30275
   5  -8  -8    6358   16982
   5  -8  -8   24233   14528
   5  -8  -7    5476    5966
   5  -8  -7   22086   17420
   5  -8  -6  202224   31473
   5  -8  -5    8962    6726
  -5   8   5    8490    8677
   5  -8  -5   16179   17480
   5  -8  -5   23001   13368
   5  -8  -4   84242   31598
  -5   8   4   83837   19606
   5  -8  -4  120492   21956
   5  -8  -3   14672   12320
   5  -8  -2  184864   43882
   5  -8  -1   14260   13862
   5  -8   0  169409   42940
   5  -8   1   84827   30664
   5  -8   1   80983   25132
   5  -8   2  143881   42012
   5  -8   2  111447   31139
   5  -8   3  166293   46226
   5  -8   3  135422   36188
  -5   8  -3  124960   22154
   5  -8   3   76258   19064
   5  -8   4   10715    6416
   5  -8   4   28543   14583
   5  -8   4   37937   20662
   5  -8   4   17385    7355
   5  -8   5   27406   23180
   5  -8   5   26043   11783
   5  -8   5    9403    7541
   5  -8   5   33874   21174
   5  -8   6    2122    3869
   5  -8   6    7374    7617
   5  -8   6   20552   17695
   5  -8   7   38492   16613
   5  -8   7   18707   11465
   5  -8   8    9732    7431
   5  -8   9    3320    4497
   5  -8  10   10517    6319
   5  -8  11     110    3139
  -5   8 -13    2426    2275
   5  -7 -14    2652    4893
   5  -7 -13   10289    6770
   5  -7 -13     112    4711
   5  -7 -12   12522   15223
   5  -7 -12    3309   11337
   5  -7 -11   20427   14946
   5  -7 -11   13410   12484
   5  -7 -10   15461   11986
   5  -7 -10   51801   17800
   5  -7  -9   15649   16065
   5  -7  -9   23966   15091
   5  -7  -8   16696   17334
   5  -7  -8   50973   17731
   5  -7  -7   17009    9544
   5  -7  -7   30814   22336
   5  -7  -6   61159   19240
   5  -7  -5   96111   30342
   5  -7  -5   77262   14629
   5  -7  -4   12988   11501
   5  -7  -3   74207   26508
   5  -7  -2   16877   13008
   5  -7  -1   85908   26954
   5  -7   0   76415   24279
   5  -7   0   81008   20939
   5  -7   1   91138   28661
   5  -7   1   96640   24625
   5  -7   2  349687   50658
   5  -7   2  372530   60627
   5  -7   3   18862   16526
   5  -7   3   24277   15563
   5  -7   4  214950   47338
   5  -7   4  253519   54416
   5  -7   5   88760   30808
   5  -7   5   70360   16643
   5  -7   5   55399   13798
   5  -7   5   27845   11200
   5  -7   5   83677   28707
   5  -7   6   28210   11978
   5  -7   6   32485   12200
   5  -7   6   27357   12211
   5  -7   6   44079   25154
   5  -7   6   18436    8420
   5  -7   7   76160   36247
   5  -7   7   36601   16741
   5  -7   7  112459   25220
   5  -7   7  179883   26638
   5  -7   7  122865   25936
   5  -7   8    1987    4813
   5  -7   9   42790   16831
   5  -7  10    1168    2571
   5  -7  11   11563    7100
   5  -7  12    1280    2511
  -5   7 -14    2061    2091
   5  -6 -14    9149    5158
   5  -6 -14      26    6220
   5  -6 -13   11288    7727
   5  -6 -13    2221    5543
   5  -6 -12   19128   14812
   5  -6 -12   15727   11808
   5  -6 -11   22627   15400
   5  -6 -11    1280   10129
   5  -6 -10    3937   10085
   5  -6 -10   37334   17318
   5  -6  -9     612   13677
   5  -6  -9    6487   11089
   5  -6  -8    5708    7204
   5  -6  -8    9646   13316
   5  -6  -7     206    8991
   5  -6  -7    4788    8084
   5  -6  -6   29126   16103
   5  -6  -6   64555   16139
   5  -6  -6   32604   20426
   5  -6  -5    2484    5506
   5  -6  -5    4116    4053
   5  -6  -4   29618   15050
   5  -6  -4   32672   16674
   5  -6  -3   32713   15957
   5  -6  -2    1423    5432
   5  -6  -1   45809   19157
   5  -6   0   17225   17400
   5  -6   0   13380    6407
   5  -6   1  167186   28899
   5  -6   1  150880   33971
   5  -6   2   60774   21828
   5  -6   2   52981   17241
   5  -6   3  135556   31577
   5  -6   3  378026   58002
   5  -6   4  246855   45344
   5  -6   4  266207   49099
   5  -6   5   36247   18627
   5  -6   5   31894   17106
   5  -6   6  100644   36708
   5  -6   7   14443   10474
   5  -6   7   17442   10140
   5  -6   7    6629    7367
   5  -6   7   17329   10216
   5  -6   8   59477   33598
   5  -6   8   80169   23587
   5  -6   8   71139   22037
   5  -6   8  112803   22643
   5  -6   9    4885    6747
   5  -6   9    5777    7306
   5  -6  10   20126   11391
   5  -6  10   21501   11951
   5  -6  11   39267   13502
   5  -6  13    2497    3762
   5  -6  14     308    1657
   5  -5 -14     549    2834
   5  -5 -14       6    5279
   5  -5 -13    4760    8179
   5  -5 -13    1634    3962
   5  -5 -13    4168    3321
   5  -5 -12   13433   12571
   5  -5 -12     695    6166
   5  -5 -11    5102   13109
   5  -5 -11   32314   16222
   5  -5 -10    1888   12552
   5  -5 -10   26245   12791
   5  -5  -9   22801   14608
   5  -5  -9   16410   10870
   5  -5  -8   24287   18560
   5  -5  -8   20578   17446
   5  -5  -7      40    9918
   5  -5  -7    5405    9824
   5  -5  -6   33099   16439
   5  -5  -5    2207    9516
   5  -5  -5      46    8251
   5  -5  -4   89409   27070
   5  -5  -4  101867   27122
   5  -5  -3    4586    8834
   5  -5  -3   13484    9654
   5  -5  -2  117823   26661
   5  -5  -2   98882   25853
   5  -5  -1    4494    3384
   5  -5   0   31874   14500
   5  -5   0   40607   12182
   5  -5   1  316904   35155
   5  -5   1  274851   43322
   5  -5   2    3857    4138
   5  -5   2       5    5333
   5  -5   3  136572   29077
   5  -5   3  154233   36185
   5  -5   4    3742    4214
   5  -5   4    2929    5716
   5  -5   5   71359   25239
   5  -5   5   71298   26324
   5  -5   6   15014   12188
   5  -5   6    5260    7322
   5  -5   7   52078   24612
   5  -5   8      14    6614
   5  -5   8   26243   20693
   5  -5   8   31248   13270
   5  -5   8   22062   11779
   5  -5   9   20650   18179
   5  -5   9   30835   14063
   5  -5   9    7096   10502
   5  -5  10   18478   13429
   5  -5  10   18311   13551
   5  -5  11     122    7145
   5  -5  11     820    4380
   5  -5  12    3002    8830
   5  -5  13    2128    3410
   5  -5  14    4914    3663
   5  -4 -14      26    5767
   5  -4 -14    9418    7417
   5  -4 -13     361    6107
   5  -4 -13    3007    5534
   5  -4 -12    7699    8179
   5  -4 -12    7764   14839
   5  -4 -11   15090   14167
   5  -4 -11    1303   10570
   5  -4 -10   10040    9540
   5  -4 -10   26409   16952
   5  -4  -9   34329   14550
   5  -4  -9   10264   16513
   5  -4  -8    6918   10993
   5  -4  -8      90    5227
   5  -4  -8   21362   11551
   5  -4  -7   12332   12848
   5  -4  -7   41959   18084
   5  -4  -6    6128    9455
   5  -4  -5   34779   18609
   5  -4  -4   38870   15609
   5  -4  -4   43426   16575
   5  -4  -3   31151   13000
   5  -4  -3   28974   14038
   5  -4  -2   56850   19807
   5  -4  -2   81915   22466
   5  -4  -1     975    5281
   5  -4   0    9935    6578
   5  -4   0    4361    2389
   5  -4   1   29814   12383
   5  -4   1   28822    8893
   5  -4   2   22940   13324
   5  -4   2   11814    6229
   5  -4   3      20    4525
   5  -4   3      20    2075
   5  -4   4   18187   11001
   5  -4   4   25443   12497
   5  -4   5      75    4348
   5  -4   5    2331    6343
   5  -4   6   27488   11684
   5  -4   7   51061   27245
   5  -4   8    5210   14016
   5  -4   9    7560   12110
   5  -4   9   46064   16483
   5  -4   9   37929   23195
   5  -4  10    8349   18350
   5  -4  10   32370   15130
   5  -4  10    4110    8426
   5  -4  11   35418   14486
   5  -4  11   23086   13034
   5  -4  12     258    5810
   5  -4  12    9541    8561
   5  -4  13    6927    7177
   5  -4  14   18878    8344
   5  -3 -14    4540    6919
   5  -3 -14    2177    5797
   5  -3 -13    4536   11892
   5  -3 -13   11239    8422
   5  -3 -12   17066    9205
   5  -3 -12   20891   15916
   5  -3 -11    1081    6742
   5  -3 -10   18346   12023
   5  -3 -10   14414   14425
   5  -3  -9    4181    7094
   5  -3  -9      61    7408
   5  -3  -8   43814   23420
   5  -3  -8   68607   22796
   5  -3  -8   82027   17650
   5  -3  -7    4269    8972
   5  -3  -7    2425    4876
   5  -3  -6   23890   15090
   5  -3  -5   49203   18138
   5  -3  -4   16865    9057
   5  -3  -4   19136    9444
   5  -3  -3  220609   39962
   5  -3  -3  204326   38757
   5  -3  -2      47    4489
   5  -3  -2    3074    8016
   5  -3  -1  234521   33349
   5  -3  -1  174722   29370
   5  -3   0     365    1918
   5  -3   0    9593    6343
   5  -3   1  317575   25763
   5  -3   1  356749   43818
   5  -3   2  160088   21038
   5  -3   2  183139   31678
   5  -3   3   96143   23617
   5  -3   3   88069   17810
   5  -3   4   36087   13916
   5  -3   4   43975   15876
   5  -3   5   39276   15462
   5  -3   6   33129   14711
   5  -3   6   30045   17867
   5  -3   7   22501   13956
   5  -3   8    9014   13219
   5  -3   9    9875    9624
   5  -3   9   38546   13974
   5  -3   9    9466    9522
   5  -3   9   11627    9890
   5  -3  10   38163   16489
   5  -3  10    9906   18413
   5  -3  10   24608   12630
   5  -3  11   10285    9511
   5  -3  11   23266   12224
   5  -3  12    2185    7805
   5  -3  12     135    7399
   5  -3  13    1491    7034
   5  -3  13    5522    7609
   5  -3  14      59    3764
   5  -3  15    4731    5404
   5  -2 -14     891    6103
   5  -2 -13   14898    8074
   5  -2 -13   16401   11630
   5  -2 -12     994    4898
   5  -2 -12    3457   11996
   5  -2 -11   17743   11661
   5  -2 -11   21780   20276
   5  -2 -10    4802   14177
   5  -2  -9    8318   11030
   5  -2  -8   24912   14027
   5  -2  -8   16859   14160
   5  -2  -8      64   10112
   5  -2  -7    4294    4823
   5  -2  -7    3896    8185
   5  -2  -6   30261   17456
   5  -2  -5    2128    3381
   5  -2  -4  186175   37878
   5  -2  -4  171916   33291
   5  -2  -3   10689    7101
   5  -2  -3   14766    8803
   5  -2  -3    4154    3023
   5  -2  -2   77179   20493
   5  -2  -2   65732   17721
   5  -2  -2   64089   15411
   5  -2  -1  103221   26388
   5  -2  -1   86022   21069
   5  -2  -1   84299   23749
   5  -2   0  284390   39779
   5  -2   1  491990   48567
   5  -2   2     377    4154
   5  -2   3  494039   50800
   5  -2   4    3884    7071
   5  -2   5   23098   13197
   5  -2   5   19621   11753
   5  -2   6   69991   17655
   5  -2   6   64802   19569
   5  -2   7   25102   14550
   5  -2   8  110520   34649
   5  -2   9    7014   13936
   5  -2  10    5026    3536
   5  -2  10   43013   26856
   5  -2  10   69477   17293
   5  -2  10   51791   16712
   5  -2  11    6379    7819
   5  -2  11    9449    9406
   5  -2  11     540   12943
   5  -2  11     235   11611
   5  -2  12   13380   10418
   5  -2  12   18209   11046
   5  -2  12    6605   10932
   5  -2  13   23234   12349
   5  -2  13    2168    5396
   5  -2  14    9871    7852
   5  -2  14      62    6618
   5  -2  15    2024    6416
   5  -2  16     713    2058
   5  -1 -13     129    6831
   5  -1 -13    6880    9838
   5  -1 -13     129   10004
   5  -1 -12    9976    8712
   5  -1 -12    1938   12913
   5  -1 -11   14392   16821
   5  -1 -11   27428   13254
   5  -1 -10   10739   10249
   5  -1 -10     598    8643
   5  -1  -9   30454   16763
   5  -1  -8    1563    7545
   5  -1  -8    1097    5460
   5  -1  -7   31897   18718
   5  -1  -7   41053   19468
   5  -1  -6    2840    5162
   5  -1  -5   14471   10537
   5  -1  -4   54837   17988
   5  -1  -4   54191   18843
   5  -1  -4   33680   14364
   5  -1  -3   66028   19234
   5  -1  -3   50059   15428
   5  -1  -3   54174   16129
   5  -1  -2   80866   22989
   5  -1  -2  101985   27409
   5  -1  -2   82546   24711
   5  -1  -1     658    5467
   5  -1  -1    4853    4816
   5  -1  -1    1443    4201
   5  -1   0  342289   38484
   5  -1   0  338233   40528
   5  -1   1   45147   16981
   5  -1   1   46756   14918
   5  -1   1   26815    6167
   5  -1   2  348043   40571
   5  -1   2  253217   23949
   5  -1   3   54985   14192
   5  -1   3   73238   19980
   5  -1   4   97696   20423
   5  -1   4  108145   23581
   5  -1   5  144762   28280
   5  -1   5  133956   24804
   5  -1   6    6305    5065
   5  -1   6    9516    9089
   5  -1   7  154185   24217
   5  -1   7  216242   42015
   5  -1   8   12354   13141
   5  -1   9   86484   30271
   5  -1  10   29514   12751
   5  -1  10   34606   13823
   5  -1  10   23863   10705
   5  -1  10   17781   16301
   5  -1  11   26508   12838
   5  -1  11   18356   10383
   5  -1  11   19540   17990
   5  -1  12   75497   20097
   5  -1  12   59994   18905
   5  -1  12   43411   17756
   5  -1  13    8899    8249
   5  -1  13     232    8149
   5  -1  14   18839   11009
   5  -1  14   17805   11360
   5  -1  15     342    5133
   5  -1  15     504    3118
   5  -1  16   10241    6438
   5   0 -13     338    7617
   5   0 -13     242    6761
   5   0 -12    1344    6136
   5   0 -12     999    6756
   5   0 -11     725    6358
   5   0 -11    1812    7913
   5   0 -10   16526   12722
   5   0 -10    3524   13324
   5   0  -9    5799    9465
   5   0  -9    1229   15115
   5   0  -8    7048   13054
   5   0  -8   12371   10244
   5   0  -7     125    9245
   5   0  -7    2713    7966
   5   0  -6    5195    7100
   5   0  -5     116    5784
   5   0  -5    2586    8503
   5   0  -4   64091   21655
   5   0  -4   38484   15458
   5   0  -4   37870   15750
   5   0  -3   37500   18531
   5   0  -3   34197   16496
   5   0  -3   36226   17044
   5   0  -2     253    3960
   5   0  -2     365    6939
   5   0  -2    3795    8616
   5   0  -1    6618    7477
   5   0  -1    1300    4349
   5   0  -1     371    8392
   5   0   0   58135   18446
   5   0   0   59818   18277
   5   0   1  221624   33251
   5   0   1  236022   33185
   5   0   2  255725   34860
   5   0   2  174809   17571
   5   0   2  251249   33605
   5   0   3   40971   13393
   5   0   3   38066   10934
   5   0   4  225087   28646
   5   0   4  209478   29563
   5   0   5    2903    6343
   5   0   5    2970    5823
   5   0   6   88071   22997
   5   0   6   81110   17806
   5   0   7   56487   14218
   5   0   7   72202   22944
   5   0   8   64499   24498
   5   0   9   71644   27759
   5   0  10    8932   13786
   5   0  11   60743   19014
   5   0  11   89209   23650
   5   0  11  107149   23294
   5   0  11   56724   32479
   5   0  12    3297    7390
   5   0  12    5446    9165
   5   0  12    1755    8534
   5   0  12    3306    7588
   5   0  13   24917   12781
   5   0  13   60107   18800
   5   0  14    1022    4316
   5   0  14    1276    5595
   5   0  14    1222    8807
   5   0  15     991    6635
   5   0  15   11267    5716
   5   0  16    3990    7904
   5   0  17     558    2817
   5   1 -13    4877    8790
   5   1 -12     573   12879
   5   1 -12     128   12848
   5   1 -12    6171   10340
   5   1 -11    6029    8759
   5   1 -11    2186   12277
   5   1 -10    6692    9508
   5   1 -10    5483   10745
   5   1  -9     796    8523
   5   1  -9   15350   12195
   5   1  -8    8333    7611
   5   1  -8    2974    8277
   5   1  -8     556    6183
   5   1  -7    6139    6978
   5   1  -7    3740    6843
   5   1  -7    1262    8165
   5   1  -6   19999   14769
   5   1  -6   23348   16837
   5   1  -5     168    6701
   5   1  -5       5    3948
   5   1  -4   22743   14396
   5   1  -4    7642    9994
   5   1  -3    9936    9165
   5   1  -3   10677   10438
   5   1  -3    2867    4253
   5   1  -2   14887   11482
   5   1  -2   15565   11927
   5   1  -2   15056   10027
   5   1  -1      99    6760
   5   1  -1    1857    5066
   5   1  -1      99    4407
   5   1   0   23647   12371
   5   1   0   22342   11614
   5   1   1  524143   52700
   5   1   1  502943   48089
   5   1   2     236    1854
  -5  -1  -2     351    1783
   5   1   2     136    4440
   5   1   2    5116    6557
   5   1   3   18624    7069
   5   1   3   25892   13090
   5   1   3   19694   10049
   5   1   4   71732   16190
   5   1   4   74505   16558
   5   1   5  102561   20580
   5   1   5  119122   22613
   5   1   6   52635   18079
   5   1   6   53658   14782
   5   1   7    8233    6548
   5   1   7    4932    7286
   5   1   8   74703   24441
   5   1   9     959    6415
   5   1  10   40707   24186
   5   1  11   39823   14330
   5   1  11   57265   15626
   5   1  11   43554   24329
   5   1  12     546    8893
   5   1  12     546    9300
   5   1  12   15154    9286
   5   1  13   23538   12668
   5   1  13   48306   17765
   5   1  14   14781   10382
   5   1  14    2632    7014
   5   1  15   12611    8064
   5   1  15    1652    6282
   5   1  16    3488    7639
   5   1  17   11162    6934
   5   2 -13      81    5294
   5   2 -12     124    6148
   5   2 -11     254    8065
   5   2 -11    3701    9049
   5   2 -11    7845   16399
   5   2 -10     423    9592
   5   2 -10     423    8915
   5   2  -9   11899   15204
   5   2  -9    9568   10104
   5   2  -8     311    7822
   5   2  -8     311    4973
   5   2  -8   15039   11308
   5   2  -7    9425   15081
   5   2  -7   10238    8280
   5   2  -7    8832   12157
   5   2  -6   12346   15463
   5   2  -6    9245    8524
   5   2  -5   21463   15586
   5   2  -5   16195   15472
   5   2  -4      50    5085
   5   2  -4      50    6123
   5   2  -3    6032    8763
   5   2  -3    7045    9311
   5   2  -3    1947    5428
   5   2  -2    6295    8404
   5   2  -2    4174    4267
   5   2  -2    8848    9274
   5   2  -1   30106   13720
  -5  -2   1   21216    7524
   5   2  -1   32179   14812
   5   2   0   19034   11156
   5   2   0   15431    8706
  -5  -2   0    8226    3856
   5   2   1    7074   10127
  -5  -2  -1    5898    3644
   5   2   1    7178    8094
   5   2   2   96732   24301
  -5  -2  -2   80325   13380
   5   2   2   47970   10828
   5   2   2   96610   22334
   5   2   3   25483    7684
   5   2   3   46701   15036
   5   2   3   40148   12990
   5   2   4    2129    5861
   5   2   4    3604    3859
   5   2   4    3447    5082
   5   2   5   63222   16529
   5   2   5   60178   18171
   5   2   6    7134    4598
   5   2   6    3408    7053
   5   2   7   22644   12317
   5   2   7   18814    9973
   5   2   8    7511    9505
   5   2   9   29538   19612
   5   2  10   25987   17311
   5   2  11    5508   12344
   5   2  11   14721    9197
   5   2  12   27261   22957
   5   2  12   50130   18984
   5   2  12   48079   17202
   5   2  13    2719    6999
   5   2  13    1022    6250
   5   2  13    6376   10192
   5   2  14   23625   11054
   5   2  14   93109   22445
   5   2  15    1436    6802
   5   2  16   14617    8407
   5   2  16    1742    6337
   5   2  17     142    4253
   5   3 -12     550    9867
   5   3 -11    5769   15802
   5   3 -10     268    7370
   5   3 -10     249   15841
   5   3 -10    3582   10329
   5   3  -9     720    6555
   5   3  -9     517    8702
   5   3  -8   17463   13079
   5   3  -8    2942   13527
   5   3  -7    9544    9707
   5   3  -7    3946   12396
   5   3  -7    4583   10266
   5   3  -6   11338    9390
   5   3  -6     132    7604
   5   3  -6     132   10353
   5   3  -6     132    4081
   5   3  -5    7142    9141
   5   3  -5    9560    8254
   5   3  -4   10232    8865
   5   3  -4      66    4970
   5   3  -3   26347   14433
  -5  -3   2   32657   13268
   5   3  -2   22864   14277
   5   3  -2   20579   13275
   5   3  -1    5810    8500
  -5  -3   1   13422    8401
   5   3  -1   16010   12058
   5   3   0   34483   13662
  -5  -3   0   47422   12603
   5   3   0   48229   17123
  -5  -3  -1   13125    7145
   5   3   1    6897    8845
   5   3   1   11757    8881
   5   3   2  213599   33950
   5   3   2  197927   29936
  -5  -3  -2  220640   25048
  -5  -3  -3     442    3902
   5   3   3    2165    4757
   5   3   3     475    4751
   5   3   3    3982    6379
   5   3   4   98378   22366
   5   3   4  106273   25000
   5   3   4  109940   23969
   5   3   5      68    6305
   5   3   5    4343    6722
   5   3   5    4250    6715
   5   3   6  239915   39612
   5   3   6  216867   33347
   5   3   7   88101   24269
   5   3   7   87961   20787
   5   3   8   96012   29133
   5   3   9   35270   19220
   5   3  10    5517    9599
   5   3  11   13279   11354
   5   3  11   36966   14786
   5   3  11   16924   16131
   5   3  12     207   15312
   5   3  12     207    6002
   5   3  13     970    5897
   5   3  14    7764   10037
   5   3  14   14142   11393
   5   3  14    4905    6892
   5   3  15   28605   14011
   5   3  16    1366    6193
   5   3  17     314    4551
   5   3  18    1646    2800
   5   4 -12      40    5021
   5   4 -11    2116   12399
   5   4 -10     467    8083
   5   4  -9     970    7453
   5   4  -9    1123   24883
   5   4  -8    1216   14423
   5   4  -8     284   20570
   5   4  -8    1672   13561
   5   4  -7     760   11980
   5   4  -7     186    7220
   5   4  -7     760   11108
   5   4  -6     714    4220
   5   4  -6    9870    8324
   5   4  -6   11309   16539
   5   4  -6   17147   17243
   5   4  -5      45    9555
   5   4  -4    9829   11976
   5   4  -3      34    8051
  -5  -4   3      34    6394
   5   4  -2    8506    9485
  -5  -4   2   12616   10569
  -5  -4   1      25    5276
   5   4  -1      25    3538
   5   4   0  103574   28585
  -5  -4   0  143174   26912
   5   4   0  106886   26359
   5   4   1   67006   21443
  -5  -4  -1   88828   19528
   5   4   1   64071   18422
   5   4   2    4959    8870
  -5  -4  -2     395    3655
   5   4   2    1993    6766
   5   4   3     143    3291
  -5  -4  -3     865    4192
   5   4   3    2953    6387
   5   4   4    7561    7979
   5   4   4    7447    7274
   5   4   4    7828    8047
  -5  -4  -4    8782    7770
   5   4   5   11191    6668
   5   4   5    2062    5974
   5   4   5      74    4417
   5   4   6   13714    7898
   5   4   7   11373   12931
   5   4   8   62567   23463
   5   4   9    5043    6117
   5   4  10   45063   24907
   5   4  11   45278   13213
   5   4  11   40410   23387
   5   4  12    8273    8502
   5   4  12    1416    7980
   5   4  12    2790    6835
   5   4  13   12092   10065
   5   4  14    3252    6429
   5   4  14     573    4417
   5   4  15   42655   17035
   5   4  16    2367    7314
   5   4  17     784    2982
   5   4  17     784    6562
   5   4  18    2357    3572
   5   5 -11     171   10339
   5   5 -10    1677   14264
   5   5  -9    1368   15159
   5   5  -8    3760   16570
   5   5  -7   28480   27679
   5   5  -6    2854   10285
   5   5  -6     431    2932
   5   5  -6     324    6525
   5   5  -6     361   16687
   5   5  -6     431    4663
   5   5  -5    3842   10295
   5   5  -5    6550    6428
   5   5  -5     568   10232
   5   5  -4    1400    8389
   5   5  -3      49    3901
  -5  -5   3    3694    6523
   5   5  -2    9640    9043
  -5  -5   2   27799   15718
   5   5  -1   21800   14040
  -5  -5   1   37861   16759
   5   5   0   24798   14860
  -5  -5   0   30029   13467
   5   5   1    3125    8867
  -5  -5  -1     904    4956
   5   5   2    2347    6209
  -5  -5  -2    4547    7019
   5   5   3   23467   14278
  -5  -5  -3   22917   12979
  -5  -5  -4   20185   10785
   5   5   4   16456   10165
   5   5   4    8057    5709
   5   5   5   10344    8802
   5   5   5    3779    5384
   5   5   6    1931    4961
   5   5   6     182    2959
   5   5   7   66452   23138
   5   5   8    2448    3799
   5   5   9   95347   33908
   5   5  10    6901    7227
   5   5  11   18913    9042
   5   5  11   25986   12023
   5   5  11    6531    9474
   5   5  12    2979    7982
   5   5  12   24526   13218
   5   5  12     753    9261
   5   5  13   23350   13216
   5   5  14   51076   19716
   5   5  15     779    7552
   5   5  15    1748    8911
   5   5  16   11682    8939
   5   5  17    1083    4652
   5   5  18     157    3169
   5   6 -11      64    3275
   5   6 -10    1213    5548
   5   6  -9     176    8116
   5   6  -8     260   18469
   5   6  -7    4508    6300
   5   6  -7    1238   12884
   5   6  -6    2064    3232
   5   6  -6    1131   12108
   5   6  -5      69    5525
   5   6  -5    2857   13236
   5   6  -5     266    9894
   5   6  -4    2639    9838
   5   6  -4    7569    5757
   5   6  -4    4571   13549
   5   6  -3    3595    9763
  -5  -6   3   18475   19229
   5   6  -2     100    9260
  -5  -6   2     100    6640
   5   6  -1   11677    8897
  -5  -6   1   19686   14699
   5   6   0   22666   16081
  -5  -6   0   46881   20265
   5   6   1   30415   17152
  -5  -6  -1   34086   16379
  -5  -6  -2  191223   35032
   5   6   2  147503   34523
   5   6   3     479    7741
  -5  -6  -3   10391    9137
   5   6   4   21005   12745
  -5  -6  -4   33607   15504
   5   6   5     205    7094
  -5  -6  -5    4192    4980
   5   6   5     205    4275
   5   6   6    7185    7225
  -5  -6  -6     469   10216
   5   6   6    5844    5489
   5   6   7   37423   20987
   5   6   8    5179    9619
   5   6   9   22517   15779
   5   6  10    2926    6442
   5   6  11    5649    8993
   5   6  11    1102    3913
   5   6  11    6606   15866
   5   6  12      49    7548
  -5  -6 -12      49    4637
   5   6  12      49    9468
   5   6  12    6235    6995
   5   6  13   23934   12858
   5   6  13   15721   11909
   5   6  14     125   14226
   5   6  15    9209    8583
   5   6  16    9606    8140
   5   6  17     706    4349
   5   6  18    2043    2344
   5   6  18     628    2285
   5   7 -10      21    5211
   5   7  -9    3644    9694
   5   7  -8    3098   18718
   5   7  -7     297    4911
   5   7  -7     297   11373
   5   7  -6   14706   11464
   5   7  -6   83545   32150
   5   7  -5      17    7547
   5   7  -5      17   11361
   5   7  -4   11861   15304
   5   7  -4   10318    8857
   5   7  -4    3816   17010
   5   7  -3      24   11913
   5   7  -3      24    6013
   5   7  -3      24    7406
   5   7  -2    6373   12386
  -5  -7   2   31762   19311
   5   7  -1      82    8317
  -5  -7   1    9003   13324
   5   7   0   12036    9157
  -5  -7   0   14478   12540
   5   7   1   71358   28067
  -5  -7  -1  125066   33367
   5   7   2   16405   11679
  -5  -7  -2    9318    6985
   5   7   3   94579   27950
  -5  -7  -3  120792   30672
   5   7   4   42848   18095
  -5  -7  -4   70548   23196
   5   7   5      92    5293
  -5  -7  -5      92    6919
   5   7   6  151329   38466
   5   7   6   95607   25395
  -5  -7  -6  150928   38132
  -5  -7  -7    2855   10583
   5   7   7     918    8407
   5   7   8   17213   11714
   5   7   9    5056   10281
   5   7  10   27409   12352
   5   7  10   32882   22386
   5   7  10   30682   11407
   5   7  11   34862   13545
  -5  -7 -11   11973    7682
   5   7  11   29746   19774
   5   7  11   33372   13233
   5   7  12    1104    5891
  -5  -7 -12    3014    9309
   5   7  12    1154    8796
   5   7  12    3355    5464
   5   7  13   38524   14179
  -5  -7 -13     987    3507
   5   7  13   54379   19273
   5   7  14    2282    6038
   5   7  14      62    8029
   5   7  15   28324   12658
   5   7  16   14976    8761
   5   7  17   10731    6341
   5   7  18    4085    2940
   5   7  18     190    3121
   5   8  -9    1220    4190
   5   8  -8      54    8534
  -5  -8   7   16758    8253
   5   8  -7     139    3592
   5   8  -7    6471   17011
   5   8  -6      25    3295
   5   8  -6      25   10014
   5   8  -5   17280    9660
   5   8  -5   15626   15325
   5   8  -4    2119    5995
   5   8  -4    3836   15925
   5   8  -3     501    5664
   5   8  -3    1466    5970
   5   8  -3    1659   12706
   5   8  -2   21483   11892
  -5  -8   2   10343   14925
   5   8  -2    8588    7943
   5   8  -2    9627   12344
   5   8  -1      38    4488
  -5  -8   1    7291   10458
   5   8  -1      38   15393
   5   8  -1    5117   11809
   5   8   0   23700   17476
  -5  -8   0   45457   22766
   5   8   1   17609   14569
  -5  -8  -1   38692   20309
  -5  -8  -2    7120    7791
   5   8   2    6789    9954
   5   8   3   51632   22657
  -5  -8  -3   66634   26413
   5   8   4    5445    5350
  -5  -8  -4   15892    9971
  -5  -8  -5   68675   26203
   5   8   5   32973   15246
  -5  -8  -6   19200   12786
  -5  -8  -7   93756   30847
  -5  -8  -8   22545   17870
   5   8   8   39819   24188
  -5  -8  -9      34    9044
   5   8   9   10975    9707
   5   8   9      34    2624
   5   8  10   20430   18726
   5   8  10   20490   14093
   5   8  10    7390    5629
  -5  -8 -10   10625   12548
   5   8  10   15988    8414
  -5  -8 -11    2918    7474
   5   8  11    8114    9476
   5   8  11      18    7174
   5   8  11    6415    6966
   5   8  12   22275   12333
  -5  -8 -12    2055    6080
  -5  -8 -12    9434   16012
   5   8  12   10923    8628
   5   8  13      62    6874
   5   8  13   10276    9123
  -5  -8 -13    3791    5775
  -5  -8 -13    3266    5113
   5   8  14   13748    9675
   5   8  14   12743    9225
   5   8  15   11052    8621
   5   8  17   11300    5448
   5   8  18     117    3315
   5   9  -9       2    2772
  -5  -9   7    2573    3761
   5   9  -7    1046    8424
   5   9  -6    3265    4724
   5   9  -6      29    8147
   5   9  -5    2148    4732
   5   9  -5    1397   17957
   5   9  -4      71   11551
   5   9  -4    3028    7046
   5   9  -3    9565    8754
   5   9  -3    1959   16027
   5   9  -2      21    5066
   5   9  -2    1713   10288
   5   9  -2    3325    4528
   5   9  -1     249    3692
   5   9  -1    9229   13889
   5   9  -1     303    5239
  -5  -9   1       3   10226
   5   9   0   29123   21860
   5   9   0   22232    9288
   5   9   0   35027   19676
  -5  -9   0   31495   20166
   5   9   1      67    8726
  -5  -9  -1    2017    4740
   5   9   2   22595   16529
  -5  -9  -2   26625   18054
   5   9   3    5385   11292
  -5  -9  -3     219    3636
   5   9   4    2210    6771
  -5  -9  -4    4724    6058
  -5  -9  -5      87    6460
  -5  -9  -6   24317   17934
  -5  -9  -7   28322   20451
   5   9   8    5281    4296
  -5  -9  -8    3347    9176
   5   9   8     291    3116
   5   9   9    9601    7616
  -5  -9  -9   16105   15036
   5   9   9   13614    6862
  -5  -9 -10     113    4188
   5   9  10    5455    6136
   5   9  10    8384    6125
   5   9  11   31254   12356
  -5  -9 -11    2859    8521
  -5  -9 -11   15718   20232
   5   9  11   16832   17487
   5   9  11   15655    8178
   5   9  12   25398   14840
  -5  -9 -12   12540   10060
   5   9  12   13322    9030
   5   9  13    3075    6295
  -5  -9 -13     137    5397
  -5  -9 -13   12708    9389
   5   9  14    5722    7190
  -5  -9 -14    3059    5752
  -5  -9 -14      49    7174
   5   9  14   18170   10452
   5   9  15    5057    5979
   5   9  17      56    3806
  -5 -10   7     219    2403
   5  10  -6      28    6505
  -5 -10   6    8119    6286
   5  10  -5    3216    3513
   5  10  -5    1718   12760
   5  10  -4     119    3891
   5  10  -4    2548   13078
   5  10  -3     105    4687
   5  10  -3    1477    8478
   5  10  -2   17269   10690
   5  10  -2    2851   16376
   5  10  -1    2458    5937
   5  10  -1   17734    9917
   5  10  -1    1445   13966
   5  10   0    4592   12741
   5  10   0   15869    9893
  -5 -10   0   22510   20910
   5  10   1   32077   19849
   5  10   1   27939   10051
  -5 -10  -1   36466   23744
   5  10   2     167   10773
   5  10   2    1017    4193
  -5 -10  -2    1519    5650
   5  10   3    9758    8002
   5  10   3    1124    7990
   5  10   3   13068    9611
  -5 -10  -3     196    9082
  -5 -10  -4   29226   20623
   5  10   4   18729   11982
  -5 -10  -5    3618    6975
   5  10   6    9729    6993
  -5 -10  -6   26691   19057
   5  10   7    9734    8075
  -5 -10  -7    4570    4415
   5  10   8   41909   10310
  -5 -10  -8   54760   28821
   5  10   8   48185   14710
   5  10   9    1404    3522
   5  10   9      57    3636
  -5 -10  -9     173    8719
   5  10  10   10481    4937
   5  10  10   17533   10023
   5  10  11   25465   16062
   5  10  11    9677    3668
   5  10  11   33010   13130
   5  10  12    4084    9270
  -5 -10 -12     657    5352
   5  10  12   11429    8775
   5  10  13   16990    9958
  -5 -10 -13    2371    7059
  -5 -10 -13   10501   11036
  -5 -10 -14     112    3882
  -5 -10 -14    2805    7343
   5  10  14    2689    5027
   5  10  15   10245    7509
   5  10  15   18167    7941
   5  10  17    2076    2819
   5  11  -7       5    4095
  -5 -11   6    4000    4326
   5  11  -5      28    7017
   5  11  -4      51    5673
   5  11  -3      76    4490
   5  11  -2      25    5705
   5  11  -1    3131    6039
   5  11   0    2344    5014
   5  11   1      17    5010
   5  11   2    6118    5951
   5  11   2    9017    9983
  -5 -11  -2    8356    9181
   5  11   3    6687    6211
   5  11   3   14559   10407
  -5 -11  -3   18125   20934
   5  11   4      60    4596
  -5 -11  -4    2361    4448
   5  11   4      60    6183
   5  11   5    7428    8508
  -5 -11  -5   19701   20297
   5  11   6    2170    5921
  -5 -11  -6     241    9994
   5  11   7   59249   17546
  -5 -11  -7   37607   24010
  -5 -11  -8      38    4447
   5  11   8   10151    8249
   5  11   9  101030   22283
   5  11   9   62160   14030
   5  11  10    7834    6362
   5  11  10    7284    8394
   5  11  11    6512   10470
   5  11  11    1815    3150
   5  11  11   16884    9097
   5  11  12   39339   17660
  -5 -11 -12   11356   13740
   5  11  12   38032   12212
   5  11  13    1483    5138
   5  11  13    1186    6801
  -5 -11 -13      47    7334
  -5 -11 -13    1419    8277
   5  11  14   15825    8141
  -5 -11 -14    2847    7233
  -5 -11 -14    6713    4919
   5  11  15   12351    7592
   5  11  17     715    1921
  -5 -12   6    1926    2686
   5  12  -6       2    4377
  -5 -12   5    6357    5049
   5  12  -5    6790    4015
   5  12  -3      31    4631
   5  12  -2      23    4772
   5  12  -1       7    4074
   5  12   0    5344    6139
   5  12   1      24    6238
   5  12   1      24    6405
   5  12   2    2751    4817
   5  12   2     544    6883
   5  12   3    1667    2984
   5  12   3    9076   12602
   5  12   4    4232    3854
   5  12   4   21956   13087
   5  12   5      24    5117
   5  12   6   14066    9451
   5  12   7   12183    8843
   5  12   8      17    4757
   5  12   8    1818    5074
   5  12   9   11235    7403
   5  12   9   12780    8319
   5  12  10     518    3939
   5  12  10      26    3430
   5  12  11    7596    5925
   5  12  11    7004    5830
   5  12  11      26    3782
   5  12  12    3808   10514
  -5 -12 -12     178    7512
  -5 -12 -12     178    6347
   5  12  12    4918    6041
   5  12  13   13780   11002
  -5 -12 -13    7978    9862
  -5 -12 -13   13785   11781
   5  12  14      61    3497
  -5 -12 -14      61    5501
  -5 -12 -14     712    4453
   5  12  15     288    3367
  -5 -13   5      33    2110
   5  13  -5      33    2952
  -5 -13   4    1721    3750
   5  13  -4     141    2036
   5  13  -4     348    2985
   5  13  -3     264    5210
   5  13  -2    1688    4787
   5  13  -1    8587    9214
   5  13  -1    8714    7965
   5  13   0    1611    6207
   5  13   0    6840    8253
   5  13   1   40562   13425
   5  13   1   64716   18361
   5  13   2   37263   14485
   5  13   2   25745    9273
   5  13   3   23992   11652
   5  13   3    4263    3690
   5  13   4   24415   11676
   5  13   5     125    4688
   5  13   6   53643   17431
   5  13   7    6674    7864
   5  13   8   14620    8392
   5  13   8   15003    7977
   5  13   9   16364    9001
   5  13   9   17982    9002
   5  13  10    5030    5962
   5  13  10      89    3866
   5  13  11   17715   11010
   5  13  11    7130    2461
   5  13  11   14040    7821
  -5 -13 -11   18740   12075
   5  13  12    6199    5468
  -5 -13 -12      40    5965
  -5 -13 -12      40    7136
   5  13  13   11265    7875
  -5 -13 -13    5040    7607
  -5 -13 -13    5180    7266
  -5 -13 -14    4802    4904
  -5 -13 -14      37    6326
   5  13  14    1871    2927
  -5 -14   3    4973    4900
   5  14  -3     893    1922
   5  14  -3    4231    5417
  -5 -14   2   16752    7602
   5  14  -2    6389    6901
   5  14  -1     227    1981
   5  14  -1   10287    8401
   5  14   0   15335    8863
   5  14   1   21039    7830
   5  14   2    3061    4982
   5  14   3   24961   10238
   5  14   4     104    9309
   5  14   5   36844   14503
   5  14   6   57270   17148
   5  14   7    4115    3989
   5  14   7    4339    6648
   5  14   8   21652    9188
   5  14   8   34294   12624
   5  14   9      72    3088
   5  14   9     875    3777
   5  14  10   14691    6975
   5  14  10   26591    8999
   5  14  11      18    6384
   5  14  11    2996    2325
  -5 -14 -11    4395    4761
   5  14  11    4481    3598
   5  14  12   12388    7756
  -5 -14 -12    3604    7649
  -5 -14 -12    7427    6994
  -5 -14 -13    3244    2899
   5  14  13    5512    4807
  -5 -14 -13    5723    4398
  -5 -14 -14    1927    3121
   5  14  14   11994    5765
  -5 -15   2    7731    4347
  -5 -15   1    3916    4309
   5  15  -1     237    3142
   5  15   0   12688    6984
   5  15   0    3593    4762
   5  15   0     199    2261
   5  15   1     121    3208
   5  15   1     121    3651
   5  15   2    7729    7028
   5  15   3    1618    6409
   5  15   4   10996    7311
   5  15   5     971    3142
   5  15   6   11707    6203
   5  15   6      49    4273
   5  15   7    9542    5244
   5  15   7    6000    5893
   5  15   8    5928    5348
   5  15   8     449    2608
   5  15   9   16713    6493
   5  15   9   18614    7840
   5  15  10    1680    3933
   5  15  10       9    1956
   5  15  10    3021    3030
   5  15  11   17118    8276
  -5 -15 -11    6849    5779
  -5 -15 -11   15679   10176
   5  15  12    8930    5913
  -5 -15 -12     773    2399
  -5 -15 -12    6829    4825
   5  15  13       6    3136
  -5 -15 -13     405    2302
  -5 -15 -13       6    4581
   5  16   0      97    1769
   5  16   1     114    2571
   5  16   1     196    1014
  -5 -16  -1    4215    3091
   5  16   2    1731    2011
   5  16   2      54    2640
   5  16   3      12    1961
  -5 -16  -3    1906    2054
   5  16   4    9868    5592
   5  16   4   14713    7838
   5  16   5       2    3104
   5  16   5     318    2508
   5  16   6   21173    7235
   5  16   6   20601    7794
   5  16   7    1614    3099
   5  16   7    2676    3288
   5  16   8   16965    5961
   5  16   8   20893    7439
   5  16   9    8190    6320
   5  16   9    6359    3082
   5  16   9    7370    3235
   5  16  10    3395    4332
  -5 -16 -10     171    4570
  -5 -16 -10    2932    3039
   5  16  11   17774    6860
  -5 -16 -11    7540    5779
  -5 -16 -11    9673    6008
   5  16  12       7    2194
  -5 -16 -12     285    1966
  -5 -16 -12     100    2589
   5  17   3    1094    1614
   5  17   4       1    1312
   5  17   4       1    1875
   5  17   5    9171    4339
   5  17   5    7882    3639
   5  17   6   10133    4523
   5  17   6    8489    3989
   5  17   7   13142    4408
   5  17   7    9020    3795
   5  17   7   11311    4328
   5  17   8   12702    5340
   5  17   8    9272    3086
  -5 -17  -8    9405    4372
  -5 -17  -8    8799    7404
  -5 -17  -9       2    2144
   6 -15  -6     917    2669
   6 -15  -5    2020    3713
   6 -15  -4    3731    4372
  -6  15   2   12803    5224
  -6  15   1     317    1390
   6 -15  -1    2179    1933
  -6  15   0    5960    3436
   6 -15   0    2665    3886
  -6  15  -1     671    1678
   6 -15   1     367    1812
  -6  15  -2    6542    2968
   6 -14  -8    1322    3048
   6 -14  -7    1826    4787
   6 -14  -6      76    3387
   6 -14  -5     117    7045
  -6  14   3   11496    6575
  -6  14   2    4121    4081
   6 -14  -2    6139    5140
  -6  14   1    6747    3855
  -6  14   0    7549    5810
  -6  14  -1    5548    4711
  -6  14  -2   14056    6445
  -6  14  -3       4    1850
  -6  14  -4   13557    4832
  -6  14  -5      22     926
   6 -13  -9      30    2959
   6 -13  -8      23    5914
   6 -13  -7       7    4728
   6 -13  -6   13807   11771
  -6  13   4    4114    6893
  -6  13   3    9319    6806
   6 -13  -3   10163    7192
  -6  13   2   15746    8406
  -6  13   1    9269    7952
  -6  13   0      43    3952
  -6  13  -1   28771   11214
  -6  13  -2   16047    8175
  -6  13  -3   11831    6882
  -6  13  -4   11148    5885
  -6  13  -5    1191    2052
  -6  13  -6    2066    2563
  -6  13  -7    1686    2014
   6 -12 -10     636    2128
   6 -12 -10      95    4687
   6 -12  -9    1830    2114
   6 -12  -9     118    4720
   6 -12  -8    1394    3285
   6 -12  -8     161    5478
   6 -12  -7    2908    3238
   6 -12  -7    6559   10260
   6 -12  -6    9192   15153
  -6  12   4   45645   14566
  -6  12   3     212    4985
  -6  12   2   41485   16570
  -6  12   1     607    4986
  -6  12   0    4276    6046
  -6  12  -1    9611    7536
  -6  12  -2       3    3230
  -6  12  -3   23303    9681
  -6  12  -4      52    2133
  -6  12  -5   13636    7179
  -6  12  -6    1045    2303
  -6  12  -7    3355    3525
  -6  12  -8    1746    2081
   6 -11 -11    1035    1438
   6 -11 -11      38    3380
   6 -11 -10    7654   10743
   6 -11  -9   10456   11995
   6 -11  -8     402   10207
   6 -11  -8   12631   13975
   6 -11  -7   23915   12329
   6 -11  -7   19820   19065
   6 -11  -6     214    7558
   6 -11  -6   11425   11600
  -6  11   5   65972   19490
  -6  11   4   78713   22059
  -6  11   3   25805   13464
  -6  11   2   85002   22213
  -6  11   1    1923    3737
  -6  11   0    2816    8162
  -6  11  -1    4969    6915
  -6  11  -2   21744   11191
  -6  11  -3     540    3928
  -6  11  -4   15275    9358
  -6  11  -5    6947    6984
  -6  11  -6    5124    6081
  -6  11  -7    3749    4445
  -6  11  -8    2830    3320
   6 -11   8    1880    2156
  -6  11  -9    5635    3536
  -6  11 -10      47    1282
   6 -10 -12     427    3958
   6 -10 -12    2871    2765
   6 -10 -11    8075    7975
   6 -10 -10    2773    7824
   6 -10 -10     105    9982
   6 -10  -9     145    6522
   6 -10  -9   19378   13266
   6 -10  -8   30040   23016
   6 -10  -8   16603   12455
   6 -10  -7    8604   15782
   6 -10  -7     733   12457
   6 -10  -6     956   15299
   6 -10  -6   14406   18620
  -6  10   5   34599   14550
   6 -10  -5     766   12496
  -6  10   4   39260   15247
  -6  10   3   58487   18560
  -6  10   2   10895    6609
  -6  10   1  193376   34047
  -6  10   0     243    4072
  -6  10  -1  137020   27080
  -6  10  -2   63446   17752
  -6  10  -3   35950   12868
  -6  10  -4    3460    3160
  -6  10  -5    3550    4873
   6 -10   5    6432    6965
  -6  10  -6    5286    6070
   6 -10   6    6143    5055
  -6  10  -7     519    2421
   6 -10   7    3828    4009
  -6  10  -8    9044    6184
  -6  10  -9    2072    3694
  -6  10 -10    5553    4241
  -6  10 -11     534    1017
   6  -9 -12     263    5960
   6  -9 -12     375    2922
   6  -9 -11   10241   10871
   6  -9 -10     486    6941
   6  -9 -10     310   13820
   6  -9  -9   12058   15590
   6  -9  -9    2807   10825
   6  -9  -8    3144    8702
   6  -9  -8   13539   13091
   6  -9  -7    8952   19325
   6  -9  -7   69379   19852
   6  -9  -6   15912   22703
   6  -9  -6   56637   19171
  -6   9   5     365    6829
   6  -9  -5   14589   12300
   6  -9  -4   64042   30388
  -6   9   4  109052   24613
   6  -9  -3   11250   16898
  -6   9   3   16870   10539
   6  -9  -2  133467   38612
  -6   9   2  201508   33770
   6  -9  -1    4455    8745
  -6   9   1   16427    8616
   6  -9   0  127749   40078
  -6   9   0  199275   31804
   6  -9   1   78824   33552
  -6   9  -1   80869   21085
   6  -9   2   41305   22376
  -6   9  -2   45659   15274
   6  -9   3  196398   29386
   6  -9   3  159698   48952
  -6   9  -3  182706   29218
  -6   9  -4     731    2712
   6  -9   4    2380    5040
  -6   9  -5   75043   18265
   6  -9   5   51768   15863
  -6   9  -6    8286    7129
   6  -9   6    7790    6145
  -6   9  -7   24620   11176
   6  -9   7   19011    9280
  -6   9  -8    4552    6299
   6  -9   8    3328    4809
  -6   9  -9    3577    4521
   6  -9   9    1315    4288
  -6   9 -10   17329    7731
   6  -9  10   11684    5096
  -6   9 -11      31    2476
  -6   9 -12     445    1147
   6  -8 -13    1535    4370
   6  -8 -12    8232    4448
   6  -8 -12     420    5597
   6  -8 -12    1181    3447
   6  -8 -11    5822    7989
   6  -8 -11   18008   13406
   6  -8 -10    1572   10861
   6  -8 -10     654   10651
   6  -8  -9     346    7054
   6  -8  -9   48202   18610
   6  -8  -8    9076   14941
   6  -8  -8    9175   12294
   6  -8  -7    2642   11721
   6  -8  -7   42546   16989
   6  -8  -6    3772   12678
   6  -8  -6    4514   11017
  -6   8   5   50885   13675
   6  -8  -5   55542   16270
  -6   8   4    1126    5970
   6  -8  -4     113   12287
   6  -8  -4     113   10370
   6  -8  -3   43293   24746
  -6   8   3   72636   18633
   6  -8  -3   27980   13227
   6  -8  -2   27286   18118
  -6   8   2   45170   14906
   6  -8  -1     111    7359
  -6   8   1    2692    4269
   6  -8   0   37938   23224
  -6   8   0   37333   14729
   6  -8   1   21451   16881
  -6   8  -1   28217   12691
  -6   8  -2  158455   26231
   6  -8   2  162484   27158
   6  -8   2  215229   66017
   6  -8   3   35333   22074
  -6   8  -3   34577   12304
   6  -8   3   35107   11895
   6  -8   4  108819   39014
  -6   8  -4   95942   20423
   6  -8   4   68102   19441
   6  -8   5   34559   15820
   6  -8   5   57187   29874
   6  -8   6    5601    6155
   6  -8   7   39558   14435
   6  -8   8      37    3536
   6  -8   9   13662    8416
   6  -8  10    2828    4484
   6  -8  11    2919    3968
  -6   8 -12      35    1475
   6  -8  12    1990    2229
  -6   8 -13     505    1640
   6  -7 -13     169    5631
   6  -7 -12    7491    4279
   6  -7 -12   11740   12253
   6  -7 -11   26819   15334
   6  -7 -11     555    7805
   6  -7 -10   24406   15743
   6  -7 -10     554   10507
   6  -7  -9   31780   15247
   6  -7  -9     333    7636
   6  -7  -8   33075   22728
   6  -7  -8   90883   21309
   6  -7  -7   30438   14599
   6  -7  -7   34990   21230
   6  -7  -6   12355   19009
   6  -7  -6   57006   16604
   6  -7  -5  101324   22657
   6  -7  -4     299    9539
   6  -7  -4     299   13835
   6  -7  -3   41686   20540
   6  -7  -2    4603    8026
   6  -7  -1   43752   19863
   6  -7   0   22678   15511
   6  -7   1  130055   35772
   6  -7   2   92784   31060
   6  -7   3   51039   23631
   6  -7   4   45634   24530
   6  -7   4   22658   11260
   6  -7   4   36431   18145
   6  -7   5   51945   23240
   6  -7   5   30505   18743
   6  -7   5   31380   11644
   6  -7   5   23983   11772
   6  -7   6   14881    8887
   6  -7   6    4871    6051
   6  -7   7      76   10472
   6  -7   7    3900   10156
   6  -7   7    2519    2768
   6  -7   8    2430    6832
   6  -7   8   23032   13522
   6  -7   9    2684    3679
   6  -7  10    1879    4971
   6  -7  11    1671    3298
   6  -7  12     126    2541
   6  -7  13     540    1921
  -6   7 -14      31    1407
   6  -6 -13     353   10420
   6  -6 -12    4310    5232
   6  -6 -12    1572    9238
   6  -6 -12    1075    3194
   6  -6 -11   25068   14493
   6  -6 -11   15642   15784
   6  -6 -10    5247   12175
   6  -6 -10     295   11201
   6  -6  -9   30384   13777
   6  -6  -9     188   12359
   6  -6  -8   23615   13976
   6  -6  -8    8224   13769
   6  -6  -7    4643   11292
   6  -6  -7    5194    9821
   6  -6  -6   26066   17376
   6  -6  -6   11248    5743
   6  -6  -5     154    9269
   6  -6  -5   17151   11206
   6  -6  -4   33737   14526
   6  -6  -3    4207    9576
   6  -6  -2   70022   24597
   6  -6  -1   31759   16879
   6  -6   0   13727    8012
   6  -6   1  114414   29644
   6  -6   2    1053    9879
   6  -6   3  146766   31524
   6  -6   3  173140   42671
   6  -6   4   20097   17664
   6  -6   4   23075   11500
   6  -6   5  100024   31508
   6  -6   5  107189   33845
   6  -6   6    2995    5116
   6  -6   6   10108    7137
   6  -6   6    3859    5298
   6  -6   6      54    8642
   6  -6   7    5792    7309
   6  -6   7    4062    8695
   6  -6   7   12173    9293
   6  -6   8   24779   12024
   6  -6   8   19000   16863
   6  -6   8   24003   12731
   6  -6   9   17791   10789
   6  -6   9    4562    7143
   6  -6  10    8899   10174
   6  -6  10    9397   11804
   6  -6  11      56    5497
   6  -6  12    6184    6051
   6  -6  13      24    1987
   6  -6  14    1504    1873
   6  -5 -13     895    4997
   6  -5 -13    5449    5195
   6  -5 -12    9319    7203
   6  -5 -12    2502    3810
   6  -5 -12   15568   13010
   6  -5 -11    8463    7069
   6  -5 -11    8450   10833
   6  -5 -11    1463    8872
   6  -5 -10    8372   10091
   6  -5 -10    2526    7910
   6  -5  -9    3743   12501
   6  -5  -9   42364   16480
   6  -5  -8    4175    9710
   6  -5  -8    5721    8379
   6  -5  -7   22550   15753
   6  -5  -7   25187   16989
   6  -5  -7   46109   14733
   6  -5  -6     134    6157
   6  -5  -6    5638    9032
   6  -5  -5   27977   19324
   6  -5  -5   22300   17148
   6  -5  -5   51431   15133
   6  -5  -4   47498   20832
   6  -5  -4   35289   17522
   6  -5  -3    2591    4603
   6  -5  -3   25499   15525
   6  -5  -2   90228   24910
   6  -5  -1   11537   12960
   6  -5   0   30798   16147
   6  -5   1    3193    4774
   6  -5   2  146668   35339
   6  -5   3   32373   14617
   6  -5   3   33124   11935
   6  -5   4   60664   22656
   6  -5   4   41005   15049
   6  -5   5   29818   15291
   6  -5   5   32558   18883
   6  -5   6   96049   27963
   6  -5   6   58574   23960
   6  -5   7   87109   33848
   6  -5   7   85199   20070
   6  -5   7   44481   22078
   6  -5   8      43    5241
   6  -5   8    5829   12262
   6  -5   8    7979    9151
   6  -5   9  108157   26584
   6  -5   9   71246   37765
   6  -5   9  126437   27657
   6  -5  10     165   11989
   6  -5  10    6576    8089
   6  -5  11   37670   15662
   6  -5  11   14127   12116
   6  -5  12      32    5527
   6  -5  12    2165    6951
   6  -5  13    2670    3804
   6  -5  14    5073    4111
   6  -5  15    1164    1826
   6  -4 -13     515    6680
   6  -4 -13    1108    5206
   6  -4 -12    6866    7682
   6  -4 -12     402    9322
   6  -4 -11     580    4880
   6  -4 -11     359   12987
   6  -4 -10    1978    9229
   6  -4 -10   14393   12309
   6  -4  -9     670   11242
   6  -4  -9    1015    7532
   6  -4  -8   43718   20085
   6  -4  -8   35566   13439
   6  -4  -7   10996   12053
   6  -4  -7   32712   13392
   6  -4  -7   13172   13435
   6  -4  -6   11965   13467
   6  -4  -6    8606   13013
   6  -4  -6   25718   11628
   6  -4  -5   91048   28555
   6  -4  -4     152    7270
   6  -4  -4    3005    7304
   6  -4  -3  100319   28102
   6  -4  -3   69639   23816
   6  -4  -2    1770    6916
   6  -4  -2     190    4942
   6  -4  -1   63027   20621
   6  -4   0    3499    5715
   6  -4   1  117476   28234
   6  -4   2  153733   31279
   6  -4   3   22406    9685
   6  -4   3   32626   14238
   6  -4   4   93116   27507
   6  -4   4   74474   20856
   6  -4   5      47   10070
   6  -4   6   76876   25509
   6  -4   6   64158   26208
   6  -4   7   42102   20767
   6  -4   8   48952   25870
   6  -4   8   55700   16649
   6  -4   8   22235   16720
   6  -4   9   64696   19756
   6  -4   9   30860   21643
   6  -4   9    7446   12430
   6  -4  10   33038   15098
   6  -4  10   24986   15888
   6  -4  10   17772   16040
   6  -4  11   61823   19644
   6  -4  11   35581   16563
   6  -4  12      37    5799
   6  -4  12     955    8266
   6  -4  13    6725    7614
   6  -4  13   21508   11206
   6  -4  14    6234    5542
   6  -4  15    1715    3353
   6  -3 -13     195    9022
   6  -3 -13   10665    7051
   6  -3 -12    5997    7146
   6  -3 -12    1103   11993
   6  -3 -11    2580    5388
   6  -3 -11    1495   13599
   6  -3 -11    1534    3210
   6  -3 -10    3915    6870
   6  -3 -10   14087   11754
   6  -3 -10    4416   12419
   6  -3  -9    8416   15225
   6  -3  -9     963    8040
   6  -3  -8    3357    6666
   6  -3  -8   12460   13357
   6  -3  -7     862    4448
   6  -3  -7   10773    8865
   6  -3  -6   18591   14948
   6  -3  -6    6598    7759
   6  -3  -6   12192   10100
   6  -3  -5    1208    5034
   6  -3  -4   68588   24333
   6  -3  -4   86249   27404
   6  -3  -3   22878   13446
   6  -3  -3   22996   12330
   6  -3  -2  139288   32413
   6  -3  -2   98720   25929
   6  -3  -1  111887   27805
   6  -3   0   16487   10785
   6  -3   1  181363   32663
   6  -3   2    7163    8567
   6  -3   3  355382   49126
   6  -3   4   29791   14600
   6  -3   5   79727   24718
   6  -3   5   66502   21836
   6  -3   6  122425   26947
   6  -3   6  131457   31489
   6  -3   7   17768    8295
   6  -3   7   21765   13189
   6  -3   8   82666   33963
   6  -3   9    9266   14471
   6  -3   9   13302   10296
   6  -3   9    1334    8997
   6  -3  10   68784   19863
   6  -3  10   60499   27196
   6  -3  10   89903   22263
   6  -3  11   22050   13562
   6  -3  11     817    7801
   6  -3  12   26916   14271
   6  -3  12   21332   10664
   6  -3  13     134    7914
   6  -3  13    8531    9988
   6  -3  14     151    5383
   6  -3  14    5367    9807
   6  -3  15    4866    4388
   6  -3  16      32    1616
   6  -2 -13      31    7674
   6  -2 -13    2036    7260
   6  -2 -13    6585    8486
   6  -2 -12    6157    6573
   6  -2 -12     985    7151
   6  -2 -11    7887    7043
   6  -2 -11   17031   14931
   6  -2 -10   10967    9993
   6  -2 -10    1208   10029
   6  -2  -9   16095   15430
   6  -2  -8     281    3827
   6  -2  -8    2327    8032
   6  -2  -7    8782   13815
   6  -2  -7   11036   11743
   6  -2  -7   15575    9804
   6  -2  -6    1366    4662
   6  -2  -6     331    4642
   6  -2  -5   14929   10867
   6  -2  -4   40976   18579
   6  -2  -4   34118   16250
   6  -2  -3   37638   16037
   6  -2  -3   51747   19419
   6  -2  -3   38250   13410
   6  -2  -2   60865   21249
   6  -2  -2   81322   27737
   6  -2  -2   37299   16217
   6  -2  -1    2362    4958
   6  -2  -1     812    3942
   6  -2   0  397637   48190
   6  -2   1   49088   19668
   6  -2   2  407033   51276
   6  -2   3  430753   50257
   6  -2   4   64710   20398
   6  -2   4   49561   15356
   6  -2   5   92211   22802
   6  -2   5   84884   21993
   6  -2   6     240    4290
   6  -2   6     393    4544
   6  -2   7  161893   39921
   6  -2   7  111689   26336
   6  -2   8   34973   17183
   6  -2   9   49632   22763
   6  -2  10    5609    8202
   6  -2  10    8359   12754
   6  -2  10    8603    8666
   6  -2  10    4035    3815
   6  -2  11   21702   12673
   6  -2  11    1049   10357
   6  -2  11    6982    9228
   6  -2  11     566    3849
   6  -2  12   12248    9662
   6  -2  12     613    5156
   6  -2  13     609    5366
   6  -2  13    1595    5909
   6  -2  14     454    6050
   6  -2  14    1041    7570
   6  -2  15    5396    6420
   6  -2  15     196    4544
   6  -2  16    7534    4449
   6  -1 -13    2616    8838
   6  -1 -12     114    9765
   6  -1 -12    5361   10948
   6  -1 -11   16409   10444
   6  -1 -11     372    8454
   6  -1 -10   10334    8398
   6  -1 -10   16365   15830
   6  -1  -9   16174   10228
   6  -1  -9    1022   11098
   6  -1  -8   12056    9018
   6  -1  -8   10048   16379
   6  -1  -7   23761   16424
   6  -1  -7   36831   16556
   6  -1  -6      92    9851
   6  -1  -5   31212   17501
   6  -1  -4    4081    8760
   6  -1  -4    1430    7615
   6  -1  -4    3321    9364
   6  -1  -3   37691   18979
   6  -1  -3   51922   21902
   6  -1  -3   68887   25895
   6  -1  -2   39221   14868
   6  -1  -2   30954   12027
   6  -1  -2   26330   13852
   6  -1  -1   17318    8609
   6  -1  -1   10563    4827
   6  -1   0   82963   24550
   6  -1   0   64225   23499
   6  -1   1   41630   18494
   6  -1   1   39409   18975
   6  -1   2  237589   34779
   6  -1   2  161435   16478
   6  -1   3   46484   11317
   6  -1   3   70158   18448
   6  -1   4   27845   11465
   6  -1   4   26526   11853
   6  -1   5    7645    4920
   6  -1   5   12709    9511
   6  -1   6  144261   28973
   6  -1   6  180568   34644
   6  -1   7   21840   12688
   6  -1   7   22977    9649
   6  -1   8   29176   17978
   6  -1   9   37092   21616
   6  -1  10   47072   15399
   6  -1  10   41947   24303
   6  -1  10   23790   18239
   6  -1  10   58023   18407
   6  -1  10   52095   16786
   6  -1  11   97389   23023
   6  -1  11   69062   19097
   6  -1  11  126132   24416
   6  -1  11   46116   26107
   6  -1  11   46089   23115
   6  -1  12      18    5589
   6  -1  12     522    7908
   6  -1  12     522    6325
   6  -1  13   70180   21824
   6  -1  13   40690   17897
   6  -1  13   32991   17178
   6  -1  14      19    5054
   6  -1  14     250    6376
   6  -1  15    3018    6279
   6  -1  15    2356    4137
   6  -1  16    5952    6117
   6   0 -13    2080    8088
   6   0 -12      64    5993
   6   0 -12    1006   13826
   6   0 -12    5584    8670
   6   0 -11     174    9193
   6   0 -11     174    8850
   6   0 -10   20798   11036
   6   0 -10    4101    7084
   6   0  -9   10184    9258
   6   0  -9   21400   19061
   6   0  -8   20570    9298
   6   0  -8   27548   19048
   6   0  -7    2297    5419
   6   0  -7     331   11350
   6   0  -7    3942   12481
   6   0  -6   24429   15601
   6   0  -6   15961   16535
   6   0  -5   11897   12328
   6   0  -4   40636   20737
   6   0  -4   71900   28309
   6   0  -3   41250   16911
   6   0  -3   32209   15609
   6   0  -3   32132   14600
   6   0  -2    8371    6561
   6   0  -2    1812    5300
   6   0  -2     871    4068
   6   0  -1   51414   22378
   6   0  -1   57266   22503
   6   0   0   17429   15110
   6   0   0    8338   12740
   6   0   1  419818   47091
   6   0   1  411539   46085
   6   0   2   42251   17446
   6   0   2   47504   19143
   6   0   3  508281   54264
   6   0   3  391668   32485
   6   0   4   97057   22672
   6   0   4   82596   17842
   6   0   5   28294   11133
   6   0   5   27987   12241
   6   0   6   60055   19024
   6   0   6   52856   16673
   6   0   7    8688    7517
   6   0   7   11099    6138
   6   0   8   49430   22417
   6   0   9    3864    7472
   6   0  10   82006   33786
   6   0  11   15066   10206
   6   0  11   43847   15324
   6   0  11   16924   18578
   6   0  12   19415   12513
   6   0  12   25171   14302
   6   0  12   30217   23365
   6   0  12   29599   14559
   6   0  13   49507   15427
   6   0  13   11956   16356
   6   0  14   24999   10182
   6   0  14    9441    6759
   6   0  15    9776    8397
   6   0  15    8761   12573
   6   0  16     198    7924
   6   0  16    1573    6716
   6   0  17   11730    6158
   6   1 -12    2163    9510
   6   1 -11      91   12296
   6   1 -11     308   10405
   6   1 -11    8305   13708
   6   1 -10      65    5817
   6   1 -10   15035   14477
   6   1  -9     270    3971
   6   1  -9     270   14286
   6   1  -8    7518    9193
   6   1  -8    1723   12437
   6   1  -7    7953    8240
   6   1  -7     266    5519
   6   1  -7    2803    7901
   6   1  -6   18214    9481
   6   1  -6     100    8710
   6   1  -6   13852   11939
   6   1  -5   20222   17644
   6   1  -5    8851    9849
   6   1  -4    2809    5855
   6   1  -4   11117    5853
   6   1  -3   11824   10339
   6   1  -3   16384    7223
   6   1  -3    7629    3194
   6   1  -2   84578   27721
   6   1  -2   77686   26139
   6   1  -1     193    4870
   6   1  -1    1077    6633
   6   1   0  269076   40895
   6   1   0  268614   40578
   6   1   1  305989   47600
   6   1   1  283476   44056
   6   1   2  380655   51541
   6   1   2  328072   45173
   6   1   3  443950   52094
   6   1   3  476161   49874
   6   1   3  323107   26986
   6   1   4   12934    7774
   6   1   4   14195   11572
   6   1   4   23298   11684
   6   1   5  376541   43310
   6   1   5  364339   41438
   6   1   6   18195   10263
   6   1   6   12912    8588
   6   1   7  500028   58164
   6   1   7  405448   44518
   6   1   8   44746   22801
   6   1   9   63970   28368
   6   1  10   49598   26429
   6   1  11   12773   15079
   6   1  11     121    9333
   6   1  11   23950   11320
   6   1  12   36005   15142
   6   1  12   57338   17815
   6   1  12   26723   23284
   6   1  13   19944   13776
   6   1  13   24389   14213
   6   1  13    2497    6890
   6   1  14   17477   11984
   6   1  14   34149   16209
   6   1  14   18557   18859
   6   1  15    8817    7589
   6   1  15   13614    7818
   6   1  15     683    8037
   6   1  16    7930    5030
   6   1  16   19949    9228
   6   1  17    2942    5890
   6   2 -12      77    6769
   6   2 -11     366    8930
   6   2 -10       4    9660
   6   2 -10    1691    7831
   6   2 -10       4   10021
   6   2  -9     186   11310
   6   2  -9     186    9593
   6   2  -8   16497   12299
   6   2  -8   13039   15832
   6   2  -7   19701   10655
   6   2  -7   15775   12506
   6   2  -6      34    5692
   6   2  -6      34    5299
   6   2  -6    2975   10672
   6   2  -5   39070   22045
   6   2  -5   18398   15826
   6   2  -4    7242   10707
   6   2  -4    5399    8454
   6   2  -3   17562   13771
   6   2  -3   17928   13166
   6   2  -2     423    5978
   6   2  -2    3487    4865
   6   2  -1   13482   10172
   6   2  -1   18959   10771
   6   2   0    2586    5528
   6   2   0    3210    6116
   6   2   1    1224    5111
   6   2   1     148    3509
   6   2   2  136229   29125
   6   2   2  122288   25056
   6   2   3    4015    5068
  -6  -2  -3     195    2434
   6   2   3     195    5870
   6   2   3     195    7200
   6   2   4   75866   17491
   6   2   4   94192   23368
   6   2   4  103244   25622
   6   2   5   31910   12996
   6   2   5   39222   15802
   6   2   6   45636   15679
   6   2   6   50435   16480
   6   2   7   94942   22475
   6   2   7  110292   29621
   6   2   8     229    6228
   6   2   8     206    4287
   6   2   9   61001   23432
   6   2  10    6604   13077
   6   2  11   11413   14158
   6   2  11   27447   13120
   6   2  12   14211   10587
   6   2  12   20097   19509
   6   2  12   58157   18257
   6   2  13     180    5788
   6   2  13   21628   13192
   6   2  14   20127    9796
   6   2  14   16669   10571
   6   2  15   23434   11113
   6   2  15   17241    8700
   6   2  16   42433   13014
   6   2  16   14125    6856
   6   2  16   21529   13794
   6   2  17      36    2749
   6   2  18    4496    3298
   6   3 -12    2006    5559
   6   3 -11    3866   11320
   6   3 -10     713   14999
   6   3  -9     208   12301
   6   3  -9     208   10577
   6   3  -9     208    7439
   6   3  -8     208   14380
   6   3  -8    6205   10198
   6   3  -7      18   12426
   6   3  -7      18    6826
   6   3  -6   28186   13168
   6   3  -6   20414   10236
   6   3  -6   12669    9648
   6   3  -5   21020   12108
   6   3  -5    1356   11330
   6   3  -4    6992   10008
   6   3  -3    4420   10790
   6   3  -2    5202    8064
   6   3  -2      90    5963
   6   3  -1      13    5009
   6   3  -1      13    5052
   6   3   0   20041   13586
   6   3   0   22094   13999
   6   3   1    2894    7412
   6   3   1    7006    6545
   6   3   2   29146   13312
  -6  -3  -2   35350   10286
   6   3   2   17935    8668
   6   3   3     262    5404
   6   3   3      53    5419
  -6  -3  -3   13213    9499
   6   3   3     361    2505
   6   3   4    7299    6850
   6   3   4   13395    8432
   6   3   4   14582   11055
   6   3   5    2600    4120
   6   3   5    4375    6321
   6   3   5    3766    6857
   6   3   6     919    4259
   6   3   6      72    3124
   6   3   7   15391   13103
   6   3   7   14638    8297
   6   3   8   22562   14894
   6   3   8   26499   12822
   6   3   9   10829    4375
   6   3  10   22843   17668
   6   3  11     126   12151
   6   3  12    8715   10664
   6   3  12   23247   12644
   6   3  13   18189   10946
   6   3  13   32020   13737
   6   3  14     640    6624
   6   3  14     238    7224
   6   3  15    9248    7524
   6   3  15   37151   14928
   6   3  16      64    9877
   6   3  16      64    8709
   6   3  17    5811    4909
   6   3  17      32    3728
   6   3  18    3404    3830
   6   4 -11      67    8043
   6   4 -10      43   11768
   6   4  -9     310    9549
   6   4  -8     326   16389
   6   4  -8    1906   10876
   6   4  -7      87   15873
   6   4  -7    2049   27587
   6   4  -7    6376   10611
   6   4  -6      82   10729
   6   4  -6      82    5229
   6   4  -6    1714    4896
   6   4  -6    1970    9553
   6   4  -5     207    7641
   6   4  -5     260    4653
   6   4  -4    8759   13841
   6   4  -3    4211    5712
   6   4  -2    9535    6646
   6   4  -1    1733    7273
   6   4   0  113477   31463
   6   4   0   99371   28685
   6   4   1   47057   19720
  -6  -4  -1   49417   14595
   6   4   1   60646   21425
   6   4   2     220    5866
  -6  -4  -2     784    2404
   6   4   2     220    5233
   6   4   3   10398    8750
  -6  -4  -3    7664    5992
   6   4   3    6776    7931
  -6  -4  -4   11030    8154
   6   4   4    7324    6665
   6   4   4   18306    9955
   6   4   4   11261    9071
   6   4   5     167    5333
   6   4   5    1303    3899
   6   4   5    6588    9377
   6   4   6    7496    5232
   6   4   6    2175    7031
   6   4   6    4872    6311
   6   4   7   67050   23400
   6   4   8   33872   18083
   6   4   9   70267   27155
   6   4  10   19606   16861
   6   4  11    3224    7049
   6   4  11    4336   10939
   6   4  11      73    3973
   6   4  12      43    8174
   6   4  12    4524   10122
   6   4  13     227    5710
   6   4  14     399    9551
   6   4  14     156    6156
   6   4  15     360    4369
   6   4  15    4724    8131
   6   4  16    6067    6536
   6   4  17   16319    7686
   6   4  17     896    4753
   6   4  18    1545    3318
   6   5 -11     478    4162
   6   5 -10    4290    8717
   6   5  -9      51    8150
   6   5  -8   10969   16074
   6   5  -7   13616   26934
   6   5  -6    7866    7230
   6   5  -6    2432   26295
   6   5  -5     176    6278
   6   5  -5    6599    9034
   6   5  -5    2942   22879
   6   5  -4     863    7365
   6   5  -4    3047    4330
   6   5  -4     227    9196
   6   5  -3   16664   12308
   6   5  -2    1050    4670
   6   5  -1    7709   11346
   6   5   0   27165   15402
   6   5   1   35292   18469
  -6  -5  -1   41563   14922
   6   5   2  159122   37679
  -6  -5  -2  183578   32692
   6   5   3    5355    8614
  -6  -5  -3      65    4939
   6   5   4   84425   26943
  -6  -5  -4   79854   20508
  -6  -5  -5    9059    7272
   6   5   5   14455    6930
   6   5   5   23511   13732
   6   5   6      22    5217
   6   5   6    4448    6507
   6   5   7   33342   17440
   6   5   8   11717   11912
   6   5   9   30624   17882
   6   5  10     106    5990
   6   5  11   12842   10672
   6   5  11   27711   24542
   6   5  11    9702    9636
   6   5  12    1445    8343
   6   5  12      53   16252
   6   5  13   33320   15711
   6   5  14   10463    8221
   6   5  15    2778    6058
   6   5  15    4978    8821
   6   5  16    1066    6082
   6   5  17    4474    6113
   6   5  17    1109    4954
   6   5  18    2271    1889
   6   6 -10     991   10116
   6   6  -9    1099    7714
   6   6  -8     119   17074
   6   6  -7     874    4548
   6   6  -7    1870   18153
   6   6  -6    4159    4985
   6   6  -6    2969   22611
   6   6  -5    1899    3429
   6   6  -5     174   10182
   6   6  -4    3271   13128
   6   6  -4   15704    9904
   6   6  -4   27807   21344
   6   6  -3    7700   10468
   6   6  -3   23544   13779
   6   6  -3   40962   29087
   6   6  -2     141    9774
   6   6  -1    3747    9745
   6   6   0    3773    7524
  -6  -6   0    5729    9743
   6   6   1   88049   31126
  -6  -6  -1  108769   29402
   6   6   2   87019   28867
  -6  -6  -2  111065   27588
   6   6   3   47721   20659
  -6  -6  -3   56977   18880
   6   6   4  128254   33137
  -6  -6  -4  148567   32028
  -6  -6  -5    9851    8038
   6   6   5   13767   10752
   6   6   6  111064   28493
  -6  -6  -6  128078   31916
   6   6   6  130161   32352
   6   6   7   32413   16798
   6   6   8    7693    8081
   6   6   9    3598    7524
   6   6  10   16987   13861
   6   6  10   17879   15724
   6   6  10   11065    7066
   6   6  11    1577    7607
   6   6  11   12683   26460
   6   6  11    5234   11140
   6   6  11     287    4423
   6   6  12    1076    4763
   6   6  12     176   10050
   6   6  12    9273    7489
   6   6  13   19407    9845
   6   6  13   26142   13036
   6   6  14   27449   12581
   6   6  15    7122    9116
   6   6  16    3522    7232
   6   6  17    2140    4012
   6   6  18    4968    3749
   6   6  18     519    4327
   6   7  -9      84    6264
   6   7  -8     139   10125
   6   7  -7     196    5392
   6   7  -7    1930   17036
   6   7  -6    7965    8029
   6   7  -6     526   15176
   6   7  -5     144    4470
   6   7  -5     144   14050
   6   7  -4    3620    6223
   6   7  -4     377   16561
   6   7  -3     160    6623
   6   7  -3     160    6603
   6   7  -3     453   15097
   6   7  -2    4133    6038
   6   7  -2    7555    5948
   6   7  -2   15556   15391
   6   7  -1    5332    9756
  -6  -7   0   57900   26006
   6   7   0   19043   17730
   6   7   1   83002   30025
  -6  -7  -1  113252   32147
   6   7   2    3945    6186
  -6  -7  -2    3082    4450
   6   7   3   37004   20209
  -6  -7  -3   34280   18148
   6   7   4   13169   14427
  -6  -7  -4    4858    4408
   6   7   5   11432   10624
  -6  -7  -5     994    3183
  -6  -7  -6   16317    9904
   6   7   6    5332    5748
   6   7   7   32917   16251
  -6  -7  -7   32662   17002
   6   7   7   19353   12163
  -6  -7  -8   13068   13302
   6   7   8    3219   11798
   6   7   9     102    5489
   6   7  10   51717   18026
   6   7  10   34246    9196
   6   7  10   49427   28133
   6   7  10   62513   30978
   6   7  10   49343   16288
   6   7  11   42903   15762
   6   7  11   32511   27292
   6   7  11   20070   19661
   6   7  11   18999   10328
   6   7  12      91    7954
   6   7  12      91    6264
   6   7  12      91   14429
   6   7  13   10848    8218
   6   7  14   11265   13164
   6   7  14   23032   12880
   6   7  15   16497    9621
   6   7  16     247    7991
   6   7  16   16596    8358
   6   7  17   18348    8285
   6   7  18     205    3516
   6   7  18     205    4762
   6   8  -9       1    1731
   6   8  -8       1    8452
   6   8  -7       4    5490
   6   8  -7    8492   13632
   6   8  -6      38    4545
   6   8  -6      38    9676
   6   8  -5    9766    7995
   6   8  -5    8324    8826
   6   8  -4    2546    5139
   6   8  -4     131   11449
   6   8  -3   12727    5146
   6   8  -3    4185   15387
   6   8  -2     624    5511
   6   8  -2    5182    7862
   6   8  -2    6285   14994
   6   8  -1     276    7379
   6   8  -1     276    6372
   6   8  -1     290    8976
   6   8   0    5574   12555
   6   8   0   22675    8449
   6   8   0    3002    4960
   6   8   1      63   10341
  -6  -8  -1      63    8197
   6   8   2   27501   19670
  -6  -8  -2   36442   20027
   6   8   3    8843    8969
  -6  -8  -3   13051   12722
   6   8   4   17792   15076
  -6  -8  -4   35929   16930
   6   8   5       6    8025
  -6  -8  -5       6    5695
  -6  -8  -6   26781   17568
   6   8   6   16036   10911
  -6  -8  -7   58372   26758
  -6  -8  -8    4214    5512
   6   8   9   35237   21452
   6   8   9   23715   10078
   6   8   9   36956   19549
  -6  -8  -9   38367   21978
   6   8   9   43739   13941
   6   8  10   11714    8663
   6   8  10   25476   23437
   6   8  10    5149    3887
   6   8  10    7785   11801
  -6  -8 -10   11414    5209
   6   8  10   14026    8781
   6   8  11   34690   14326
  -6  -8 -11    1366    6724
  -6  -8 -11    9234   17675
   6   8  11    7511   17615
   6   8  11   19588   10274
   6   8  11    7568    8955
   6   8  12   38879   17946
  -6  -8 -12    8329    8154
   6   8  12   26928   12855
  -6  -8 -13      15    3191
   6   8  13   11108    6218
   6   8  13   12058    8245
   6   8  14    7564    8056
   6   8  14   16670    8965
   6   8  15     314    6514
   6   8  16     171    6505
   6   8  16   12396    8134
   6   8  17    7965    5123
   6   8  18      12    2393
   6   8  18      12    3358
   6   9  -8      29    2447
   6   9  -7      73    9194
   6   9  -6      21    2835
   6   9  -6     121    6468
   6   9  -5     887    6431
   6   9  -5     564   11443
   6   9  -4    4022    7470
   6   9  -4     760   12360
   6   9  -3    2882    5439
   6   9  -3     229   11498
   6   9  -2     263    3443
   6   9  -2    3381   13429
   6   9  -1     212    9268
   6   9  -1     212    3614
   6   9  -1    1771   15636
   6   9   0    4313    8036
   6   9   0   18764    9902
   6   9   0    8396   17839
   6   9   1    7536    9759
   6   9   1    1416    5384
   6   9   1    4686   13716
  -6  -9  -1   10050   12208
   6   9   2    9987   14366
   6   9   2     319    3238
  -6  -9  -2     127   10982
   6   9   3   10902    9381
   6   9   3    4914    8533
  -6  -9  -3   12468   12333
   6   9   4     185    9024
  -6  -9  -4    8744   12375
   6   9   5      29   10065
  -6  -9  -5    5352    7530
   6   9   6   61831   17616
  -6  -9  -6   66921   30154
   6   9   7    6628    9901
  -6  -9  -7     301    4269
   6   9   8   11056    6607
  -6  -9  -8    9370   13296
   6   9   8   21586    9577
   6   9   9    3604    5810
   6   9   9     210    6280
  -6  -9  -9     210    4805
   6   9   9    9676    8215
   6   9  10   28610   14257
   6   9  10   13400    7541
   6   9  10   13049   17068
  -6  -9 -10   14157   15945
   6   9  10   18284   10363
   6   9  11   23286   13619
   6   9  11   10012    5873
   6   9  11    9990   14314
   6   9  11   11865    9649
   6   9  12    6624   10687
  -6  -9 -12     203    6608
   6   9  12    4218    7610
   6   9  13   12283    9440
  -6  -9 -13      86    6431
  -6  -9 -13    4017    5507
   6   9  13   19437    9160
   6   9  14    4428    6605
   6   9  14     148    6961
  -6  -9 -14     148    3530
   6   9  15   10333    7239
   6   9  16    1615    3641
   6   9  17    1136    3361
   6  10  -7    1458    3228
   6  10  -6     207    8026
  -6 -10   6    8825    4875
   6  10  -5    3110    6425
   6  10  -5       1    6856
   6  10  -4    2552    6880
   6  10  -4   17330   16118
   6  10  -3     203    5009
   6  10  -3    2631    9956
   6  10  -2    1282    5067
   6  10  -2    4887   16080
   6  10  -1    3710   13338
   6  10  -1    1857    6362
   6  10   0    7983    7268
   6  10   1      94    5882
   6  10   1    1832    3893
   6  10   2   31758   16645
   6  10   2   10412    5883
   6  10   2     182   10729
  -6 -10  -2   24342   19275
   6  10   3    6393    4358
   6  10   3     295    2924
  -6 -10  -3    9693   13158
   6  10   4    2210    5635
   6  10   4     262    2931
  -6 -10  -4     262   10357
   6  10   5    8827   12320
  -6 -10  -5    8202   14447
   6  10   6     169    5789
  -6 -10  -6   13404   17078
   6  10   6     169    5953
  -6 -10  -7   26059   19024
   6  10   7   22138   12399
   6  10   8     401    4449
  -6 -10  -8     505   15797
   6  10   8     637    3564
   6  10   9   22519    9493
   6  10   9   20275   18748
   6  10   9   42960   15220
  -6 -10  -9   27117   21192
   6  10  10    4674    5833
   6  10  10    4291    7187
   6  10  11     530    5356
   6  10  11     530    4530
   6  10  11     198    3932
   6  10  12    1908    7603
  -6 -10 -12     968    9442
   6  10  12    2566    7575
   6  10  13     312    5246
  -6 -10 -13     874    7672
  -6 -10 -13     939    9179
   6  10  13    3693    4706
   6  10  14    6525    5705
  -6 -10 -14     126    5970
  -6 -10 -14     126    3962
   6  10  14   11390    8475
   6  10  15    4371    5348
   6  10  15   15927    8331
   6  10  17    2385    3185
  -6 -11   6      78    1973
   6  11  -6    1359    4326
  -6 -11   5    9971    6466
   6  11  -4      88    3325
   6  11  -3    2296    5579
   6  11  -2    5145    5983
   6  11  -1   10022    9344
   6  11   0   22161   11211
   6  11   1     342    8680
   6  11   1   13049    7603
   6  11   2   39758   19192
   6  11   2   30251   12740
   6  11   3    3183    5766
   6  11   3    7651    6713
   6  11   4    3941   10134
   6  11   4    2518    3740
  -6 -11  -4    1808   10191
   6  11   5   11361   11163
   6  11   5     114    8179
  -6 -11  -5     114    5817
   6  11   6     244    7471
  -6 -11  -6   16194   19661
   6  11   6   23148   10807
  -6 -11  -7   15274   17373
   6  11   7   27488   14544
   6  11   8     446    4168
   6  11   8    3480    5450
   6  11   9    7391    5790
   6  11   9    7816    9238
   6  11  10    2793    3530
   6  11  10     803    6629
   6  11  11    2050    7457
   6  11  11    2099    3457
   6  11  11     367    7584
   6  11  12    4045   10408
  -6 -11 -12     509    8554
   6  11  12    1778    6410
   6  11  13     357    4380
  -6 -11 -13     642    4305
  -6 -11 -13    1641    7071
   6  11  13     180    3204
   6  11  14    3861    5355
   6  11  14    4598    4806
  -6 -11 -14     108    3225
  -6 -11 -14    5900    5684
   6  11  15      19    6092
   6  11  15      19    5131
  -6 -11 -15     148    3936
   6  11  17       0    1856
   6  12  -5    5392    5732
  -6 -12   5    8635    4666
   6  12  -4    4403    7795
  -6 -12   4   11645    6701
   6  12  -3    5915    8013
   6  12  -3   13666    8485
   6  12  -2    1952    5205
   6  12  -2    2943    4896
   6  12  -1   14433    9074
   6  12  -1    9345    6051
   6  12   0     395    4434
   6  12   0      30    7418
   6  12   1    8130    5171
   6  12   1       2    4375
   6  12   2    1615    4676
   6  12   2   12329    8774
   6  12   3     176    6571
   6  12   3     176    4931
   6  12   4   19116   11899
   6  12   4    9038    5821
   6  12   5      33    6174
   6  12   5      33    9452
   6  12   6    9536    7724
   6  12   7    4362    6226
   6  12   8    3077    4452
   6  12   8    8143    7725
   6  12   9    4753    6323
   6  12   9   12371    8344
   6  12  10    8326    6380
   6  12  10    7497    6036
   6  12  11    3925    6508
   6  12  11    2473    4013
   6  12  11    9795    7458
   6  12  12     279    4122
   6  12  12     121    5816
  -6 -12 -12      95    4465
   6  12  13   13310    9082
  -6 -12 -13    4175    4118
  -6 -12 -13    1872    4394
   6  12  13    9858    5785
   6  12  14    7799    5011
  -6 -12 -14      49    3672
  -6 -12 -14    3060    5398
   6  12  14   10543    5434
   6  12  15   11948    7005
   6  12  16       8    4076
  -6 -13   4     162    2534
   6  13  -4    4344    5415
  -6 -13   3    9278    6613
   6  13  -3     620    3968
   6  13  -2     268    4928
   6  13  -2    7127    8412
   6  13  -1    2473    6351
   6  13  -1     136    3460
   6  13   0   15478    8581
   6  13   0   25693   13892
   6  13   1   17128   12012
   6  13   1    9662    6670
   6  13   2    6943    5325
   6  13   2   19596   13182
   6  13   3   20175   12236
   6  13   3    9164    5899
   6  13   4     105    8176
   6  13   4     105    5751
   6  13   4    1734    2425
   6  13   5     963    5787
   6  13   6    5120    6670
   6  13   7    7266    6103
   6  13   7    2381    6374
   6  13   8    3916    4051
   6  13   8   13106    9490
   6  13   9    5132    4794
   6  13   9     240    3332
   6  13  10   11599    5945
   6  13  10   14279    8724
   6  13  11    4115    4056
   6  13  11      23    5865
   6  13  11    1752    3784
   6  13  12     757    5250
  -6 -13 -12     555    7301
   6  13  12     668    3783
   6  13  13    1046    6333
  -6 -13 -13     433    4649
  -6 -13 -13    1763    4886
   6  13  14    1616    2855
  -6 -13 -14    1939    4582
  -6 -13 -14      49    2648
  -6 -14   3    4657    3885
   6  14  -3    2169    2829
   6  14  -2    1734    5363
  -6 -14   2    2913    4333
   6  14  -2    1531    2391
   6  14  -1    3010    3311
   6  14  -1     165    3577
   6  14   0     507    1126
   6  14   0   13183    7004
   6  14   1      20    4671
   6  14   1    1157    2475
   6  14   1    1334    6066
   6  14   2    3178    3829
   6  14   2    7641    6998
   6  14   3     149    4275
   6  14   3     149    6890
   6  14   4   11490    8954
   6  14   5   17788   11719
   6  14   6       5    4770
   6  14   6       5    7123
   6  14   7   23179    8959
   6  14   7   13161    6243
   6  14   8    1801    2999
   6  14   8      19    7019
   6  14   9   18260    8200
   6  14   9   19361    9326
   6  14  10   17249   10289
   6  14  10   13756    6436
   6  14  10   15287    6461
  -6 -14 -11    4005    6141
   6  14  11   11491    8538
   6  14  11    4834    5300
   6  14  11   11434    5809
   6  14  12   12275    9093
  -6 -14 -12    5472    8065
  -6 -14 -12    7141    8019
   6  14  12    8652    4469
   6  14  13     233    4957
  -6 -14 -13      44    4531
  -6 -14 -13    5166    6891
  -6 -14 -14     722    2834
   6  14  14    8913    4901
  -6 -15   1    1606    2597
  -6 -15   0    4015    4027
   6  15   0    3453    3578
   6  15   1     758    1642
   6  15   1    1979    4725
   6  15   2     947    1787
   6  15   2    5737    5213
   6  15   3      94    2865
   6  15   3      94    3199
   6  15   4   10292    5688
   6  15   4   12208    8844
   6  15   5     957    3010
   6  15   5      16    4206
   6  15   6   19692    7160
   6  15   6   34488   11457
   6  15   7    7573    6415
   6  15   7    6205    7222
   6  15   8   18463    8417
   6  15   8   22011    9211
   6  15   9   15564    8715
   6  15   9    4385    3361
   6  15   9    8369    5630
   6  15  10    2758    3116
   6  15  10      15    3263
   6  15  10    2554    3686
   6  15  11    8192    7742
  -6 -15 -11    3142    6134
  -6 -15 -11    1363    5334
   6  15  11   10402    5115
   6  15  12      24    2458
  -6 -15 -12     751    2726
  -6 -15 -12    4557    4330
  -6 -15 -13     112    1671
  -6 -15 -13      13    2413
   6  15  13    1399    2114
   6  16   1    3903    2375
  -6 -16  -2     103    2439
   6  16   2    2770    2373
   6  16   2     323    2569
   6  16   3    2065    2425
  -6 -16  -3    3923    2700
   6  16   3      30    3188
   6  16   4      18    1687
   6  16   4    5676    3658
   6  16   5    8910    4426
   6  16   5    6635    5752
   6  16   6       2    2427
   6  16   6    8242    5292
   6  16   7    4792    4134
   6  16   7   10246    5165
   6  16   8    3714    4537
   6  16   8   10087    4190
   6  16   8    7929    5024
   6  16   9    8447    5471
   6  16   9    4586    2238
   6  16   9   13352    4860
   6  16  10    6280    4547
  -6 -16 -10    3416    4930
  -6 -16 -10   12266    7227
   6  16  10    7015    3681
   6  16  11      19    1724
  -6 -16 -11      19    2616
  -6 -16 -11      19    3599
  -6 -16 -12     894    1434
   6  17   5     526    1014
   6  17   5    3819    3111
   6  17   6       9    1441
   6  17   6     956    2069
   6  17   7    5351    2301
  -6 -17  -8    1356    3250
   7 -15  -3      92    1630
   7 -15  -2    1882    3335
   7 -14  -6    7823    6151
   7 -14  -5    1215    3631
   7 -14  -4    3020    5524
   7 -14  -2      10    3879
  -7  14   2      10    2865
  -7  14   1      39    1176
   7 -14  -1    2139    3000
  -7  14   0    1756    2233
   7 -14   0    4343    6369
  -7  14  -1    3389    2426
  -7  14  -2    2777    2579
  -7  14  -3    4997    2902
  -7  14  -4    7138    3453
   7 -14   4   13079    5542
   7 -13  -8      41    2384
   7 -13  -7    1549    4849
   7 -13  -6    4789    7558
   7 -13  -5    1036    5526
  -7  13   3    1778    2773
  -7  13   2   10230    8000
   7 -13  -2   21642   10721
  -7  13   1     372    2612
  -7  13   0     483    2464
  -7  13  -1    8003    5874
  -7  13  -2      55    2067
  -7  13  -3   11554    6029
  -7  13  -4     157    1982
  -7  13  -5     762    1185
  -7  13  -6     193    1204
   7 -12  -9    5773    6151
   7 -12  -8      36    1045
   7 -12  -8     209    4013
   7 -12  -7    9124   10886
   7 -12  -7    2771    2669
   7 -12  -6    3211    9113
   7 -12  -5    8129   11804
  -7  12   3   18619   10168
   7 -12  -3    9560    9083
  -7  12   2   23792   11100
   7 -12  -2   26882   12710
  -7  12   1    5160    5034
  -7  12   0   17499    9704
  -7  12  -1     108    2582
  -7  12  -2    7591    6634
  -7  12  -3    1324    3001
  -7  12  -4    4697    4164
  -7  12  -5    7082    5468
  -7  12  -6    3568    4485
  -7  12  -7    9092    3910
  -7  12  -8     675    1603
   7 -11 -10    3046    5101
   7 -11 -10     526    1674
   7 -11  -9     415    4578
   7 -11  -9     233    1964
   7 -11  -8    4327    3617
   7 -11  -8    1305    7185
   7 -11  -7     384    7244
   7 -11  -7    1450    3132
   7 -11  -6     223    7066
   7 -11  -6    4515    3585
   7 -11  -5    3157    3197
   7 -11  -5      68   14142
  -7  11   4    6880    6239
  -7  11   3   30563   12161
   7 -11  -3   20194   11158
  -7  11   2    3392    6242
  -7  11   1   13128   11305
  -7  11   0    1128    7203
  -7  11  -1   20521   10711
  -7  11  -2   12560    8898
  -7  11  -3   34130   12750
  -7  11  -4   28794   11148
  -7  11  -5     915    3690
  -7  11  -6   14889    7542
  -7  11  -7       4    3024
  -7  11  -8    9508    5294
  -7  11  -9    1742    2339
   7 -10 -11      45    1956
   7 -10 -11    2611    5551
   7 -10 -10    1451    8230
   7 -10 -10    2216    2898
   7 -10  -9     465    2618
   7 -10  -9    3120    8736
   7 -10  -8    1076    7717
   7 -10  -7   10017   13340
   7 -10  -6    5495   12914
  -7  10   4   15048    9683
  -7  10   3     311    6207
   7 -10  -3    7393    9060
  -7  10   2    3061    6400
  -7  10   1    5658    4812
  -7  10   0    6502    7639
  -7  10  -1   26396   12135
  -7  10  -2    6176    7259
  -7  10  -3   51481   15631
  -7  10  -4   45966   13918
   7 -10   4   15586    5398
  -7  10  -5    2882    4336
   7 -10   5    4608    2742
  -7  10  -6   26401   10212
   7 -10   6    6623    4278
  -7  10  -7     380    4507
  -7  10  -8    6503    5467
  -7  10  -9      95    1623
   7 -10   9     444    2456
  -7  10 -10    3475    2946
   7 -10  10    3863    2186
   7  -9 -11    1275    1796
   7  -9 -11    1682    4988
   7  -9 -10    3593    9880
   7  -9 -10     616    2098
   7  -9  -9     496    7205
   7  -9  -8     318    6737
   7  -9  -8     441   10474
   7  -9  -7    2117    9519
   7  -9  -7    2743   10681
   7  -9  -6    7300   12144
   7  -9  -6    1681    9793
   7  -9  -5    7701   12330
  -7   9   4    5685    7134
   7  -9  -4   12477   12118
  -7   9   3   27621   12018
   7  -9  -3   26340   16688
  -7   9   2   30889   12637
   7  -9  -1    6148   15605
  -7   9   1     206    5633
   7  -9   0   42681   23612
  -7   9   0   81110   21137
   7  -9   1     146   10156
  -7   9  -1    4607    6075
  -7   9  -2   16837    9613
  -7   9  -3   20764    8583
   7  -9   3    5245    2925
  -7   9  -4    1181    3635
   7  -9   4    2781    6888
   7  -9   4      79    3540
  -7   9  -5    3717    5140
   7  -9   5     876    3157
  -7   9  -6      12    4059
   7  -9   6     777    3711
  -7   9  -7    7393    6205
   7  -9   7    5144    5580
  -7   9  -8      73    2487
   7  -9   8      73    2897
  -7   9  -9    3229    3420
   7  -9   9    2956    2679
  -7   9 -10    1866    3907
   7  -9  10    2242    3255
  -7   9 -11    2473    2626
  -7   9 -12      19    1329
   7  -8 -12    3321    7180
   7  -8 -11      32    2525
   7  -8 -11       0    8760
   7  -8 -10    9385   12025
   7  -8  -9    2796   11782
   7  -8  -9     777   10085
   7  -8  -8     312    7632
   7  -8  -8     312   13292
   7  -8  -7      33    9327
   7  -8  -7    8299   11490
   7  -8  -6   11663   16117
   7  -8  -6    2262   10202
   7  -8  -5    5273   12220
   7  -8  -5    4571   10816
   7  -8  -4     127   10640
   7  -8  -3   14716   13565
   7  -8  -3   66015   19338
   7  -8  -3   45028   19679
  -7   8   2   11615    7309
   7  -8  -2    6588    8017
  -7   8   1     234    4385
   7  -8  -1      24    5508
   7  -8   0   17504    8529
  -7   8   0   23828   10476
   7  -8   1   10476    3979
  -7   8  -1   15303    9112
   7  -8   2    5502    7514
  -7   8  -2   13989    8991
   7  -8   2   12373    4912
   7  -8   3   20430   18734
  -7   8  -3   10705    7892
   7  -8   3   14126    7383
   7  -8   3   16135   11266
  -7   8  -4   49220   15756
   7  -8   4   52685   17926
   7  -8   4   44102   25431
  -7   8  -5    4424    6955
   7  -8   5     296    5377
  -7   8  -6   19381    8340
   7  -8   6   12835    8842
   7  -8   7    8117    7524
   7  -8   8     141    3976
   7  -8   9    6284    5931
   7  -8  10    1635    4844
  -7   8 -11    6416   13742
   7  -8  11    4666    4594
  -7   8 -12     287    1701
   7  -8  12      37    1094
   7  -8  13      46    1099
   7  -7 -12     440    2522
   7  -7 -12     440    5764
   7  -7 -11    1585    6642
   7  -7 -11    1397    4139
   7  -7 -10    6078   10152
   7  -7  -9    1119   10193
   7  -7  -9    1166   10517
   7  -7  -8     356   10884
   7  -7  -8     356    6662
   7  -7  -7     184   13097
   7  -7  -7    3127    7690
   7  -7  -6   16531   12306
   7  -7  -6   10081   15304
   7  -7  -5   10479    9848
   7  -7  -5      32   15446
   7  -7  -4     113   14051
   7  -7  -4     113   12933
   7  -7  -3    8387   10764
   7  -7  -3     114    9643
   7  -7  -3     114    9550
   7  -7  -2    9491   13019
   7  -7  -2   45643   16650
   7  -7  -1    1826    8757
   7  -7   0     131    5383
   7  -7   1   27608   18195
   7  -7   2      53   12329
   7  -7   2      53    5966
   7  -7   2    1218    4798
  -7   7  -3   41290   13021
   7  -7   3   40106   19570
   7  -7   3   51675   18728
   7  -7   4   11231    7778
  -7   7  -4    7142    6130
   7  -7   4   11123    9037
   7  -7   5   34953   11491
   7  -7   5   24655   15201
   7  -7   5   18295   12630
   7  -7   6     123    3013
   7  -7   6     123    6186
   7  -7   6    3355    7134
   7  -7   7   10501    9452
   7  -7   7   25925   12552
   7  -7   8    3538    5897
   7  -7   8      72    7008
   7  -7   9      42    6163
   7  -7  10    1941    4649
   7  -7  11       7    2270
   7  -7  12    1432    3614
  -7   7 -13    1289    2720
   7  -7  13    1326    2225
   7  -6 -12   21041   22896
   7  -6 -12     111    3304
   7  -6 -11    5818    4207
   7  -6 -11     453    7548
   7  -6 -11     859    3329
   7  -6 -10    9496    5980
   7  -6 -10     572    7384
   7  -6  -9   13002   14965
   7  -6  -9   31092   14748
   7  -6  -8     278    7062
   7  -6  -8     278   10678
   7  -6  -7   30933   16552
   7  -6  -7     159    9157
   7  -6  -6   35809   24600
   7  -6  -6   91855   22092
   7  -6  -5     855    6966
   7  -6  -5    9776   10895
   7  -6  -4   21341   12292
   7  -6  -4   10170   12750
   7  -6  -3    1989    7228
   7  -6  -3    5592    7628
   7  -6  -2   16510   12297
   7  -6  -1    7044    5250
   7  -6   0   17368   14296
   7  -6   1     116    6621
   7  -6   2   54355   21664
   7  -6   3   62612   25676
   7  -6   4      15    2617
   7  -6   4    5222   13696
   7  -6   5   13563    9073
   7  -6   5    5385    5992
   7  -6   6     394    3890
   7  -6   6      32    4486
   7  -6   6      32    4465
   7  -6   6    1247    2735
   7  -6   6    1674    6162
   7  -6   7    8851   10355
   7  -6   7      12    6348
   7  -6   7    5844    8789
   7  -6   7      12    7117
   7  -6   8    1561    4109
   7  -6   8    7544    5548
   7  -6   8      12    7297
   7  -6   9   19021   11667
   7  -6   9   12032   10973
   7  -6   9   37765   15891
   7  -6  10     426    2802
   7  -6  10    1754    3768
   7  -6  11    2801    5217
   7  -6  11   24810   11691
   7  -6  12    1535    4286
   7  -6  13    1013    2568
   7  -6  14    1095    1700
   7  -5 -12     313    7098
   7  -5 -11    8901    5088
   7  -5 -11     321    8381
   7  -5 -11    2291    3161
   7  -5 -10    4481    4660
   7  -5 -10    4107   10214
   7  -5  -9      61    7233
   7  -5  -9   24140   12977
   7  -5  -8    1124    8894
   7  -5  -8    4007    9334
   7  -5  -7      54   11215
   7  -5  -7      54    7106
   7  -5  -6   12150   11847
   7  -5  -6    9069   11244
   7  -5  -5   10501   13345
   7  -5  -5    8741    8246
   7  -5  -4   16354    8289
   7  -5  -4   11392   12301
   7  -5  -3   56491   25131
   7  -5  -2   17724   12662
   7  -5  -1   13612   11244
   7  -5   0    5217    5551
   7  -5   1   10144   11058
   7  -5   2   48715   19985
   7  -5   3   11171   11470
   7  -5   4   90674   30049
   7  -5   5    1501    6830
   7  -5   6   41492   17117
   7  -5   6   52807   24025
   7  -5   6   64104   24955
   7  -5   6  113028   22545
   7  -5   7   60386   16380
   7  -5   7   60682   26324
   7  -5   7   92245   23619
   7  -5   8    8271    8951
   7  -5   8   13269    8840
   7  -5   8   39998   17280
   7  -5   9   71561   21191
   7  -5   9   57515   19388
   7  -5  10    8385    9430
   7  -5  10    1335    4384
   7  -5  11   76587   20158
   7  -5  11   40665   16303
   7  -5  12     410    7076
   7  -5  12     127    6891
   7  -5  13    5247    6735
   7  -5  13   10637    8013
   7  -5  14    2014    3709
   7  -5  15       3    1204
   7  -4 -12    4864    8490
   7  -4 -11    2918    4534
   7  -4 -11    1240    2515
   7  -4 -11    8426   11384
   7  -4 -10    2312    4942
   7  -4 -10    5351   12030
   7  -4  -9    2502    3497
   7  -4  -9   12199   10580
   7  -4  -9   11554   14357
   7  -4  -8      62   11131
   7  -4  -8    8119   11206
   7  -4  -7   14537   10761
   7  -4  -7    7041    9772
   7  -4  -6   15864   16489
   7  -4  -6   25082   15858
   7  -4  -6   54417   15126
   7  -4  -5    6374    8417
   7  -4  -5    1612    9756
   7  -4  -4   31076   18615
   7  -4  -4   56915   16130
   7  -4  -4   27104   18243
   7  -4  -3   22930   13976
   7  -4  -2   20491   13348
   7  -4  -1   30157   16154
   7  -4   0    9088   11141
   7  -4   1   85375   25436
   7  -4   2      26    6212
   7  -4   3  133829   32776
   7  -4   4   58894   22539
   7  -4   5   38424   16970
   7  -4   5   70869   25900
   7  -4   6   28961   15805
   7  -4   6   18880   14650
   7  -4   7    2513    5900
   7  -4   7    3039    8080
   7  -4   8  130138   25578
   7  -4   8  100266   37390
   7  -4   8   62851   27634
   7  -4   9     174    8070
   7  -4   9   13019   10529
   7  -4   9    2989    6700
   7  -4  10   54822   18322
   7  -4  10   18431   16769
   7  -4  11   22537   13331
   7  -4  11     931    8303
   7  -4  12   10849    9697
   7  -4  12    6396    9492
   7  -4  13    3393    6581
   7  -4  13   11991   10442
   7  -4  14      73    4732
   7  -4  15    1504    2903
   7  -3 -12     406    6911
   7  -3 -12    1548    9364
   7  -3 -11    2230    4728
   7  -3 -11    1810   10317
   7  -3 -10    3959    5432
   7  -3 -10    2298    3160
   7  -3 -10    7616   11152
   7  -3  -9    5975    5357
   7  -3  -9    6153   15801
   7  -3  -8   14403   11209
   7  -3  -8    2093   10051
   7  -3  -7    1081    7020
   7  -3  -7    9758    9038
   7  -3  -6    2792   11333
   7  -3  -6     195    5631
   7  -3  -5     152    9187
   7  -3  -5     185    5088
   7  -3  -4     144    7139
   7  -3  -3   10655   10893
   7  -3  -3    6843    9634
   7  -3  -2    7563    9212
   7  -3  -1    7966    9412
   7  -3   0   29670   14521
   7  -3   1    2524    5883
   7  -3   2   51768   19836
   7  -3   3  102806   29391
   7  -3   4   22948   12869
   7  -3   4   13203    8114
   7  -3   5    8307    3834
   7  -3   5   10916    8123
   7  -3   6   36056   17978
   7  -3   6   41177   19397
   7  -3   7   15236   14580
   7  -3   7    9232    8185
   7  -3   8   30426   21266
   7  -3   8   16716    9046
   7  -3   8   11921   12098
   7  -3   9   18521   10413
   7  -3   9   12445   14968
   7  -3   9   11067   10257
   7  -3  10   17087   11794
   7  -3  10    2652    9599
   7  -3  10     849    4565
   7  -3  11   23461   13616
   7  -3  11    3004    9981
   7  -3  12   23307   13011
   7  -3  12    2830   10096
   7  -3  13   11163    9997
   7  -3  13     684    7810
   7  -3  14    8089    6687
   7  -3  14    9053    9465
   7  -3  15    2699    4102
   7  -3  16    2515    3521
   7  -2 -12    6705    8128
   7  -2 -11    5412    5488
   7  -2 -11    3261   11831
   7  -2 -10   10121    6897
   7  -2 -10   14459   12224
   7  -2  -9     360    4139
   7  -2  -9    9514    9963
   7  -2  -9    1133    2814
   7  -2  -8   11020    7080
   7  -2  -8    4871    7870
   7  -2  -7    2998    4821
   7  -2  -7    2465    9124
   7  -2  -7    8445    9463
   7  -2  -6     269   12068
   7  -2  -6     269    5457
   7  -2  -6   13034   10261
   7  -2  -5    9983    9484
   7  -2  -5    2705    5282
   7  -2  -5    2011    7177
   7  -2  -4      26    5476
   7  -2  -3   54364   24052
   7  -2  -3   40130   19289
   7  -2  -2    3945    9302
   7  -2  -2    7471   12008
   7  -2  -1     567    8961
   7  -2  -1    2640    6257
   7  -2   0   41712   19041
   7  -2   1   12452    8919
   7  -2   2   43293   18920
   7  -2   3     267    3967
   7  -2   3    2467    4690
   7  -2   4   37279   15756
   7  -2   4   28358   11202
   7  -2   5    5357    5375
   7  -2   5    4342    4204
   7  -2   6    1356    5135
   7  -2   6     911    3703
   7  -2   7   19770   11082
   7  -2   7   30270   12875
   7  -2   8      96    5076
   7  -2   9   29747   13217
   7  -2   9   33110   23763
   7  -2   9   14248   14233
   7  -2  10    4724    7525
   7  -2  10   16600   10606
   7  -2  10   12005   17501
   7  -2  10    2903    4109
   7  -2  11   23934   12189
   7  -2  11    3279   11509
   7  -2  11   30073   14944
   7  -2  12   25449   14277
   7  -2  12     104    4091
   7  -2  13    7797    8494
   7  -2  13      37    7261
   7  -2  14    9246    8571
   7  -2  14    1667    6160
   7  -2  15    2264    6646
   7  -2  15     260    7182
   7  -2  16     754    3057
   7  -1 -12    3212    4345
   7  -1 -12    1027   11340
   7  -1 -11      75    7387
   7  -1 -11    1904    7155
   7  -1 -10    9968    6736
   7  -1 -10      20    7047
   7  -1  -9    2934    8704
   7  -1  -9    1667    3995
   7  -1  -8      28    5264
   7  -1  -8     685    3285
   7  -1  -8    2422    6144
   7  -1  -7   13764    8029
   7  -1  -7    6510    6515
   7  -1  -6   21932    8160
   7  -1  -6   19228   15588
   7  -1  -6   16159   12078
   7  -1  -6   32982   11925
   7  -1  -5    5551   10375
   7  -1  -5   30897   12491
   7  -1  -4   15594   15608
   7  -1  -3   43390   21085
   7  -1  -3   19128   12189
   7  -1  -3   30892   16560
   7  -1  -2     457    4464
   7  -1  -2      80    4842
   7  -1  -1   26148   15657
   7  -1  -1   24017   14760
   7  -1   0     212    6591
   7  -1   0     774    6446
   7  -1   1  143849   30514
   7  -1   1  145751   32432
   7  -1   2   29345   13885
   7  -1   3  139348   30147
   7  -1   4   12573   12471
   7  -1   4    5774    5367
   7  -1   5   38356   17863
   7  -1   5   31192   13421
   7  -1   6   37586   15305
   7  -1   6   48596   17084
   7  -1   7    3390    4355
   7  -1   7   14402    9183
   7  -1   8   54614   25241
   7  -1   9     160    7021
   7  -1  10   55893   15544
   7  -1  10   75415   18217
   7  -1  10   34910   21273
   7  -1  10   10955   13322
   7  -1  11   12784   10166
   7  -1  11   30334   14362
   7  -1  11    7176   14896
   7  -1  11    1823    9581
   7  -1  11   18894   12579
   7  -1  12     363    8227
   7  -1  12     363    8456
   7  -1  13   26536   12614
   7  -1  13   25835   12297
   7  -1  13    6412    6612
   7  -1  14      14    6634
   7  -1  14    2964   10447
   7  -1  15   15644    8289
   7  -1  15    1850    7261
   7  -1  16     475    5494
   7  -1  17     537    1255
   7   0 -12      81    5440
   7   0 -11      75    7793
   7   0 -11    1140   10939
   7   0 -11      75    9584
   7   0 -10      45    7785
   7   0 -10      45   10703
   7   0  -9   15592    9016
   7   0  -9    9887    8299
   7   0  -8   14164    9032
   7   0  -8    6007   12515
   7   0  -7    9827    7425
   7   0  -7    6567    8449
   7   0  -6   13784    7674
   7   0  -6    1485    7816
   7   0  -6   12454   10487
   7   0  -5     924    4757
   7   0  -4   23864   17552
   7   0  -4   16689   13973
   7   0  -3    5471    7427
   7   0  -3    2600    7839
   7   0  -2    6132    7632
   7   0  -2    8727   12910
   7   0  -1   15399   12378
   7   0  -1   11767    7292
   7   0   0   17688    9514
   7   0   0   11264   10953
   7   0   1   67730   24190
   7   0   1   72071   25235
   7   0   2   62260   22417
   7   0   2   43822   18962
   7   0   3  213154   38526
   7   0   4   15488    7161
   7   0   4   27762   14866
   7   0   5   63400   17976
   7   0   5   73751   23237
   7   0   6    2269    3337
   7   0   6       4    7874
   7   0   7  104368   28713
   7   0   7  103677   25609
   7   0   8    6103    8633
   7   0   8    9791    6852
   7   0   9   36706   20001
   7   0  10   28716   12521
   7   0  10   78395   19380
   7   0  10   32212   23978
   7   0  11    9941    9011
   7   0  11   14358   10410
   7   0  11    1644    6830
   7   0  11   17148   15352
   7   0  12   30088   13180
   7   0  12   32888   13290
   7   0  12   70312   19083
   7   0  12   16820   18489
   7   0  13    7033    9757
   7   0  13    2347    6064
   7   0  14   51282   17872
   7   0  14  100938   24458
   7   0  14   61629   22535
   7   0  15    7761    6397
   7   0  15      99    5595
   7   0  16    2823    3742
   7   0  16    3390   10232
   7   0  17     988    3596
   7   1 -12    2364    7379
   7   1 -11    1944    9756
   7   1 -10       8   10343
   7   1 -10      55    8554
   7   1  -9       9    8900
   7   1  -9       9    9652
   7   1  -8    3893    5924
   7   1  -8      69    6181
   7   1  -7    4684    5047
   7   1  -7   11769   10858
   7   1  -6     115    3901
   7   1  -6    7013    6126
   7   1  -5   19773    9244
   7   1  -4    1538    6720
   7   1  -3   32061   19924
   7   1  -3   29208   16380
   7   1  -2      50    6964
   7   1  -2      50   10283
   7   1  -1   20044   12311
   7   1  -1   22889   13104
   7   1   0   14754   14030
   7   1   0    9961   11834
   7   1   1   70307   26357
   7   1   1   76575   27857
   7   1   2  314224   48065
   7   1   2  282574   44423
   7   1   3   34929   17064
   7   1   3   24597   14493
   7   1   4  185496   38244
   7   1   4  208717   37799
   7   1   4  126505   20377
   7   1   5   38413   13637
   7   1   5   59406   20439
   7   1   6   42836   16145
   7   1   6   45979   17951
   7   1   7  193760   35169
   7   1   7  194932   37008
   7   1   8      42    6846
   7   1   8      42    3631
   7   1   9   27677   18481
   7   1  10   10593    7550
   7   1  10      33    5780
   7   1  11   51981   29006
   7   1  11   92013   21699
   7   1  11  108694   22975
   7   1  12   26139   21666
   7   1  12   18045   12010
   7   1  12   39932   16332
   7   1  13    1414    6634
   7   1  13     296   11440
   7   1  13     296    8329
   7   1  14   32943   12555
   7   1  14   38943   14279
   7   1  14    6253   11512
   7   1  15   24850    9955
   7   1  15   26789   11197
   7   1  15   12729   10971
   7   1  16   17937    8506
   7   1  16    8048   10719
   7   1  17     889    2738
   7   2 -11     338    6052
   7   2 -10    4255   15901
   7   2  -9      19   10748
   7   2  -9    6432    9053
   7   2  -8      55    9478
   7   2  -8   10346    9200
   7   2  -7    5334    7007
   7   2  -7     814   10771
   7   2  -6    7180    7378
   7   2  -6    5808   12344
   7   2  -5    2123    8005
   7   2  -5    8736    5519
   7   2  -4    3270    4805
   7   2  -3   29201   18842
   7   2  -2    6372    6649
   7   2  -2    5437    6775
   7   2  -1   56406   23697
   7   2  -1   39153   21442
   7   2   0     287    6207
   7   2   0   14873   11596
   7   2   1  153387   35099
   7   2   1  145981   33739
   7   2   2   32670   18007
   7   2   2   33720   18529
   7   2   3     245    6659
   7   2   3    9488   11240
   7   2   4  104329   27759
   7   2   4   81760   24904
   7   2   5   78079   19007
   7   2   5   88622   25650
   7   2   6  120796   26679
   7   2   6  133840   30350
   7   2   7      20    6259
   7   2   7    1405    5086
   7   2   8  221005   37385
   7   2   8  262491   48449
   7   2   9    6285    6500
   7   2  10   54296   26184
   7   2  11   32639   23795
   7   2  11   51858   16885
   7   2  12    4913    7472
   7   2  12     795    5131
   7   2  13     223    9395
   7   2  13   23882   12398
   7   2  14    9479   10198
   7   2  14     307   11235
   7   2  14     307    6911
   7   2  15   18182   10529
   7   2  15   43743   16546
   7   2  15   24285   12921
   7   2  16     260    6542
   7   2  16     260    4306
   7   2  17     176    5812
   7   2  18    2092    3093
   7   3 -11    3476    7780
   7   3 -10      11    7469
   7   3  -9    6711   20681
   7   3  -8      38   10478
   7   3  -8      38   18563
   7   3  -8    2242    7539
   7   3  -7      56   11956
   7   3  -7     262    6526
   7   3  -6      37    6224
   7   3  -6   24207   11240
   7   3  -5       2    7500
   7   3  -5    1992   10462
   7   3  -5    4338    2872
   7   3  -4       8   12161
   7   3  -4   10559   16616
   7   3  -4    3675    8561
   7   3  -3       6    6384
   7   3  -2   16334   16659
   7   3  -2   19580   16736
   7   3  -1    5545   10864
   7   3  -1     156    4901
   7   3   0   21441   14242
   7   3   0   22201   15424
   7   3   1   37310   19894
   7   3   1   42057   20497
   7   3   2   92361   30292
   7   3   2   77645   26402
   7   3   3   69702   24326
   7   3   3   63487   22744
   7   3   4   41583   18465
   7   3   4   34848   17234
   7   3   5   24814   14460
   7   3   5   25814   14271
   7   3   5   18883   10767
   7   3   6    1082    5169
   7   3   6    1516    5237
   7   3   7   21026   14139
   7   3   7   14746   11888
   7   3   8   41902   19550
   7   3   8   44305   16896
   7   3   9   37832   21352
   7   3  10      32   10025
   7   3  11    5745    7946
   7   3  12   52660   17474
   7   3  12    3114   10193
   7   3  12   42088   15565
   7   3  13    5421    8788
   7   3  13   16209   12452
   7   3  14    3557    8196
   7   3  14    3388    8468
   7   3  15     454    6073
   7   3  15   11273    8858
   7   3  15     454    5381
   7   3  16   13350    6490
   7   3  16   11198    7614
   7   3  16    1190    8266
   7   3  17      76    4023
   7   3  18      41    2133
   7   4 -11      19    3478
   7   4 -10    3692    8759
   7   4  -9    2779   13647
   7   4  -8   10759   21532
   7   4  -7    4219   25928
   7   4  -6    8685    5422
   7   4  -6     488   16393
   7   4  -5       6    6197
   7   4  -5    8635   12461
   7   4  -5    8645   10743
   7   4  -4    1568    4150
   7   4  -4    8220    8418
   7   4  -3   11681   14737
   7   4  -3    4251    6007
   7   4  -2   24279   18367
   7   4  -1     115    6107
   7   4   0   46841   21236
   7   4   0   25144   15102
   7   4   1    3273    5217
   7   4   1    8625   11518
   7   4   2  187855   43442
   7   4   2  165307   37813
   7   4   3   43775   22125
   7   4   3   19818   12687
   7   4   4   85664   28545
   7   4   4   74445   24005
  -7  -4  -5   45593   15583
   7   4   5   75733   25631
   7   4   5   70141   23272
   7   4   5   50757   16762
   7   4   6   46896   18258
   7   4   6   48653   20150
   7   4   6   45399   18890
   7   4   7   14875    9581
   7   4   7   10182    4891
   7   4   8    2156   11503
   7   4   9   64911   27917
   7   4  10   46171   21851
   7   4  11   71494   19661
   7   4  11   45746   26320
   7   4  11   35221   15941
   7   4  12    1101    9009
   7   4  13   17999   12261
   7   4  13   35368   16249
   7   4  14    1895    7830
   7   4  14   22433   15145
   7   4  15   10483    8066
   7   4  15   26794   10451
   7   4  16   23025   11575
   7   4  16   15293    8045
   7   4  16    6675   15918
   7   4  17      99    5165
   7   4  17      99    5880
   7   4  18      46    1901
   7   5 -10      52    5569
   7   5  -9     615    7252
   7   5  -8    3466   14894
   7   5  -7     492   14821
   7   5  -6    7381    6030
   7   5  -6    1162   24497
   7   5  -5    2557    6173
   7   5  -5     875   16928
   7   5  -4   10221   13994
   7   5  -4   13043   10067
   7   5  -4    3042   22415
   7   5  -3   13998   14678
   7   5  -3   29507   12920
   7   5  -3   50528   34679
   7   5  -2      83   10217
   7   5  -1   78239   30705
   7   5   0   17249   13779
   7   5   1  125304   37535
   7   5   2  120195   34305
   7   5   2  117807   32375
   7   5   3   36850   18449
   7   5   3   33702   15751
   7   5   4   71271   26892
  -7  -5  -4   57101   18641
   7   5   4   74564   24048
  -7  -5  -5     210    3437
   7   5   5    4652    9438
   7   5   5      74    7494
   7   5   6   41881   16610
  -7  -5  -6   49784   18361
   7   5   6   48716   19758
   7   5   7   16823   11270
   7   5   8   73417   27422
   7   5   9   66167   26684
   7   5  10    3908    9963
   7   5  10    6774    7498
   7   5  10       5   12987
   7   5  11   22994   12364
   7   5  11   34139   32561
   7   5  11   16776    9828
   7   5  11    9214   18664
   7   5  12     735    5113
   7   5  12    2774    5519
   7   5  12     146    6579
   7   5  13   24888   13243
   7   5  14   11136   11870
   7   5  14    6590   10713
   7   5  15   21396   12953
   7   5  15   65543   20577
   7   5  16    9929    5331
   7   5  16   12568    7815
   7   5  17     205    4231
   7   5  17     205    3725
   7   5  18    2232    4919
   7   6 -10     526    4788
   7   6  -9    5837    9098
   7   6  -8      33   11726
   7   6  -7    8490    5184
   7   6  -7     625   13821
   7   6  -6    1715    4584
   7   6  -6   10456   20174
   7   6  -5    7065    5637
   7   6  -5   12024   19454
   7   6  -4   19038   11437
   7   6  -4    3572   24433
   7   6  -3     158    6629
   7   6  -3   11075    9307
   7   6  -3     901   13947
   7   6  -2    7609   12984
   7   6  -2   20937   11349
   7   6  -2    4463   22411
   7   6  -1   10829    8886
   7   6  -1   11252   10294
   7   6   0   12280   11549
   7   6   1   83578   32108
   7   6   2   10893    8243
   7   6   3  113135   36546
   7   6   4      13    8093
  -7  -6  -4      10    4216
  -7  -6  -5   43767   17692
   7   6   5   45326   20384
   7   6   6   31924   16364
  -7  -6  -6   25000   13822
   7   6   6   36156   17298
  -7  -6  -7    6341    7660
   7   6   7    5644    7532
   7   6   7    2529    5907
   7   6   8   94600   31841
   7   6   9    5741    8748
   7   6  10   71138   22093
   7   6  10   46421   34116
   7   6  10   73712   34673
   7   6  10   72434   20007
   7   6  11     112    4546
   7   6  11   13008   22503
   7   6  11     571   12193
   7   6  11    1732    3177
   7   6  12   36323   29791
   7   6  12   54501   18638
   7   6  12   81303   21766
   7   6  13   27766   14454
   7   6  14    4194    7689
   7   6  15   16294    9599
   7   6  15     836    8874
   7   6  16     738    6971
   7   6  16     738    3288
   7   6  17      70    3924
   7   6  17    3154    6103
   7   6  18    1992    2675
   7   6  18     235    4040
   7   7  -9    2152    5101
   7   7  -8     139    1972
   7   7  -8      11    6871
   7   7  -7     174    7392
   7   7  -7    1287   17933
   7   7  -6    5620    5450
   7   7  -6     829   18566
   7   7  -5    2554    3117
   7   7  -5    2927    9871
   7   7  -4      13    5732
   7   7  -4   11050   11383
   7   7  -3    1879    4464
   7   7  -3     425   14136
   7   7  -2      98    4958
   7   7  -2    1644    7389
   7   7  -2    2325   12177
   7   7  -1    3440    9335
   7   7  -1    2714    5402
   7   7  -1    4556   12947
   7   7   0    3565    8080
   7   7   0    3334    5246
   7   7   1      35    5520
   7   7   2   41566   21713
   7   7   3   23043   19981
   7   7   4   49225   24220
  -7  -7  -4   48878   20732
   7   7   5   13177    8509
  -7  -7  -5   22812   12295
  -7  -7  -6    2990    8867
   7   7   6     141    3930
  -7  -7  -7   56475   24098
   7   7   7   57790   21189
  -7  -7  -8     541    5178
   7   7   8    2982   13343
   7   7   9   48744   16417
   7   7   9   37948   11738
   7   7   9   88100   33641
  -7  -7  -9   32894   18774
   7   7   9   49391   26919
   7   7   9   68736   18147
   7   7  10   41537   14830
   7   7  10   30391   20071
   7   7  10   30409   10233
   7   7  10   20551   17157
   7   7  10   29063   12608
   7   7  11    7461   11287
   7   7  11   18368   13127
   7   7  11   19614   14379
   7   7  11   21875   12256
   7   7  12   19827   13394
   7   7  12   22527   12525
   7   7  13    3655   10994
   7   7  13    5913    5397
   7   7  14    9165    7981
   7   7  15     649    7711
   7   7  16    9771    8691
   7   7  16   11338    9551
   7   7  17     273    4213
   7   7  18      31    2275
   7   7  18     319    3749
   7   8  -8       1    1931
   7   8  -8    1285    8398
   7   8  -7      65    6049
   7   8  -7     993   10654
   7   8  -6     159    3316
   7   8  -6    8435   14134
   7   8  -5    5064    6832
   7   8  -5     570   15640
   7   8  -4     173    3842
   7   8  -4    3535   15826
   7   8  -3    2180    7347
   7   8  -3     200   12942
   7   8  -2    5019    5062
   7   8  -2   15237   19313
   7   8  -1     301    7127
   7   8  -1    8845    8401
   7   8   0   10283    5649
   7   8   0    8401    7438
   7   8   0   17493   14506
   7   8   1    7513   13453
   7   8   1   28885   11721
   7   8   1   20596   15955
   7   8   2    7062    9014
   7   8   2     696    6827
   7   8   3     387    6871
   7   8   4   20239   13222
  -7  -8  -4    9918   10181
   7   8   5    9140    4465
  -7  -8  -5   15984   12234
  -7  -8  -6   43730   21267
   7   8   6   37532   20143
   7   8   7    5814    5676
  -7  -8  -7    3281    8058
   7   8   7    3954    4787
   7   8   8   71465   14446
  -7  -8  -8   51707   24799
   7   8   8   83574   19985
   7   8   9    3969    4203
   7   8   9     558    6535
   7   8   9      21   13994
  -7  -8  -9      21    9760
   7   8   9    2399    6391
   7   8   9      21    5735
   7   8  10   13445    7473
   7   8  10   12245    4612
   7   8  10    9025    9163
  -7  -8 -10    8165   14813
   7   8  10    7118    4149
   7   8  10       3    7514
   7   8  11    3075    4957
   7   8  11     948    9926
   7   8  11   11842   17351
  -7  -8 -11      80   15430
   7   8  11    4154    5886
   7   8  12    3383    9490
   7   8  12    5455   19825
   7   8  12     103    6567
   7   8  13   25993   13912
   7   8  13   22167   10771
   7   8  14     368    6565
   7   8  14    8930    8783
   7   8  15    2891    6882
   7   8  16    4043    6247
   7   8  16    8242    8126
   7   8  17     505    5536
   7   8  18    1612    2618
   7   8  18     132    3429
   7   9  -7    2162    2876
   7   9  -6      63    4367
   7   9  -6     828    6373
   7   9  -5      99    3757
   7   9  -5      99   10230
   7   9  -4   15294   10472
   7   9  -4    2481   21332
   7   9  -3    2234    5611
   7   9  -3    7951   14248
   7   9  -2    5778    5687
   7   9  -2    1506   12055
   7   9  -1   16795   11392
   7   9  -1    4807   17123
   7   9   0     180   11523
   7   9   0     970    3588
   7   9   0      36    9288
   7   9   1   26675   19699
   7   9   1   20132   10016
   7   9   1   23167   21001
   7   9   2    3564    7960
   7   9   2      67    7429
   7   9   2    2818    8151
   7   9   3   28898   19086
   7   9   3   15492    6019
   7   9   3   26962   22652
   7   9   4    6713    8976
   7   9   4      46    5441
   7   9   4      46   13273
   7   9   5   56802   18673
   7   9   5   37012   22477
  -7  -9  -5   48428   25604
   7   9   5   68219   24370
   7   9   6   81990   16080
  -7  -9  -6   79097   28280
   7   9   6  106333   23593
   7   9   6   93108   25863
   7   9   7   11985    5259
  -7  -9  -7   17229   14314
   7   9   7   23948   10438
   7   9   8   29826   10426
  -7  -9  -8   12144   15622
   7   9   8   33106   14717
   7   9   9   27773   11398
   7   9   9   21496   25232
  -7  -9  -9   16292   15018
   7   9   9   28792   12668
   7   9  10   11882    9558
   7   9  10   10678    8060
   7   9  10    4984   12057
   7   9  10   14759   10325
  -7  -9 -10   13316   16537
   7   9  11    2893    7405
   7   9  11    5054    6900
   7   9  11       6   10651
   7   9  11       6    4990
   7   9  12    6306   10355
   7   9  12   29961   27172
   7   9  12    6204    7449
   7   9  13      54    6274
   7   9  13    2135    3134
   7   9  14    3975    6767
   7   9  14   11813    8611
   7   9  15   15027    8956
   7   9  16    3884    4678
   7   9  16    5054    5785
   7   9  17    5710    5054
   7  10  -6    3912    4632
   7  10  -5     694    4028
   7  10  -5     952    3194
   7  10  -4    7993    5892
   7  10  -4    3680   15844
   7  10  -3    2871    5742
   7  10  -3    1619   10947
   7  10  -2   27278   12401
   7  10  -2   37586   25452
   7  10  -1   11918    8772
   7  10  -1    1011   11637
   7  10   0   34960   11796
   7  10   1   13322    7157
   7  10   1   27398   16211
   7  10   2   28941   12360
   7  10   2   21641   15633
   7  10   2   65454   24102
   7  10   3   74856   23239
   7  10   3   26412    8628
   7  10   3   28942   22841
   7  10   4      31    7104
   7  10   4      31    8898
   7  10   4      73    2269
   7  10   4      31    9446
   7  10   5   17184   11867
   7  10   5   37755   18152
  -7 -10  -5   22141   13260
   7  10   6    6988    6739
   7  10   6    4165    3517
  -7 -10  -6    6188   12917
   7  10   6   16562    9947
   7  10   7   16914    8810
  -7 -10  -7   28744   23029
   7  10   7   28912   13916
   7  10   8    9214    8156
  -7 -10  -8    6246   12282
   7  10   8    2367    4906
   7  10   9   84147   39685
   7  10   9   64552   16333
   7  10   9   87308   23091
   7  10  10   12298   11715
   7  10  10   12760    8105
   7  10  10    8601    4988
   7  10  10   20296   11186
   7  10  11   17463   11456
   7  10  11   16246    7482
   7  10  11   13106   14383
   7  10  11   22834   10762
   7  10  12   23918   10941
  -7 -10 -12    1647    6298
   7  10  12   21857   24348
   7  10  12    7935    4164
   7  10  13   23174   11207
  -7 -10 -13    4526    4625
  -7 -10 -13    8492    7297
   7  10  13   11064    7392
   7  10  14   13725    7546
   7  10  14   20402   10664
   7  10  15   11013    7507
   7  10  16   21788    7631
   7  10  16   32092   10146
   7  10  17    9719    4894
   7  10  17     324    3784
   7  11  -6    1281    3472
   7  11  -5   14926    7067
  -7 -11   5    7474    4001
   7  11  -4     744    4681
   7  11  -4    1865    3861
   7  11  -3   16756   11008
   7  11  -3    4836    6805
   7  11  -2   12657   10848
   7  11  -2    5631    6152
   7  11  -1   19727   11177
   7  11  -1    9054   10735
   7  11   0   24216   13630
   7  11   0   10374    9828
   7  11   1   25202   15759
   7  11   1   17559   10826
   7  11   2  103689   28247
   7  11   2   49098   16133
   7  11   3    6655    5915
   7  11   3    9625   12965
   7  11   4   13693    9641
   7  11   4   11359   12065
   7  11   4   10367    6794
   7  11   5    9240    6750
   7  11   5   12533   11112
   7  11   6   28323   12025
   7  11   6   45127   19657
   7  11   6   50762   20806
   7  11   7   36393   11071
   7  11   7   49985   17867
   7  11   8    5393    6168
   7  11   8   18796   11010
   7  11   9   14218   18186
   7  11   9   22044   11336
   7  11   9   30963   14763
   7  11  10    7819    9062
   7  11  10    5715    7422
   7  11  10    4743    6118
   7  11  10    1583    8784
   7  11  11   43012   18577
   7  11  11   33657   10222
   7  11  11   58345   16596
   7  11  12    4895    6205
   7  11  12    2285    8394
  -7 -11 -12      27    5944
   7  11  13   23008   12540
  -7 -11 -13    5328    8374
  -7 -11 -13    8870   10792
   7  11  13   15046    9222
   7  11  14    6006    6175
   7  11  14   11920    6694
  -7 -11 -14    2137    3001
  -7 -11 -14    1230    4779
   7  11  15   12553    5972
   7  11  16     387    3866
   7  11  16     387    2002
   7  11  17    7320    3572
   7  12  -5    4200    4145
   7  12  -4      91    2798
  -7 -12   4    4446    3942
   7  12  -3     845    4117
   7  12  -3     135    4458
   7  12  -2    3294    5421
   7  12  -2    3428    3904
   7  12  -2     148    1792
   7  12  -1    7191    5943
   7  12  -1    1148    6578
   7  12  -1     897    1915
   7  12   0    7169    7520
   7  12   0    1235    3355
   7  12   1   14998    9731
   7  12   1    3341    3325
   7  12   1   13524    8668
   7  12   2      12    3493
   7  12   2    7964   10908
   7  12   3   20979   13961
   7  12   3    5433    4204
   7  12   3    3718    6050
   7  12   4   14825    9706
   7  12   4   11467   10187
   7  12   4     972    3911
   7  12   5   19180    9610
   7  12   5    5925    8222
   7  12   6   39389   13741
   7  12   6   60709   19969
   7  12   7     689    3193
   7  12   7    6363    9536
   7  12   8   26234   11765
   7  12   8   40655   17178
   7  12   9      73    7483
   7  12   9      73    9188
   7  12   9    2358    6299
   7  12  10   52647   16067
   7  12  10   24328   10937
   7  12  10   54360   16169
   7  12  11    9002   11007
   7  12  11    9467    4541
   7  12  11   14149    9262
   7  12  12   12168    5327
  -7 -12 -12     959    5573
   7  12  12   10824    6578
   7  12  13    7289    8228
  -7 -12 -13     606    3878
  -7 -12 -13     348    5706
   7  12  13    3615    3592
   7  12  14       7    7170
   7  12  14    5636    4548
  -7 -12 -14     988    3225
  -7 -12 -14       7    3386
   7  12  15    8278    4026
   7  12  16    7807    4301
  -7 -13   3    2920    3663
   7  13  -3    4634    5384
   7  13  -2    3090    5733
   7  13  -1      89    5559
   7  13  -1      89    4114
   7  13  -1    4328    4363
   7  13   0      52    3847
   7  13   0    9946    8312
   7  13   0      52    5226
   7  13   1      19    4065
   7  13   1      19    3317
   7  13   1      19    4876
   7  13   1     334    4981
   7  13   2   23135   13253
   7  13   2    5736    5286
   7  13   2    8539    6098
   7  13   2    8597    6732
   7  13   3    8268    8995
   7  13   3    1355    3671
   7  13   3    5227    3010
   7  13   3      16    4695
   7  13   4    5877    4839
   7  13   4      18    4188
   7  13   4    7317    6106
   7  13   4      18    8534
   7  13   5   11903    6984
   7  13   5    5970    8401
   7  13   6     131    3556
   7  13   6     665    5748
   7  13   7   17270    9251
   7  13   7   23826   12563
   7  13   8    9401    7137
   7  13   8     159    8974
   7  13   8   19243   11159
   7  13   9   13330    7401
   7  13   9   17283    7758
   7  13  10    6630    6872
   7  13  10   15470    9948
   7  13  10    5596    6240
   7  13  11    3341    6110
   7  13  11    1421    4952
   7  13  11     538    3791
   7  13  12    8407    9042
  -7 -13 -12      39    3797
   7  13  12   13699    6742
   7  13  13    1183    3865
  -7 -13 -13      12    2629
   7  13  13    6377    4344
  -7 -13 -13    5503    6923
   7  13  14      22    2884
  -7 -13 -14      22    4642
   7  13  14    9951    3994
   7  14  -2      38    3096
  -7 -14   2      38    2763
   7  14  -1    5762    6189
   7  14  -1      18    1354
   7  14   0    1996    4529
   7  14   0    6377    3747
   7  14   1    3123    3933
   7  14   1    1026    1861
   7  14   1    1250    2512
   7  14   2   11438    7776
   7  14   2    4233    3165
   7  14   2    8432    6065
   7  14   3      57    8740
   7  14   3      57    2096
   7  14   3    4797    5516
   7  14   4    6327    6477
   7  14   4    9206    8961
   7  14   5    1258    4661
   7  14   5    1866    6876
   7  14   6   29983    9593
   7  14   6   32158   13329
   7  14   7     500    3633
   7  14   7      44    5905
   7  14   8    3813    5955
   7  14   8    5181    6425
   7  14   9    6643    5953
   7  14   9    8219    6326
   7  14   9    5607    7167
   7  14  10      15    3678
   7  14  10      15    5474
   7  14  10      15    4220
   7  14  11    4192    6518
  -7 -14 -11    6217    5723
   7  14  11    3004    5634
   7  14  12    5781    5066
  -7 -14 -12    2133    4162
   7  14  12     385    3053
  -7 -14 -12    8046    7575
   7  14  13    6721    4198
  -7 -14 -13    3095    4156
  -7 -14 -13    3451    4643
   7  14  14      12    4574
  -7 -14 -14      12    2649
  -7 -15   0    2452    2869
   7  15   1    1497    2344
   7  15   2    1935    2706
   7  15   2     736    2312
   7  15   3    5751    4128
   7  15   3    3240    4779
   7  15   4    5961    4452
   7  15   4   11223    6906
   7  15   5    3542    3879
   7  15   5    3315    2903
   7  15   6    5172    4723
   7  15   6   10803    6477
   7  15   7     863    4112
   7  15   7    4050    5372
   7  15   8    4892    5110
   7  15   8   14618    6927
   7  15   8    6942    5761
   7  15   9    6272    5117
   7  15   9    1470    2743
   7  15   9    3929    3860
   7  15  10   14553    7664
   7  15  10    7935    4031
   7  15  10   13240    6567
   7  15  11     730    3776
  -7 -15 -11    4721    4803
   7  15  11    8067    4130
   7  15  12    1308    2612
  -7 -15 -12    2801    3688
  -7 -15 -12    3583    3620
   7  15  13    3456    3765
  -7 -15 -13    1195    2412
   7  16   3    1731    1759
   7  16   4      18    2222
   7  16   4    2671    3888
   7  16   5    9465    6338
   7  16   5    5782    4029
   7  16   6    1476    2729
   7  16   6    1490    2946
   7  16   7   15332    6194
   7  16   7   16553    7556
   7  16   8    1907    2506
   7  16   8       0    1825
   7  16   8    6201    4567
   7  16   9       2    2039
   7  16   9    4626    2925
   7  16   9    8017    4248
   7  16  10      14    1652
  -7 -16 -10     100    1933
  -7 -16 -10    4496    4621
   7  16  10    1937    1697
  -7 -16 -11      20    2009
   8 -14  -4    8119    5961
   8 -14  -3      10    2455
   8 -14  -2    6920    7337
   8 -14   0       1    2068
   8 -14   1    1510    1796
   8 -14   2    6727    4127
   8 -14   3    3493    2977
   8 -13  -6    1699    3367
   8 -13  -5    6876    7782
   8 -13  -4    3731    7353
   8 -13  -3    8323   12187
   8 -13  -2   18009    7876
  -8  13   1   11452    5664
   8 -13  -1   20922    9198
  -8  13   0   24253    7718
   8 -13   0   38553   12207
  -8  13  -1      12    1402
   8 -13   1    2004    4505
  -8  13  -2   21968    7086
   8 -13   2   48727   13015
  -8  13  -3    7315    3811
  -8  13  -4    4394    2934
   8 -13   4    3835    2830
  -8  13  -5    1207    1400
   8 -13   5    2973    3185
   8 -12  -8     897    3769
   8 -12  -7    3489    3962
   8 -12  -6    8584    9304
   8 -12  -5    6644   11858
   8 -12  -4    1166    6186
   8 -12  -3   19303   10011
  -8  12   2     254    1805
   8 -12  -2    3067    6805
  -8  12   1   11556    6814
   8 -12  -1   19868   13071
  -8  12   0    3314    4253
  -8  12  -1    7903    5837
  -8  12  -2    7453    5821
  -8  12  -3    8201    4491
  -8  12  -4   15075    6902
  -8  12  -5    3564    3095
  -8  12  -6    9024    4126
  -8  12  -7      32    1460
   8 -12   7     262    1768
   8 -11  -9    1877    5056
   8 -11  -8    5405    5325
   8 -11  -8     108    2233
   8 -11  -7      41    5512
   8 -11  -7    2217    2362
   8 -11  -6    4554    3690
   8 -11  -6    7769   12404
   8 -11  -5     114    1748
   8 -11  -5    7668    9882
   8 -11  -4   16856   17287
   8 -11  -3   16043   10763
  -8  11   2   11580    7607
   8 -11  -2   18370   13250
  -8  11   1    8707    5757
   8 -11  -1    8574    6628
  -8  11   0    5056    5686
  -8  11  -1    3360    5433
  -8  11  -2     699    2142
  -8  11  -3   18732    9408
  -8  11  -4    8747    5848
  -8  11  -5    6572    5159
  -8  11  -6    5579    5242
  -8  11  -7      18    2073
  -8  11  -8    7024    3427
   8 -11   8    5608    4412
   8 -10  -9    3810    7122
   8 -10  -9     164    2126
   8 -10  -8      11    2285
   8 -10  -8    5939   10463
   8 -10  -7    4972   10333
   8 -10  -7     115    2409
   8 -10  -6      36    7513
   8 -10  -6    2596    2858
   8 -10  -5      40    7248
   8 -10  -5     324    3087
   8 -10  -4   12227    5693
  -8  10   3    6612    5990
   8 -10  -3    1960    8770
   8 -10  -3     274    3453
  -8  10   2   18301    9993
   8 -10  -2   19165   13670
  -8  10   1    2777    4990
  -8  10   0   17252   10719
  -8  10  -1    4381    6200
  -8  10  -2    3589    5409
  -8  10  -3   12586    8769
  -8  10  -4       4    2463
   8 -10   4    1006    1742
  -8  10  -5    4993    5331
   8 -10   5    4457    2495
  -8  10  -6     689    3237
   8 -10   6    1138    3454
  -8  10  -7     864    3768
   8 -10   7    2105    2715
  -8  10  -8    2122    2861
   8 -10   8    1516    2622
  -8  10  -9    3004    2876
   8 -10   9       9    1416
  -8  10 -10    1194    1374
   8 -10  10     152     837
   8  -9 -10    1882    2614
   8  -9 -10    3019    5990
   8  -9  -9    1172    3498
   8  -9  -9     252    5665
   8  -9  -8    2707    4265
   8  -9  -8     164    8555
   8  -9  -7    2541    2424
   8  -9  -7     148    6377
   8  -9  -6     197    7393
   8  -9  -5     213    3008
   8  -9  -5    2975   10907
   8  -9  -4    2200    5127
   8  -9  -3     232    9530
   8  -9  -3    1602    5091
   8  -9  -2     146    7956
   8  -9  -2    7351    4764
  -8   9   0   12471    8271
  -8   9  -1    2693    5234
  -8   9  -2   16330    8507
   8  -9   2   13487    6847
  -8   9  -3      59    2682
   8  -9   3     920    2471
  -8   9  -4    6296    6852
   8  -9   4    2465    4560
  -8   9  -5    1009    2239
   8  -9   5      23    3224
  -8   9  -6    1424    2207
   8  -9   6     157    3613
   8  -9   6    3998    3886
  -8   9  -7      54    3610
   8  -9   7    3833    6716
  -8   9  -8     679    2645
   8  -9   8    2014    4137
  -8   9  -9    2497    3500
   8  -9   9    2670    4790
  -8   9 -10    3824    3183
   8  -9  10      30    1686
  -8   9 -11     998    1761
   8  -9  11    1293    1616
   8  -8 -11    1830    2866
   8  -8 -10     784    2696
   8  -8 -10     777    5298
   8  -8  -9    2115    4237
   8  -8  -9     300    6350
   8  -8  -8    3566    3800
   8  -8  -8    5085   10388
   8  -8  -7    1329    7526
   8  -8  -6    8501   14554
   8  -8  -5    3070   12089
   8  -8  -3     308    8548
   8  -8  -2     322    7972
   8  -8  -2     513    4497
   8  -8  -1     268   12693
   8  -8  -1    2350    5530
   8  -8   0    7192   10075
   8  -8   0    3926    3280
   8  -8   1      50    7449
   8  -8   1     517    2903
  -8   8  -2    3750    2628
   8  -8   2      52    6263
   8  -8   2      52    5862
  -8   8  -3   12375    8518
   8  -8   3   12546    7838
  -8   8  -4    4624    3809
   8  -8   4    4323    3081
   8  -8   4    1274    3585
  -8   8  -5   10187    7056
   8  -8   5    8419    8542
  -8   8  -6      47    3104
   8  -8   6     376    3733
  -8   8  -7    3617    4031
   8  -8   7    3462    4468
  -8   8  -8     515    2174
   8  -8   8    3067    6385
  -8   8  -9    1319    3636
   8  -8   9    1480    3396
  -8   8 -10    2675    4530
   8  -8  10    2233    4505
  -8   8 -11    1702    2790
   8  -8  11    3781    4248
  -8   8 -12     755     919
   8  -8  12      58    2346
   8  -8  12     880    2310
   8  -7 -11      64    1844
   8  -7 -11    2464    7310
   8  -7 -10     460    2847
   8  -7 -10    1771    8694
   8  -7  -9    1179    4793
   8  -7  -9     253    9536
   8  -7  -8     614    8545
   8  -7  -7    4262    8205
   8  -7  -6     247    6061
   8  -7  -6     247   10112
   8  -7  -5    1782   11089
   8  -7  -5     127   12469
   8  -7  -4     182   10824
   8  -7  -4     182    5609
   8  -7  -4    5810   10705
   8  -7  -3   18540   16770
   8  -7  -3    2538    8142
   8  -7  -2    8526    8834
   8  -7  -2   22103   12328
   8  -7  -1      81   12022
   8  -7  -1    4826    5796
   8  -7  -1     128    3144
   8  -7   0    9274   10533
   8  -7   0   16992    9556
   8  -7   0    7488    6594
   8  -7   1      69   12457
   8  -7   1    5198    3546
   8  -7   2   10855   12435
   8  -7   2   32577   11205
   8  -7   3   57491   15560
   8  -7   3   62319   25881
   8  -7   3   72845   22403
   8  -7   4      63    9759
  -8   7  -4    2189    4242
   8  -7   4      63    3203
   8  -7   4      63    4106
   8  -7   5   58710   30151
  -8   7  -5   37287   12832
   8  -7   5   71619   20837
  -8   7  -6   15404    7171
   8  -7   6    7565    8599
   8  -7   7    3701    7788
  -8   7  -7    6530    5598
   8  -7   8    7395    8330
   8  -7   9    2084    2857
   8  -7  10    3341    4683
   8  -7  11     103    4204
  -8   7 -12    2235    2063
   8  -7  12    1726    4062
  -8   7 -13      15    1427
   8  -7  13      15    1371
   8  -6 -11     184    2492
   8  -6 -11    2876    7363
   8  -6 -10     683    2326
   8  -6 -10    1780    6395
   8  -6  -9     741    3759
   8  -6  -9    4956   10388
   8  -6  -8    6303   13677
   8  -6  -7    8882   11523
   8  -6  -7     254    6207
   8  -6  -6     189   11144
   8  -6  -6     189    9751
   8  -6  -5      90    9491
   8  -6  -5     183   10075
   8  -6  -4    2082    8787
   8  -6  -4      44    9227
   8  -6  -4    8556   11228
   8  -6  -3    9798    8824
   8  -6  -3    8472    6705
   8  -6  -2   12558   12856
   8  -6  -2    5404    9332
   8  -6  -1   16386   14643
   8  -6  -1   33496   14288
   8  -6  -1   57931   19527
   8  -6  -1   29391    9304
   8  -6   0   11072   10410
   8  -6   0   29089   13264
   8  -6   0   16878    6383
   8  -6   1     550   10138
   8  -6   1    3844    6190
   8  -6   2  144403   25514
   8  -6   2  162170   34567
   8  -6   3     114   12419
   8  -6   3    2347    6681
   8  -6   3    2889    5295
   8  -6   4   24656   16869
   8  -6   4   24752   16050
   8  -6   5    1953    3568
   8  -6   5    2008    7637
   8  -6   6   43490   15691
   8  -6   6    5257   10658
   8  -6   6   34377   22161
   8  -6   6   19241    9328
   8  -6   7      15    3600
   8  -6   7      15    5396
   8  -6   8     976    8616
   8  -6   8    1463    3306
   8  -6   9    2803    7204
   8  -6   9    5085    7062
   8  -6   9    8752   13180
   8  -6  10     647    3279
   8  -6  10      87    9978
   8  -6  11    2496    4624
   8  -6  12       5    2766
   8  -6  13    2135    4114
  -8   6 -14      83    1009
   8  -6  14     617    1916
   8  -5 -11    3249    2618
   8  -5 -11    5884    4925
   8  -5 -10     974    3052
   8  -5 -10    2673    8729
   8  -5  -9    2019    4186
   8  -5  -9    1356    9826
   8  -5  -8    2758    9243
   8  -5  -7     464    6468
   8  -5  -7     292   12849
   8  -5  -6   13692   11950
   8  -5  -6   12330   11057
   8  -5  -5   23401   14655
   8  -5  -5    7545   10672
   8  -5  -4   14008   10510
   8  -5  -4    4080    7680
   8  -5  -4   23867   13238
   8  -5  -3    7980    8052
   8  -5  -3      61    7691
   8  -5  -3      61    9027
   8  -5  -2    1354    4343
   8  -5  -2     329    4894
   8  -5  -1    5066    8330
   8  -5  -1    9071    7682
   8  -5   0   10806   10352
   8  -5   1    2463   11277
   8  -5   2   11877    8970
   8  -5   3    6450    8311
   8  -5   4   16750   13155
   8  -5   4   20207   13354
   8  -5   5      28    4967
   8  -5   5      28    3485
   8  -5   6   10549    7111
   8  -5   6   10446   10939
   8  -5   6   12793    8805
   8  -5   6   10738    6423
   8  -5   6    8875   10630
   8  -5   7     729    4682
   8  -5   7      29    5162
   8  -5   7    1168    7629
   8  -5   7     162    5317
   8  -5   8   20615   11436
   8  -5   8    6065    9169
   8  -5   8   12444   12053
   8  -5   8   32412   14888
   8  -5   9    5019    7598
   8  -5   9    1325    9546
   8  -5   9      91    5392
   8  -5  10    8806    9539
   8  -5  10   25411   12493
   8  -5  10   22448   16947
   8  -5  11      20    5709
   8  -5  11    4190    5871
   8  -5  11   15482    9427
   8  -5  12      52    6741
   8  -5  12   11682   10141
   8  -5  12     242    3490
   8  -5  13    3076    4357
   8  -5  14      51    1781
   8  -5  15    1251    1282
   8  -5  15      59     866
   8  -4 -11    9056    9068
   8  -4 -10    8174    4747
   8  -4 -10     159    8852
   8  -4 -10    2184    3770
   8  -4  -9   11031    4541
   8  -4  -9    2390    2887
   8  -4  -9    6295    8093
   8  -4  -8    4007   11088
   8  -4  -7   23014   15813
   8  -4  -6    7729    9949
   8  -4  -6   10116   10022
   8  -4  -5     794    6968
   8  -4  -5    3787    8641
   8  -4  -4   18063   13554
   8  -4  -4   40664   14906
   8  -4  -3    4740    7392
   8  -4  -3   11953    9760
   8  -4  -3   13552   11409
   8  -4  -3   22714   12601
   8  -4  -2   31008   18606
   8  -4  -1    1128    6413
   8  -4   0   13427   11890
   8  -4   1    3164    3815
   8  -4   2   22224   11008
   8  -4   3   26564   18098
   8  -4   4      46    8579
   8  -4   5   20401   15387
   8  -4   6      70    2860
   8  -4   6      70   12135
   8  -4   6    8337   10574
   8  -4   6      58    4228
   8  -4   7   29571   17315
   8  -4   7   40474   13598
   8  -4   7   27994   18729
   8  -4   7   32559   18449
   8  -4   8   62818   16607
   8  -4   8   40584   21065
   8  -4   8   13709   15863
   8  -4   9   41680   14609
   8  -4   9     271    6337
   8  -4   9   44892   15696
   8  -4  10   19912   12562
   8  -4  10   33850   16684
   8  -4  11    8603    9504
   8  -4  11     794    6537
   8  -4  12      25    8484
   8  -4  12    7299   10986
   8  -4  13     727    7089
   8  -4  13    4477    6452
   8  -4  14      26    3356
   8  -4  14      26    3949
   8  -4  15     416    1688
   8  -3 -11    1873    4334
   8  -3 -10     391    3918
   8  -3 -10     391    2958
   8  -3 -10    4038    7576
   8  -3  -9    3589    4530
   8  -3  -9    6072    6297
   8  -3  -9    1352    2912
   8  -3  -8   11113    6645
   8  -3  -8    1978    3833
   8  -3  -8     493    6993
   8  -3  -7    9865   11065
   8  -3  -6    2346    5726
   8  -3  -5   12671   10655
   8  -3  -5    8086    9578
   8  -3  -4    1463    6063
   8  -3  -4    8475    9532
   8  -3  -3   68975   18171
   8  -3  -3   33051   19849
   8  -3  -2   11606   13225
   8  -3  -1   50121   21879
   8  -3   0   34987   18870
   8  -3   1   20117   12084
   8  -3   2  218201   44327
   8  -3   3    2775    5152
   8  -3   4   34424   19170
   8  -3   5   20847   15084
   8  -3   6   11183    9057
   8  -3   6    3360    6808
   8  -3   7   27837   18552
   8  -3   7   18299   14433
   8  -3   8     103    6977
   8  -3   8    9652   12500
   8  -3   8    2320    8556
   8  -3   9   28233   12818
   8  -3   9   23354   20362
   8  -3   9    8751   13266
   8  -3  10    4866    7216
   8  -3  10     129    7189
   8  -3  11   19498   11496
   8  -3  11    2482    9056
   8  -3  12    8900    8901
   8  -3  12    4494    8335
   8  -3  13    5549    7924
   8  -3  13     327    7313
   8  -3  14    4331    6919
   8  -3  14    8789    9890
   8  -3  15     429    3330
   8  -3  15    3031    4944
   8  -3  16    1286    2258
   8  -2 -11      27    5344
   8  -2 -10     146    6615
   8  -2 -10   10260   10141
   8  -2  -9      61    2567
   8  -2  -9      84    7916
   8  -2  -9    2492    4314
   8  -2  -8    7147    4684
   8  -2  -8   13404   11788
   8  -2  -8    3116    3023
   8  -2  -7    1216    3278
   8  -2  -7     507    2518
   8  -2  -7     217    9010
   8  -2  -6   10322    8247
   8  -2  -5      55    4927
   8  -2  -4     111   10049
   8  -2  -3    8698   13382
   8  -2  -2    6156    4080
   8  -2  -1   12712   13864
   8  -2   0    2112    7203
   8  -2   1   30489   16264
   8  -2   2   12276    9558
   8  -2   3   92188   27679
   8  -2   4   32841   16918
   8  -2   5     186    3938
   8  -2   6    9258   13053
   8  -2   6    8437    9098
   8  -2   7     163    5386
   8  -2   7     163    4917
   8  -2   8    3348    4835
   8  -2   8   10321   10937
   8  -2   8    6504    7820
   8  -2   9     106    5034
   8  -2   9    7944   10784
   8  -2   9     893    9382
   8  -2  10   17415   11054
   8  -2  10    6470   10476
   8  -2  10    7941   14041
   8  -2  11   15334   11007
   8  -2  11    3209    6067
   8  -2  12     136    6218
   8  -2  12     903    4391
   8  -2  13   28690   14667
   8  -2  13   10025   12909
   8  -2  14    4273    6706
   8  -2  14    1255    3852
   8  -2  15    1051    7625
   8  -2  15    1474    6117
   8  -2  16      92    2029
   8  -2  16     323    2741
   8  -1 -11     616    8445
   8  -1 -11    2027    4548
   8  -1 -10     201    7200
   8  -1 -10    1817    5809
   8  -1  -9     100    4758
   8  -1  -9    9910    9353
   8  -1  -8    6436    5461
   8  -1  -8      33   10289
   8  -1  -7   14579    7277
   8  -1  -7     583    3121
   8  -1  -7    8983    9512
   8  -1  -6   11838    6574
   8  -1  -6    1700    3413
   8  -1  -6    2630    8533
   8  -1  -5     154    2170
   8  -1  -4    3814    7486
   8  -1  -3    1626    7003
   8  -1  -2     647    5386
   8  -1  -2     319    6740
   8  -1  -1    2302    3824
   8  -1  -1   16690   13418
   8  -1   0    1595    7112
   8  -1   0     684    4934
   8  -1   1    4683    6391
   8  -1   2    7232    9143
   8  -1   3   59884   23913
   8  -1   4   20048   15075
   8  -1   5      91    6274
   8  -1   6    1367    5526
   8  -1   6    4650    6245
   8  -1   7   41528   16681
   8  -1   7   41463   18460
   8  -1   8    9641   11994
   8  -1   9   11551    8462
   8  -1   9    9057   13011
   8  -1   9      91    4678
   8  -1  10   23900   10277
   8  -1  10   39513   14009
   8  -1  10   21111   18212
   8  -1  10    6012   10968
   8  -1  11    7112    8406
   8  -1  11       2    6249
   8  -1  11    8882    8578
   8  -1  11   16767   19922
   8  -1  11    3158    9041
   8  -1  12      43    9392
   8  -1  12   16586   11003
   8  -1  12    3579   11124
   8  -1  13     236    6598
   8  -1  13     326    8813
   8  -1  14    2697    6521
   8  -1  14     589    5610
   8  -1  15   11891    8997
   8  -1  15     407    5016
   8  -1  16     282    2946
   8  -1  16    4668    7736
   8  -1  17      72    1670
   8  -1  17     979    1740
   8   0 -11    1226   10034
   8   0 -10     395    6460
   8   0  -9     315   10411
   8   0  -9    7331    9382
   8   0  -8     203    3803
   8   0  -8     203    6090
   8   0  -7     880    7218
   8   0  -7    3257    4408
   8   0  -6    4871    5162
   8   0  -6     547    5543
   8   0  -6    1838    3447
   8   0  -5   11344    7398
   8   0  -5    2763    3774
   8   0  -4     105    7272
   8   0  -4     105    2003
   8   0  -3   10810   13852
   8   0  -2    1222    5795
   8   0  -2    5939   11967
   8   0  -1    5820    6843
   8   0  -1   12429   13236
   8   0   0    7190    4326
   8   0   0    7580   15244
   8   0   1    1983    7644
   8   0   1   10564   11869
   8   0   2   31349   17496
   8   0   2   45340   20758
   8   0   3   13363   10662
   8   0   4   30722   15319
   8   0   5    9621    8958
   8   0   6    4563    7299
   8   0   6    5832   10272
   8   0   7   22092   12635
   8   0   7   21560   11893
   8   0   8    3173    7159
   8   0   8    2258    6453
   8   0   9   10206   14099
   8   0  10    5074    5728
   8   0  10      86    6250
   8   0  10      86    7342
   8   0  10    5662   10631
   8   0  11      51    7857
   8   0  11      51    8024
   8   0  11     166    4135
   8   0  11      51   11618
   8   0  12      44   11588
   8   0  12    7570    7871
   8   0  12    2210    6704
   8   0  12      44    8147
   8   0  13       9    8111
   8   0  13   23561   12956
   8   0  13    6038   11389
   8   0  14    7200    7840
   8   0  14      15    4684
   8   0  15      46    5894
   8   0  15      46    5343
   8   0  16      24    4994
   8   0  16    9219    9195
   8   0  17       5    2419
   8   1 -11    4071   11232
   8   1 -10    7092   12473
   8   1  -9     112    5056
   8   1  -8      82    9302
   8   1  -8    5020    7676
   8   1  -7      65    9533
   8   1  -7      65   13708
   8   1  -6    5067    5324
   8   1  -5    7622    5993
   8   1  -5      32    7159
   8   1  -4   12511   10832
   8   1  -4    1577    4267
   8   1  -3    4082    9016
   8   1  -2    3836    8188
   8   1  -2      50   12857
   8   1  -1   13545   13150
   8   1  -1   12901   13889
   8   1   0     941    3863
   8   1   0    4536   10092
   8   1   1   47807   20209
   8   1   1   53075   23732
   8   1   2   34789   18694
   8   1   2   29342   17804
   8   1   3   21786   15871
   8   1   3   28282   17393
   8   1   4   72404   25987
   8   1   5   14050   11512
   8   1   6   31186   13204
   8   1   6   53214   21636
   8   1   7   12177   10198
   8   1   7    2115    4596
   8   1   8   10854   10908
   8   1   8   19503   15145
   8   1   9    6803    8010
   8   1  10    3947    6271
   8   1  10     335    4552
   8   1  10     646    4539
   8   1  11     145   13722
   8   1  11   12534    9447
   8   1  11   28382   13230
   8   1  11    6349   11203
   8   1  12     202    6411
   8   1  12    1265    6503
   8   1  12     202   10652
   8   1  13    6493    7951
   8   1  13   14317   10032
   8   1  13   28628   13928
   8   1  13    2152    7887
   8   1  14     864    5772
   8   1  14    5801    8625
   8   1  14    3736    7456
   8   1  15   15705    9809
   8   1  15    9236    9024
   8   1  15     757    7489
   8   1  16    5399    4527
   8   1  16     187    6205
   8   1  17      99    5008
   8   1  17    3142    6219
   8   2 -11    3737    4193
   8   2 -10      12    5646
   8   2  -9    1865    9352
   8   2  -7      29    6233
   8   2  -6      30   10406
   8   2  -6    2161    3410
   8   2  -5      23   12318
   8   2  -5     409    4287
   8   2  -4      30    6661
   8   2  -4   15415   12359
   8   2  -4   16601   18346
   8   2  -3      31    6856
   8   2  -3    4959    8672
   8   2  -2   24226   20681
   8   2  -2   12434   10101
   8   2  -1    3378    4115
   8   2  -1      27    9853
   8   2   0   23407   15929
   8   2   0   14999   15665
   8   2   1   73219   29440
   8   2   1   84196   32061
   8   2   2   18876   16280
   8   2   2   18067   15902
   8   2   3  234763   47735
   8   2   3  229371   45812
   8   2   4   30586   17583
   8   2   4   29511   18008
   8   2   5  113613   32570
   8   2   6   40449   18985
   8   2   7   14989   12211
   8   2   7   18644   13727
   8   2   8   22367   12169
   8   2   8   30536   14507
   8   2   9   18630   13760
   8   2  10   57333   28094
   8   2  10   76089   18650
   8   2  11     161    8633
   8   2  11     161    7509
   8   2  11     161    9011
   8   2  12   24776   12339
   8   2  12   12432   16739
   8   2  12   35537   14528
   8   2  13   25197   13247
   8   2  13   31999   15033
   8   2  13    1396    8683
   8   2  14    5085    7711
   8   2  14    2065    6424
   8   2  14    6349    8980
   8   2  14      96    9605
   8   2  15   18357    8737
   8   2  15   25050   11252
   8   2  15    3529    9244
   8   2  16    5704    6032
   8   2  16     318    6232
   8   2  16     318    4916
   8   2  17     161    2224
   8   2  17    2619    5545
   8   2  18      42    1755
   8   3 -10     598    4976
   8   3  -9      57    9007
   8   3  -8     123    7734
   8   3  -7    5935   22419
   8   3  -6    4546    5435
   8   3  -5     180    8354
   8   3  -5   18274    9952
   8   3  -4    9519   12155
   8   3  -4     155    5219
   8   3  -3      86    8299
   8   3  -3   11032    8594
   8   3  -2   29015   21768
   8   3  -2   31931   19703
   8   3  -1      20    6173
   8   3  -1      20    5547
   8   3   0   43286   22920
   8   3   0   45348   24726
   8   3   1   30179   20225
   8   3   1   35367   19142
   8   3   2   79307   27979
   8   3   2   61756   23338
   8   3   3   20633   16886
   8   3   3   25328   16941
   8   3   4    3971    9023
   8   3   4   11200   12939
   8   3   5   11156    5723
   8   3   5    9253    7286
   8   3   6   82093   27042
   8   3   7   54484   18665
   8   3   7   78223   25869
   8   3   8     214    5028
   8   3   8    4278    9660
   8   3   9   75123   29420
   8   3  10   21281   22084
   8   3  10      75   12966
   8   3  10      75    4653
   8   3  10    2026    3255
   8   3  11      28   10238
   8   3  11   26968   11743
   8   3  12    5877    7749
   8   3  12   10994   16581
   8   3  12   34310   14675
   8   3  13      98    7043
   8   3  13      98    8678
   8   3  14     278    5308
   8   3  14   25072   12357
   8   3  15    4872    7265
   8   3  15     462    7259
   8   3  15     462    6648
   8   3  15     462    9261
   8   3  16    6479    6495
   8   3  16   13155   13928
   8   3  17     137    2586
   8   3  17     240    3655
   8   3  18    2847    4518
   8   4 -10      39    8396
   8   4  -9      42    6589
   8   4  -8   15127   15344
   8   4  -7    7453   11198
   8   4  -6     161    5385
   8   4  -6    1571   12435
   8   4  -5   19138   11835
   8   4  -5   22243   33606
   8   4  -4     232   10325
   8   4  -4    2241    5500
   8   4  -4     232   13868
   8   4  -3    7288   10761
   8   4  -3   24278   11887
   8   4  -2    4444    9009
   8   4  -2     642    5744
   8   4  -1   34585   21746
   8   4   0    5302   11189
   8   4   0     112    5689
   8   4   1   33075   21058
   8   4   1   49044   30825
   8   4   2   68142   29249
   8   4   2   61171   26644
   8   4   3   59459   27724
   8   4   3   52448   24852
   8   4   4   42413   21699
   8   4   4   42116   19431
   8   4   5    1048    6992
   8   4   5     255   12890
   8   4   6  141740   37874
   8   4   6  127558   35083
   8   4   7   12761    7367
   8   4   7   10431   10593
   8   4   8    6332    8461
   8   4   8    6794    3723
   8   4   9   29389   18901
   8   4  10   87343   19222
   8   4  10   57172   31519
   8   4  10   45712   25252
   8   4  10   59333   19208
   8   4  11   42888   30181
   8   4  11   29444   23371
   8   4  11   30066   15033
   8   4  12    8264    8349
   8   4  12    3873   10126
   8   4  13   26959   12972
   8   4  13   78172   21247
   8   4  14    2012    5765
   8   4  14     537    9041
   8   4  15   33860   14139
   8   4  15   40223   16391
   8   4  16   11207    5822
   8   4  16     699    7031
   8   4  17     229    4246
   8   4  17    1677    5596
   8   4  18    9520    5553
   8   5  -9      29    8515
   8   5  -8    5809    7589
   8   5  -7    2806   11651
   8   5  -6     237    2593
   8   5  -6     237   11447
   8   5  -5    3266    7565
   8   5  -5     121   10939
   8   5  -4    7363   10220
   8   5  -4    7680   24371
   8   5  -3    1470    7250
   8   5  -3    7442    3906
   8   5  -3     710   18078
   8   5  -2       0    6991
   8   5  -2       0    8072
   8   5  -2    3588   15362
   8   5  -1   32956   21483
   8   5  -1   39285   15872
   8   5   0    4760    8793
   8   5   1   76312   30328
   8   5   2      43    6556
   8   5   2    6271    9408
   8   5   3  278240   59598
   8   5   3  218133   48683
   8   5   4   16873   13963
   8   5   4   17289   13996
   8   5   5   15696   15959
   8   5   5   23602   16543
   8   5   6   68792   26584
   8   5   6   68408   26270
   8   5   8  105362   30738
   8   5   9    2785   14135
   8   5   9   15023   15136
   8   5   9    9768    7372
   8   5  10  216338   29887
   8   5  10  216332   49220
   8   5  10  144792   44798
   8   5  10  216365   36315
   8   5  11   14429   16369
   8   5  11    3167    9594
   8   5  11   15671   25887
   8   5  11      64    4218
   8   5  12   57156   20389
   8   5  13    9186    8853
   8   5  13   64705   19462
   8   5  14   51825   18347
   8   5  14   72070   21524
   8   5  15   37186   13307
   8   5  15   58725   17004
   8   5  16     191    3534
   8   5  16    1200    7032
   8   5  16    1200    7644
   8   5  16     358    5511
   8   5  17    6953    4479
   8   5  17   12209    7642
   8   5  17    1391    5475
   8   5  18      68    1895
   8   6  -9      24    3737
   8   6  -8    1914   10062
   8   6  -7    2599   18864
   8   6  -6      15    2477
   8   6  -6     316    9888
   8   6  -5    6282    8085
   8   6  -5    1169   22590
   8   6  -4    5619    7461
   8   6  -4    2756   22114
   8   6  -3   15732   13135
   8   6  -3    8675   33519
   8   6  -2      32    9449
   8   6  -2      32    4971
   8   6  -2    1131   15136
   8   6  -1    8299    9820
   8   6  -1   11104   10010
   8   6  -1   14292   21072
   8   6   0   24897   21254
   8   6   0   24405   12426
   8   6   1    4997    7822
   8   6   2   98060   37467
   8   6   3  146747   44575
   8   6   4   21542   17596
   8   6   5   58628   26497
   8   6   6    5257    8973
   8   6   7   87500   30290
  -8  -6  -8   19410   11707
   8   6   8   24444   16066
   8   6   9   11316   16244
  -8  -6  -9    1606    5054
   8   6   9   26223   11322
   8   6   9   16845   15047
   8   6  10   43627   16698
   8   6  10   53403   24462
   8   6  10   37503   22965
   8   6  10   85861   21700
   8   6  11   16917   11895
   8   6  11    6103   10890
   8   6  11    6975    7992
   8   6  11   13496    9440
   8   6  12   85164   24260
   8   6  12   47873   28827
   8   6  12   69640   22347
   8   6  14    8739    8295
   8   6  14   47066   16754
   8   6  15    1117    5604
   8   6  15    7406    9858
   8   6  16   14541    9563
   8   6  16   18564   10973
   8   6  16    4354    5464
   8   6  17   15268    7200
   8   6  17    1108    2790
   8   6  18     583    2327
   8   6  18    3315    3783
   8   7  -8      12    5234
   8   7  -7      21    2325
   8   7  -7     731    8232
   8   7  -6      13    3686
   8   7  -6    2700    4468
   8   7  -6     106   10444
   8   7  -5    2670    3840
   8   7  -5   26427   11855
   8   7  -4     206    4781
   8   7  -4     206   11502
   8   7  -3    8650   10472
   8   7  -3    1823   23610
   8   7  -2    2184    6862
   8   7  -2     116    7338
   8   7  -1   11017   14360
   8   7  -1    5081    5851
   8   7  -1     447    6776
   8   7   0    2847    7882
   8   7   0    2317    4071
   8   7   0      24    8945
   8   7   1    1847    6039
   8   7   1    7572   12704
   8   7   1    2802    3634
   8   7   1      11   17014
   8   7   2   11924   11023
   8   7   2    7887    7117
   8   7   2    9610   12753
   8   7   3      60    8214
   8   7   4   90361   32931
   8   7   5    1747    7516
   8   7   6   41213   22716
   8   7   7   66683   14846
   8   7   7   47922   22878
   8   7   7   78259   20323
   8   7   8   21208   10536
  -8  -7  -8    9992    9329
   8   7   8   40250   14558
   8   7   9    6540    7759
   8   7   9     325    3320
   8   7   9      54    7752
  -8  -7  -9     179    6960
   8   7   9    4693    6417
   8   7   9    5654    8443
   8   7  10    1858    6248
   8   7  10       9   20554
  -8  -7 -10       9    4900
   8   7  10       9    7253
   8   7  10       9    7063
   8   7  11    7900    8357
   8   7  11    3993   13830
   8   7  11      84   18457
  -8  -7 -11      84   14985
   8   7  11    8180   10226
   8   7  12    7543    8181
   8   7  12   17697   20323
   8   7  12    2082    5203
   8   7  13    5978    8230
   8   7  13       6    5462
   8   7  14    4294    7055
   8   7  15   15707   10132
   8   7  15   27761   12977
   8   7  16   11971    6953
   8   7  16   13122    7805
   8   7  17      79    5484
   8   7  17      79    6050
   8   7  18    7938    4009
   8   7  18      31    2339
   8   8  -7    3428    3675
   8   8  -7     248    4927
   8   8  -6    2424    3409
   8   8  -6      11    4470
   8   8  -6    1328    7858
   8   8  -5    3603    5883
   8   8  -5    7779    6789
   8   8  -5      13    9698
   8   8  -4      16    5040
   8   8  -4     240   12064
   8   8  -3    6087    6428
   8   8  -3     219   10446
   8   8  -2      47    6016
   8   8  -2      47   16149
   8   8  -1    4835   10044
   8   8  -1     182   11727
   8   8   0    2449    7569
   8   8   0      90   12797
   8   8   0    3993   12073
   8   8   1   24168   12442
   8   8   1   22076   11492
   8   8   1   10184   12876
   8   8   1    6148   14986
   8   8   2      32    7635
   8   8   2      32    6972
   8   8   2      32    4506
   8   8   2    3938    6157
   8   8   2      32   10542
   8   8   2      32   11288
   8   8   3    4842    5687
   8   8   3   18194    9147
   8   8   3     478    2639
   8   8   3   17913    8597
   8   8   3   16715   16931
   8   8   4   10973   13087
   8   8   4     166    3616
   8   8   4     673    3846
   8   8   4    2003    5254
   8   8   4    6388    6695
   8   8   5   12090   13994
   8   8   5    4194    4024
   8   8   5   11658   12552
   8   8   5    4098    7365
   8   8   6     153   12680
   8   8   6    1071    4726
   8   8   6    2390    4723
   8   8   6     153    6192
   8   8   7   20752    9458
   8   8   7   25708   12596
   8   8   8   13759    9193
   8   8   8   26411   11180
   8   8   8   34634   15436
   8   8   9    6141    6291
   8   8   9     162    4803
   8   8   9    4690    7913
  -8  -8  -9    2456    8861
   8   8   9    2283    5965
   8   8  10   10854    9738
   8   8  10    1937    4586
   8   8  10    5390   15510
  -8  -8 -10     824    5643
   8   8  10      34    6926
   8   8  11      14    6910
   8   8  11      14   15502
   8   8  11    6476    9949
   8   8  12    1710    4782
   8   8  12   15628   16204
   8   8  12    4251    7025
   8   8  13    5674    7597
   8   8  13    6348    6388
   8   8  14    7614    7839
   8   8  15     389    4128
   8   8  15    6199    6863
   8   8  16    3547    4453
   8   8  16    8253    6245
   8   8  17   20162    7909
   8   8  17     988    2621
   8   8  18    3211    2890
   8   9  -6      23    2520
   8   9  -6      23    5719
   8   9  -5    3247    4990
   8   9  -5      56    3278
   8   9  -5    1753    9334
   8   9  -4    5382    8428
   8   9  -4    8858    6376
   8   9  -4    7976    8644
   8   9  -3    4222    7767
   8   9  -3    1399    7784
   8   9  -3    3849   11486
   8   9  -2      27    3410
   8   9  -2     439   11544
   8   9  -1    2624    9466
   8   9  -1      13    7124
   8   9  -1    2620    8488
   8   9   0   40294   17706
   8   9   0   11871    9943
   8   9   0    5145   20647
   8   9   1    8614    9948
   8   9   1     107    6601
   8   9   1   16173   14800
   8   9   2      44    3226
   8   9   2   23812   16975
   8   9   2    3892    2798
   8   9   2    9456    7154
   8   9   2    2879   14833
   8   9   3   17426    7895
   8   9   3    3316    3506
   8   9   3   14352    8567
   8   9   3    5847   14645
   8   9   3   28782   16863
   8   9   4   19384   12738
   8   9   4     800    2478
   8   9   4    3616    2282
   8   9   4    5860   12136
   8   9   4    4483    5252
   8   9   5    2771    7363
   8   9   5     135    4852
   8   9   5     471    3225
   8   9   5     135   13916
   8   9   6     149   10337
   8   9   6    7891    5136
   8   9   6    4360    5966
   8   9   7   36577   11903
   8   9   7   36981   17344
   8   9   8    5717    8005
   8   9   8    9187    8388
   8   9   8    4328    9888
   8   9   9   71868   16754
   8   9   9   94936   18186
   8   9   9  103872   25295
   8   9  10   21304   11865
   8   9  10     122    3977
   8   9  10    6698   12996
   8   9  10    2699    4592
   8   9  11   66869   18642
   8   9  11   59710   26888
   8   9  11   52918   18672
   8   9  12   65346   22754
   8   9  12   42503   29334
   8   9  12   80326   21309
   8   9  13    4161    7500
   8   9  13     767    3255
   8   9  14   31782   16092
   8   9  15    3186    4868
   8   9  16    8203    6061
   8   9  16   53200   13431
   8   9  17    4221    3814
   8   9  17      40    3608
   8  10  -6    3581    3514
   8  10  -5    6846    5904
   8  10  -5       4    2416
   8  10  -4      29    3364
   8  10  -3   15624    9062
   8  10  -3   22308    9962
   8  10  -2      49    4172
   8  10  -2    5227    7166
   8  10  -1    6778    7295
   8  10  -1    5661    5796
   8  10   0       1    3741
   8  10   0    4409    6260
   8  10   0    3613    5242
   8  10   1      12    4397
   8  10   1    8108   10605
   8  10   1    3185    5810
   8  10   2   12332    7061
   8  10   2    5749    2699
   8  10   2   14082    8980
   8  10   3     365    3026
   8  10   3    6330   10380
   8  10   3      23    3303
   8  10   3      23    3540
   8  10   4   18509    7785
   8  10   4   20409    8518
   8  10   4   34585   14544
   8  10   5    8116    5684
   8  10   5   39305   18273
   8  10   5   27412   12824
   8  10   6   42755   22152
   8  10   6   34117   11956
   8  10   6   45570   17376
   8  10   7   46608   12939
   8  10   7   66579   18448
   8  10   8   40382   11794
   8  10   8   56293   17981
   8  10   9   49241   17074
   8  10   9   89541   23976
   8  10   9   74714   19064
   8  10  10    2886    5388
   8  10  10    5564    4320
   8  10  10   10508   10836
   8  10  10     191    4920
   8  10  11   42448   17446
   8  10  11   28173   20856
   8  10  11   39402   15255
   8  10  12    1605    4598
   8  10  12    2617   14390
   8  10  12    3136    5669
   8  10  13   33128   12029
  -8 -10 -13    5175    6909
   8  10  13   29864   11336
   8  10  14    5768    6546
   8  10  15   13732    7403
   8  10  16    4268    3874
   8  10  16     169    4869
   8  10  17    5799    3607
   8  11  -5    2801    4203
   8  11  -4    4641    4912
   8  11  -4    2912    3838
  -8 -11   4    5973    4231
   8  11  -3    8805    6299
   8  11  -3    3694    4836
   8  11  -2    1233    3797
   8  11  -2     998    3487
   8  11  -1   11482    9778
   8  11  -1    6283    7523
   8  11   0    9627    9887
   8  11   0    2390    6057
   8  11   0      45    2378
   8  11   1   10405    6665
   8  11   1   44722   20437
   8  11   1   28072   12578
   8  11   2   15632   15090
   8  11   2      32    3005
   8  11   2    9284    8106
   8  11   2    5253    5072
   8  11   3   28553   16466
   8  11   3    4149    4552
   8  11   3   17659    9356
   8  11   3    3415    6508
   8  11   4   27349   13764
   8  11   4    5876    3876
   8  11   4   14967    8079
   8  11   4    7597    6905
   8  11   5      16    8712
   8  11   5      16    4713
   8  11   5    5267    5705
   8  11   6   69002   15535
   8  11   6   90295   25486
   8  11   7    5049    7192
   8  11   7   11055    7549
   8  11   8   87965   18488
   8  11   8  122582   28941
   8  11   9    4479    8589
   8  11   9   10185    7813
   8  11   9    7086   11531
   8  11   9   16672   10142
   8  11  10   27188   11104
   8  11  10   18112    8230
   8  11  10   25504   19330
   8  11  10   35812   15684
   8  11  11   11951   10581
   8  11  11    6994    6164
   8  11  11   11099   14175
   8  11  11    7057    6691
   8  11  12    9831    9540
   8  11  12   19065   20272
   8  11  12    8901    6832
   8  11  13    9118    8482
  -8 -11 -13    9136    8438
   8  11  13   10993    6867
   8  11  14      38    4901
   8  11  14    1154    3750
   8  11  15   19668    7629
   8  11  16    2017    2643
   8  11  16    3755    3775
   8  12  -4    1288    2374
   8  12  -3     100    3399
   8  12  -3    3257    4912
   8  12  -2    4574    5458
   8  12  -2     142    3818
   8  12  -1    9366    7626
   8  12  -1     867    3700
   8  12   0   17413   12183
   8  12   0    7062    3994
   8  12   0    7870    5087
   8  12   1   27850   15147
   8  12   1   10227    7049
   8  12   1   12871    6425
   8  12   2    5326    4623
   8  12   2      98    5385
   8  12   2    9955    5767
   8  12   3   21689   16573
   8  12   3    9600    6366
   8  12   3   11521    7015
   8  12   3   13339    9413
   8  12   4      14   10114
   8  12   4      14    4036
   8  12   4    1724    2406
   8  12   4    1887    5050
   8  12   5   61497   21982
   8  12   5   30778   10419
   8  12   5   62752   19780
   8  12   6   19103    9725
   8  12   6    3405    8600
   8  12   7    9180    6766
   8  12   7   24707   13300
   8  12   8   23949   10437
   8  12   8   36813   16454
   8  12   9   11536    6746
   8  12   9   13842    7775
   8  12   9     159   12790
   8  12   9   20576   10793
   8  12  10   44255   16455
   8  12  10   42282   13912
   8  12  10   28644   26340
   8  12  10   72506   20420
   8  12  11    1040    4438
   8  12  11    1474    4987
   8  12  11    3857    5691
   8  12  11    8849    6976
   8  12  12   19582   10436
  -8 -12 -12    4589    2800
   8  12  12   27005   11048
   8  12  13       4    6272
  -8 -12 -13    3701    3572
   8  12  13       4    3612
   8  12  14    4986    4146
   8  12  14    9553    5611
  -8 -12 -14    5413    5541
   8  12  15      33    2936
   8  12  15    1868    3049
   8  13  -2     148    2889
   8  13  -1     668    3182
   8  13  -1     613    3397
   8  13   0       7    3713
   8  13   0       7    2004
   8  13   1    1867    6788
   8  13   1      15    4430
   8  13   1    2195    3859
   8  13   2   27456   14818
   8  13   2    4809    3313
   8  13   2   12373    8254
   8  13   2   13349    7407
   8  13   3    1748    6593
   8  13   3    1545    3500
   8  13   3    2397    4809
   8  13   3    5940    5245
   8  13   4    3276    4266
   8  13   4       8    8870
   8  13   4       8   10506
   8  13   4    3411    4046
   8  13   5    1450    4349
   8  13   5    2257    6496
   8  13   6   11248    6695
   8  13   6    6134    7861
   8  13   7    1835    4734
   8  13   7     408    6115
   8  13   8    6073    5400
   8  13   8    5835    4714
   8  13   8    6061    6246
   8  13   9   17515    9435
   8  13   9   22808    9718
   8  13   9   13371   19736
   8  13   9   48524   16332
   8  13  10    4547    6675
   8  13  10      37    5645
   8  13  10      37    7867
   8  13  11   18991   10221
  -8 -13 -11   13598    8479
   8  13  11   17210    9520
   8  13  12   17487    9675
  -8 -13 -12    3388    5007
   8  13  12   15871    8082
   8  13  13   17698    6854
  -8 -13 -13    7654    6137
   8  13  13   12730    6160
   8  13  14    4294    4013
   8  13  14    6644    3800
  -8 -13 -14    3386    3753
  -8 -14   1    7284    3919
   8  14   0       3    6973
   8  14   1    1984    5420
   8  14   1       6    2411
   8  14   2      27    4876
   8  14   2      27    1322
   8  14   2     849    2170
   8  14   3    1608    2835
   8  14   3    2334    3271
   8  14   4    1320    2774
   8  14   4    2631    3792
   8  14   5    5573    3936
   8  14   5   24880   10441
   8  14   6   11525    6983
   8  14   6   16806    9159
   8  14   7    2560    4165
   8  14   7    9752    7777
   8  14   8     630    1939
   8  14   8    8008    5498
   8  14   8      30    3531
   8  14   8    6353    7066
   8  14   9      19    3169
   8  14   9      19    3953
   8  14   9    1879    4075
   8  14  10   14628    8048
   8  14  10    9032    5499
   8  14  10   19517    8051
   8  14  11    2748    3595
  -8 -14 -11    2929    4427
   8  14  11    4151    5072
   8  14  12       6    4438
  -8 -14 -12    1836    2318
   8  14  12     130    2388
   8  14  13    6889    4746
   8  14  13    4262    2684
  -8 -14 -13    3585    4311
   8  15   2      65    2000
   8  15   3     132    2358
   8  15   3    5110    3635
   8  15   4     314    2810
   8  15   4    4338    4713
   8  15   5    5952    4668
   8  15   5    5547    6020
   8  15   6    3611    3656
   8  15   6      64    7809
   8  15   6     702    3173
   8  15   7   10034    4760
   8  15   7   12823    6864
   8  15   8    1193    2336
   8  15   8   10769    6080
   8  15   9      13    2133
   8  15   9   11086    5044
   8  15   9    8414    5904
   8  15  10      12    2524
  -8 -15 -10    6624    6344
   8  15  10   14585    5892
   8  15  11      12    2889
  -8 -15 -11    2136    3367
   8  15  11    1955    2943
   8  15  12    4410    2077
  -8 -15 -12    4587    4877
   8  15  12    8364    3528
   8  16   4     714    1881
   8  16   5     380    1366
   8  16   5    4308    2498
   8  16   6    2760    2277
   8  16   6    5762    3525
   8  16   7    9370    4740
   8  16   7   12919    6212
   8  16   8    2703    2205
   8  16   8    2021    2283
   8  16   9    5568    3757
  -8 -16 -10    2966    3911
   8  16  10     679    1711
   9 -13  -4     945    2252
   9 -13  -3    2499    5355
   9 -13  -2    3722    4531
   9 -13  -1      81    5663
   9 -13  -1    3210    2269
   9 -13   0    1129    2632
   9 -13   1     102    3909
   9 -13   2   10317    5177
   9 -13   3       2    2145
   9 -13   4    7780    4424
   9 -12  -6    3528    4485
   9 -12  -5      34    3352
   9 -12  -4    3997    6082
   9 -12  -3    4212    9795
   9 -12  -2    6243    5069
   9 -12  -2    7132    9868
   9 -12  -1   10655    7444
   9 -12   0    5176    5922
  -9  12  -1      43    1644
   9 -12   1    6899    7414
  -9  12  -2    2283    2762
   9 -12   2      31    3145
  -9  12  -3    7899    3949
   9 -12   3   19478    8615
  -9  12  -4      62    1670
   9 -12   4    5305    5116
  -9  12  -5    2477    2140
   9 -12   5   18650    8197
   9 -12   6    5709    3417
   9 -11  -7       1    2913
   9 -11  -7    2430    5348
   9 -11  -6      33    1566
   9 -11  -6    3610    5645
   9 -11  -5     110     910
   9 -11  -5     168    4936
   9 -11  -4    7749   11890
   9 -11  -3     391    7610
   9 -11  -3    3350    7609
   9 -11  -2   24781   13391
   9 -11  -1    5871    5759
   9 -11   0   22536   11770
  -9  11  -1     864    3176
   9 -11   1     343    5941
  -9  11  -2   10995    5997
  -9  11  -3    2495    3214
  -9  11  -4    3957    3382
  -9  11  -5      16    1434
  -9  11  -6    1627    2184
   9 -11   6    4841    6363
  -9  11  -7    2977    2083
   9 -11   7    4279    4912
   9 -10  -8    1407    5109
   9 -10  -8       5    2176
   9 -10  -7    2329    3115
   9 -10  -7    8048    7031
   9 -10  -6      13    1633
   9 -10  -6    4255    7560
   9 -10  -5     730    2834
   9 -10  -5   11576    9996
   9 -10  -4    1042    2518
   9 -10  -4     442    8215
   9 -10  -3    9889   11116
   9 -10  -3    9668    5460
   9 -10  -3   16714   17914
   9 -10  -2    2000    9358
   9 -10  -1   66317   21535
   9 -10   0   39319   16567
  -9  10  -2   32464   11209
  -9  10  -3     288    2399
  -9  10  -4   22131    8253
   9 -10   4   24372    7238
  -9  10  -5    1113    2234
   9 -10   5    5130    3609
  -9  10  -6    2772    2571
   9 -10   6    1791    1983
  -9  10  -7     723    2905
   9 -10   7     432    1403
  -9  10  -8     174    1048
   9 -10   8      88    1895
   9 -10   8    2815    4231
  -9  10  -9     117    1277
   9 -10   9     117    1506
   9  -9  -9    1962    2686
   9  -9  -9    2231    3861
   9  -9  -8    4091    6736
   9  -9  -8    2066    2623
   9  -9  -7    2085    3735
   9  -9  -7       6    5399
   9  -9  -6    7534    5561
   9  -9  -6   16578   14946
   9  -9  -5     215    2998
   9  -9  -5       1    4874
   9  -9  -4    7901    4911
   9  -9  -4   17760   14359
   9  -9  -3   24011   10057
   9  -9  -3   11104    6939
   9  -9  -3   19342   19352
   9  -9  -2    1277    5871
   9  -9  -2     902    2387
   9  -9  -1   41177   17299
   9  -9   0    1371    6437
   9  -9   1    8353    7621
   9  -9   2     588    4295
   9  -9   3   17622    6926
  -9   9  -4    8596    5235
   9  -9   4   11581    5070
  -9   9  -5     438    1560
   9  -9   5    2655    4328
  -9   9  -6    7150    4989
   9  -9   6    1761    3872
  -9   9  -7    2671    3144
   9  -9   7      53    2285
  -9   9  -8    3454    3544
   9  -9   8      62    2188
  -9   9  -9    1921    2906
   9  -9   9    2381    2718
   9  -9   9     161    2663
  -9   9 -10      33    1850
   9  -9  10     948    1281
   9  -9  11     196    1451
   9  -8  -9    1910    2470
   9  -8  -9    4148    4311
   9  -8  -8      45    2814
   9  -8  -8    4711    7258
   9  -8  -7    4527    4369
   9  -8  -7   14500   10805
   9  -8  -6    1704    3821
   9  -8  -6   11967   11485
   9  -8  -5    6240    5277
   9  -8  -5    7162    9602
   9  -8  -4   41101   16491
   9  -8  -4    8060    7996
   9  -8  -4   15721   17773
   9  -8  -3    3177    9149
   9  -8  -3    6035    5751
   9  -8  -3    7076    8875
   9  -8  -2   19810   14444
   9  -8  -2   16747    9446
   9  -8  -1   17160   11686
   9  -8  -1      73    2794
   9  -8   0   44912   13862
   9  -8   0   44916   17507
   9  -8   1   12153    5017
   9  -8   2   20781    9392
   9  -8   3   35549   12502
   9  -8   4   17799    8585
  -9   8  -5   10536    6180
   9  -8   5    5297    5625
   9  -8   5   20212   11934
  -9   8  -6    1510    2675
   9  -8   6     864    4883
   9  -8   6     435    4295
  -9   8  -7    9439    5526
   9  -8   7    4132    3293
   9  -8   7    8940    8704
  -9   8  -8    1376    3031
   9  -8   8    3076    3882
   9  -8   8       7    4231
  -9   8  -9     565    1714
   9  -8   9    2039    3179
   9  -8   9    5023    6873
   9  -8   9    1801    4172
  -9   8 -10      14    1595
   9  -8  10      47    2854
   9  -8  10    1512    2469
  -9   8 -11    2788    2603
   9  -8  11    2228    2567
   9  -8  11    1735    2254
   9  -8  12     447    1076
   9  -7 -10     272    2040
   9  -7  -9       3    2620
   9  -7  -9      92    4061
   9  -7  -8     360    3194
   9  -7  -8    6516    9706
   9  -7  -7      46    2654
   9  -7  -7    7815    8739
   9  -7  -6     474    3470
   9  -7  -6   10366   13791
   9  -7  -5    7581    5194
   9  -7  -5     696    9024
   9  -7  -4    1296    3850
   9  -7  -4    3331    9093
   9  -7  -3   19627   15561
   9  -7  -3    6450    8100
   9  -7  -3    5400    5946
   9  -7  -2     337    8078
   9  -7  -2     638    4242
   9  -7  -1   24124   11478
   9  -7  -1   12380    8371
   9  -7   0   40525   15213
   9  -7   0   45302   17311
   9  -7   0   16099    9198
   9  -7   1    5027    4700
   9  -7   1   39393   16907
   9  -7   2   28038   19648
   9  -7   2   86149   19193
   9  -7   3   12317    6171
   9  -7   4   94842   20375
   9  -7   4  141502   32150
   9  -7   5    7041    3442
   9  -7   5   12331    9426
   9  -7   6      13    3716
   9  -7   6    2999    3982
  -9   7  -7    1753    3371
   9  -7   7    3013    4935
  -9   7  -8    3322    4028
   9  -7   8   13654    8789
  -9   7  -9    4128    3727
   9  -7   9    2384    6606
  -9   7 -10    2882    3397
   9  -7  10    3586    4998
  -9   7 -11    4666    3145
   9  -7  11    4988    4419
  -9   7 -12      43    1569
   9  -7  12    1101    2533
   9  -7  12     145    1528
   9  -7  13     377    1997
   9  -7  13     559    1899
   9  -6 -10    3408    6031
   9  -6 -10     739    2382
   9  -6  -9    2044    5438
   9  -6  -9     331    2317
   9  -6  -8     840    2672
   9  -6  -8     840    4397
   9  -6  -7      88    2046
   9  -6  -7    1121    4290
   9  -6  -6    3307    3864
   9  -6  -6     487    5306
   9  -6  -5    3742    4141
   9  -6  -5    1454    6950
   9  -6  -4    8206    6185
   9  -6  -4    1474    8561
   9  -6  -3    7713   12753
   9  -6  -3    1999    3979
   9  -6  -3     182    6173
   9  -6  -2   18619   14362
   9  -6  -2   29366   13253
   9  -6  -2    6547    6409
   9  -6  -1    7644    9018
   9  -6  -1    6910    8113
   9  -6  -1    1359    8333
   9  -6  -1    9465    7048
   9  -6   0    4178    4299
   9  -6   0    4875    7159
   9  -6   0    1089    6652
   9  -6   0    3759    5627
   9  -6   1   12005   13219
   9  -6   1   34564   13426
   9  -6   1   15235    9405
   9  -6   2   10265    7718
   9  -6   2    4587    5487
   9  -6   3    6558    9679
   9  -6   3   20531    9871
   9  -6   3    9241   11027
   9  -6   4   64221   28732
   9  -6   4   79193   18411
   9  -6   4  109285   28516
   9  -6   5    4365    4920
   9  -6   5   10692   11418
   9  -6   6   11515    6931
   9  -6   6   28884   15389
   9  -6   7       6    4218
   9  -6   7      49    4598
   9  -6   8   15645   12614
   9  -6   8   14846    8953
  -9   6  -8   14672    6546
   9  -6   9    2679    4695
   9  -6   9     124    4342
   9  -6  10     669    2522
   9  -6  10     213    8439
   9  -6  11    3512    5239
   9  -6  12     118    3684
  -9   6 -12    1780    2845
  -9   6 -13      45    1312
   9  -6  13     724    1963
   9  -6  14       8    1189
   9  -6  14     925    1199
   9  -5 -10     904    2180
   9  -5 -10    1855    2854
   9  -5  -9    1316    3859
   9  -5  -9     502    5762
   9  -5  -8     259    3287
   9  -5  -8     581    6384
   9  -5  -7     667    2866
   9  -5  -7     609    7666
   9  -5  -6    4198    3986
   9  -5  -6   24195   15611
   9  -5  -5    1181    4306
   9  -5  -5    2052    5937
   9  -5  -4   12726    7791
   9  -5  -4   26539   15123
   9  -5  -3    3461    9871
   9  -5  -3   14466    6764
   9  -5  -3   13671   10036
   9  -5  -2   17049   12207
   9  -5  -2   10020    7954
   9  -5  -2    9101   11749
   9  -5  -2   16017   11432
   9  -5  -1    6096    8483
   9  -5  -1   23675   14626
   9  -5  -1   26588   13105
   9  -5  -1   19500    7501
   9  -5   0     236    6656
   9  -5   0    5555    7678
   9  -5   0     236    9958
   9  -5   0    6386    4266
   9  -5   1    2868    9155
   9  -5   1    8232    8558
   9  -5   1    2015    4863
   9  -5   1     395    3691
   9  -5   2     370    3326
   9  -5   2     370    3296
   9  -5   2     370   10084
   9  -5   3     146   10813
   9  -5   3    4823    5066
   9  -5   3    7385    9635
   9  -5   4    9045    8757
   9  -5   4    1535    4309
   9  -5   4     585    7759
   9  -5   5    8664   10796
   9  -5   5    9227    4565
   9  -5   5   22665   11522
   9  -5   6     177    4567
   9  -5   6    2349    3845
   9  -5   6     108    9089
   9  -5   7    5291    8803
   9  -5   7    1803    4602
   9  -5   8    1144    4998
   9  -5   8    4783    5791
   9  -5   8    3474    7534
   9  -5   9    8834    9108
   9  -5   9   24032   11496
   9  -5   9    9807   15903
   9  -5  10    6283    7174
   9  -5  10    3111    7276
   9  -5  10    3406    9901
   9  -5  11     352    2504
   9  -5  11     352    7470
   9  -5  11     160    3740
   9  -5  12    8560    7017
   9  -5  12     428    4785
   9  -5  13     519    2802
   9  -5  14       6    3001
  -9   5 -14     729    1148
   9  -4 -10      66    4274
   9  -4 -10      66    2518
   9  -4  -9     107    3059
   9  -4  -9     158    3822
   9  -4  -8    1062    4028
   9  -4  -8    5836    7044
   9  -4  -7    7886    4700
   9  -4  -7    9817   10271
   9  -4  -6    2541    4951
   9  -4  -6    1301    5592
   9  -4  -5    8349    5922
   9  -4  -5    8360    8411
   9  -4  -4    6274    6205
   9  -4  -4   10623    7698
   9  -4  -3    6183    4119
   9  -4  -2   14625   14311
   9  -4  -2   18364    8525
   9  -4  -2    9589   12524
   9  -4  -1      45    6826
   9  -4  -1    7267    7263
   9  -4  -1    4783    7236
   9  -4  -1      45    4171
   9  -4   0     232    5973
   9  -4   0    3832    4997
   9  -4   0     232    3970
   9  -4   0    1678    4656
   9  -4   1    7602    8251
   9  -4   1   18023   13218
   9  -4   1    7832    6510
   9  -4   1    3907    4079
   9  -4   2   46704   23882
   9  -4   2   82133   20031
   9  -4   2   91847   20977
   9  -4   3   26177    8710
   9  -4   3   10419    9826
   9  -4   3   16565   12300
   9  -4   4    3811    3947
   9  -4   4   18260    8227
   9  -4   4   14409   10331
   9  -4   5   11626   12594
   9  -4   5   20080   17979
   9  -4   6     142    5883
   9  -4   6   10707   14205
   9  -4   6    3693    7732
   9  -4   7     100    2959
   9  -4   7   10008    6378
   9  -4   7    5318    8227
   9  -4   7    8153    7529
   9  -4   8     806    4250
   9  -4   8    8701    6952
   9  -4   8      46    6366
   9  -4   9   49395   16220
   9  -4   9    9084   10833
   9  -4   9   17808   18936
   9  -4  10      89    4255
   9  -4  10   10781    9220
   9  -4  10    1784    6645
   9  -4  11    4824    7251
   9  -4  11   10596    9095
   9  -4  11   12914   10461
   9  -4  12     122    6238
   9  -4  12    1916    9918
   9  -4  12     399    2596
   9  -4  13      30    2778
   9  -4  13      30    6524
   9  -4  13    4308    6241
   9  -4  14    1158    2689
   9  -4  15      68    1346
   9  -4  15      45    1700
   9  -3 -10      75    3742
   9  -3  -9     760    2352
   9  -3  -9    5978    7130
   9  -3  -8     222    1702
   9  -3  -8     222    5974
   9  -3  -7     729    1695
   9  -3  -7    1156    5705
   9  -3  -6     654    4043
   9  -3  -6    1336    8068
   9  -3  -5    2818    3526
   9  -3  -5     239    4278
   9  -3  -4     167    7156
   9  -3  -4     167    2214
   9  -3  -3   10889    7390
   9  -3  -2     161    7071
   9  -3  -2    5210    4526
   9  -3  -2    3037   13309
   9  -3  -1   98876   25879
   9  -3  -1   52203   13557
   9  -3  -1   46980   24117
   9  -3   0    5172   10558
   9  -3   0    2270    7209
   9  -3   0   15115    8621
   9  -3   0    4652    6932
   9  -3   1  120728   34239
   9  -3   2   32224   16759
   9  -3   3   51932   22612
   9  -3   4   49160   21443
   9  -3   5   39824   20588
   9  -3   6   44911   20802
   9  -3   6   60888   18392
   9  -3   6   87990   23247
   9  -3   7    2208    5026
   9  -3   7    3714    5003
   9  -3   7   11008    8644
   9  -3   7      13   12454
   9  -3   8   37776   13387
   9  -3   8   47282   18795
   9  -3   9   13556    9135
   9  -3   9    2412   10855
   9  -3  10   15649   10258
   9  -3  10   13583   14009
   9  -3  11   22653   12438
   9  -3  11    1685   10626
   9  -3  12    4706    7267
   9  -3  12   11923    8995
   9  -3  13   14531    9728
   9  -3  13   12581    8922
   9  -3  14    1041    4427
   9  -3  14    2259    5075
   9  -3  14    2097    4233
   9  -3  15    1856    2834
   9  -3  15   12066    7138
   9  -3  16    1246    2224
   9  -2  -9    2006    3623
   9  -2  -8    1575    4521
   9  -2  -8     332    1881
   9  -2  -7     939    3309
   9  -2  -7     356    7582
   9  -2  -6    6814    3990
   9  -2  -6   13893    9461
   9  -2  -5    2156    2863
   9  -2  -4    3553    8156
   9  -2  -4    2619    3935
   9  -2  -3    1439    2094
   9  -2  -2   27414    9410
   9  -2  -2   50463   27046
   9  -2  -1    7662    9264
   9  -2  -1   11071    4792
   9  -2  -1    4364   14073
   9  -2   0     321   11157
   9  -2   1   26264   17506
   9  -2   2   39471   20420
   9  -2   3  135895   35866
   9  -2   4    4354   11573
   9  -2   5   53417   26131
   9  -2   6   12633   13026
   9  -2   7   10921   10080
   9  -2   7    7977    8012
   9  -2   8   12178    8362
   9  -2   8    6264   13955
   9  -2   9      29   10448
   9  -2   9   11264   10460
   9  -2  10   51989   17096
   9  -2  10   17234   16730
   9  -2  11       8    5445
   9  -2  11       8    6464
   9  -2  12   42513   15951
   9  -2  12   18678   16797
   9  -2  13   14594   10407
   9  -2  13    1475    8790
   9  -2  14   17294    9775
   9  -2  14     110    4584
   9  -2  15     178    2023
   9  -2  15    1647    4237
   9  -2  15      76    5966
   9  -2  16      10    2149
   9  -2  16     792    3318
   9  -1 -10       1    8096
   9  -1  -8    1254    4251
   9  -1  -7    3617    2692
   9  -1  -7    3811    6768
   9  -1  -6      13    2178
   9  -1  -5    8252   10116
   9  -1  -5    5096    4881
   9  -1  -4    5839    6246
   9  -1  -4    7571    4979
   9  -1  -3      31    7119
   9  -1  -3   10166    5403
   9  -1  -2   17061    8820
   9  -1  -2   29302   20783
   9  -1  -1    1994    8170
   9  -1  -1   12948   17186
   9  -1   0   24272   18622
   9  -1   1    2120    7967
   9  -1   2   96176   30066
   9  -1   3   67174   26440
   9  -1   4   22521   18700
   9  -1   5     455    6333
   9  -1   6   29216   17840
   9  -1   7   41916   23630
   9  -1   8    2772   10762
   9  -1   8   23931   17691
   9  -1   9   29521   17882
   9  -1  10    1496    5556
   9  -1  10    3386    4849
   9  -1  10    5477    9009
   9  -1  10   12695   15904
   9  -1  11   25263   13000
   9  -1  11    8816    6994
   9  -1  11   31814   17997
   9  -1  12    2270    6689
   9  -1  12   15522   14128
   9  -1  13   17407   11767
   9  -1  13    1808    6515
   9  -1  14   20256   10760
   9  -1  14    2523    7713
   9  -1  15    3901    5637
   9  -1  15    6683    5528
   9  -1  16    4421    2856
   9  -1  16     334    2657
   9  -1  16    8244    7052
   9  -1  17      99     895
   9   0 -10    1768    9181
   9   0  -9     482   10698
   9   0  -6    2693    3687
   9   0  -5    2944    8634
   9   0  -5      40    1736
   9   0  -4    8582    8599
   9   0  -4     399    3931
   9   0  -3   18403   12287
   9   0  -3   11925    6971
   9   0  -2       8    5544
   9   0  -2       8    8197
   9   0  -2     273    3101
   9   0  -2   12109   14335
   9   0  -1   19513   16365
   9   0  -1   29767   24144
   9   0   0   26038   17292
   9   0   0   13734   10297
   9   0   1   50684   26139
   9   0   1   72021   28002
   9   0   2   87789   31148
   9   0   2   98027   33818
   9   0   3    6614    9817
   9   0   4  142881   37283
   9   0   5    2944   11894
   9   0   6   64763   28624
   9   0   7   32954   17461
   9   0   8   26698   14414
   9   0   9   19751    9783
   9   0   9    3513    6664
   9   0  10      28    5765
   9   0  10   15805    9395
   9   0  10    7854    6475
   9   0  10   14025   15185
   9   0  11    2551    5316
   9   0  11    3020    6654
   9   0  11      55    4302
   9   0  12      81    6476
   9   0  12   14176    9695
   9   0  12   16866   11348
   9   0  12    5355   10961
   9   0  13     165    9318
   9   0  13    4044   10228
   9   0  14     194    7949
   9   0  14     238    7780
   9   0  15    5732    6490
   9   0  15   12979   10291
   9   0  16    1776    3860
   9   0  16     119    4022
   9   0  17     282    1789
   9   0  17     854    3668
   9   1 -10     856    5065
   9   1  -9    1920    8738
   9   1  -8       2    8588
   9   1  -6      54    7639
   9   1  -5      55    7089
   9   1  -4   10551   12784
   9   1  -4    3670    4862
   9   1  -3    3505    8052
   9   1  -3     966    4917
   9   1  -2    6581    9970
   9   1  -2   16153   15921
   9   1  -2    5346    6022
   9   1  -2    1481    6540
   9   1  -1    2519    5277
   9   1  -1   12883   11930
   9   1   0    2248    5835
   9   1   0      17   12126
   9   1   1   16719   15428
   9   1   1   29710   21325
   9   1   2   18277   14879
   9   1   2    7917   12563
   9   1   3  139799   41509
   9   1   3  159079   43077
   9   1   4   28195   17696
   9   1   5   31126   18724
   9   1   6   17040   11998
   9   1   7   10335    6848
   9   1   8   26560   16767
   9   1   9      87    7009
   9   1   9    1576    3976
   9   1  10   18617   10321
   9   1  10    9114   14527
   9   1  10   19733   10810
   9   1  10    7912    4670
   9   1  11    4089    6387
   9   1  11      85   10460
   9   1  11      85    8754
   9   1  11      85    8607
   9   1  12   15121    9523
   9   1  12   12600    9489
   9   1  12    7917   12754
   9   1  13    6504    8331
   9   1  13   29675   13462
   9   1  13   50041   17634
   9   1  13   11064   13999
   9   1  14    2523    6365
   9   1  14   15699   10976
   9   1  14      42    6653
   9   1  15   11676    7913
   9   1  15    3647    7206
   9   1  16    2067    4174
   9   1  16    3410    3641
   9   1  17      55    3747
   9   1  17   10126    6452
   9   2 -10      82    4797
   9   2  -9     103    7004
   9   2  -8    4477    9114
   9   2  -7    4508   12654
   9   2  -6    3471    5305
   9   2  -5    3339    7003
   9   2  -4   12531    9871
   9   2  -3    7538    5916
   9   2  -3     164   11096
   9   2  -2   18302   15046
   9   2  -2   11862   14629
   9   2  -2    5937    6389
   9   2  -1     385    4654
   9   2  -1    4490    7308
   9   2  -1   10777   15075
   9   2   0    2588    4336
   9   2   0      57   13140
   9   2   1      25   10056
   9   2   1     835   11059
   9   2   2    8923   10701
   9   2   2   19745   18012
   9   2   3   13157   13535
   9   2   3    3724    6804
   9   2   4   11699   13449
   9   2   4    5595    6021
   9   2   5    4725    7885
   9   2   6   19744   16918
   9   2   7   21773   13879
   9   2   8      27    5999
   9   2   9   24787   21821
   9   2  10   26828   16388
   9   2  10    4728    6185
   9   2  11   19826   10032
   9   2  11     219    5803
   9   2  11   25485   11079
   9   2  11    2401    5722
   9   2  12   46331   16367
   9   2  12   32453   14045
   9   2  12   12490   12216
   9   2  13   16143   10400
   9   2  13     515    6076
   9   2  13     139    5960
   9   2  14   10745    9014
   9   2  14   22988   11688
   9   2  14   29146   13597
   9   2  14   19710   13900
   9   2  15      42    5238
   9   2  15    1950    4064
   9   2  16   15095    7412
   9   2  16   10668    7567
   9   2  17    4145    3678
   9   2  17    3234    5757
   9   3  -9      76    5288
   9   3  -8     319    9461
   9   3  -7    2202    7970
   9   3  -6      10    4274
   9   3  -6    2623   15346
   9   3  -5     472    5084
   9   3  -5    2542   14403
   9   3  -4     105    6744
   9   3  -3      29    8447
   9   3  -3    9777   13179
   9   3  -2    6021    9962
   9   3  -2      68    8196
   9   3  -1   31202   15333
   9   3  -1   14597   14857
   9   3  -1   23109   17728
   9   3   0   10897   12871
   9   3   0    6564   13904
   9   3   1   18993   15231
   9   3   1   21176   18176
   9   3   2   15892   15133
   9   3   2   29191   23058
   9   3   3    3395   11721
   9   3   3   11103   10033
   9   3   4   56029   27864
   9   3   4   35231   20770
   9   3   5      63    7676
   9   3   5      63    5114
   9   3   6   62770   27377
   9   3   7   42936   22696
   9   3   8   43416   22235
   9   3   9   63605   28827
   9   3   9   51946   22089
   9   3   9   74777   19927
   9   3  10   15956   15310
   9   3  10   14691    7763
   9   3  10     202    6809
   9   3  11   52953   16209
   9   3  11   16578   13260
   9   3  11    9536   13746
   9   3  12     245    4949
   9   3  12      20   11398
   9   3  13   21923   12365
   9   3  13   26170   13429
   9   3  13    1377    6339
   9   3  14   14708    9616
   9   3  14   13961   10050
   9   3  14    1277    5834
   9   3  15      27    6188
   9   3  15    5708    6812
   9   3  15   11154    8907
   9   3  15    1219    6036
   9   3  16      45    3535
   9   3  16   13326    8688
   9   3  16     803    6078
   9   3  17    7051    4516
   9   3  17    2861    4600
   9   3  18    2299    3454
   9   4  -9      37    6919
   9   4  -8     747    5203
   9   4  -7     404   12625
   9   4  -6    3177    4579
   9   4  -6     818   12497
   9   4  -5     554    3298
   9   4  -5    6084   15919
   9   4  -4     238    5705
   9   4  -4     238   13070
   9   4  -3      50   10483
   9   4  -3      50    6845
   9   4  -2      20    7980
   9   4  -2      20    6205
   9   4  -2    2646   14783
   9   4  -1    3894    2912
   9   4  -1    5504    8461
   9   4  -1    5445   12616
   9   4  -1    1387   14085
   9   4   0    6966    8215
   9   4   0       7    7852
   9   4   0   15135   16051
   9   4   1   26180   18744
   9   4   1   33952   24944
   9   4   2    6276   12519
   9   4   2   11048   15881
   9   4   3   64925   29535
   9   4   3   58964   27829
   9   4   4   11067   14468
   9   4   4    5029   15616
   9   4   5   12986   15150
   9   4   5    3844    9117
   9   4   6   31887   19480
   9   4   6    2341   11297
   9   4   7     208    6449
   9   4   8   83997   33929
   9   4   8   20777   16808
   9   4   9      23   14766
   9   4   9      23    5930
   9   4  10   53332   24806
   9   4  10   77327   16730
   9   4  10   45594   17405
   9   4  11   14180   27288
   9   4  11   19861   10282
   9   4  11      25    3649
   9   4  12   29706   13443
   9   4  13   13305    9349
   9   4  13    4976    6975
   9   4  14      29    9341
   9   4  14      29    8948
   9   4  14      29    5234
   9   4  15    5690    6232
   9   4  15    2544    5635
   9   4  15   16518   10148
   9   4  15     783    5159
   9   4  16      32    3908
   9   4  16    6503    6744
   9   4  16    2631    5407
   9   4  17   14470    5591
   9   4  17    7385    7618
   9   4  18    3055    3757
   9   5  -8      98    8946
   9   5  -7    3357    5615
   9   5  -6    1532    2622
   9   5  -6    4879   13984
   9   5  -5     223    3691
   9   5  -5     823   14567
   9   5  -4    6867    5812
   9   5  -4    3739    7058
   9   5  -4    3877   14771
   9   5  -3     543    2734
   9   5  -3    1932    6931
   9   5  -3    2623    7431
   9   5  -2    2365    3043
   9   5  -2    6196    9612
   9   5  -2    6338   12676
   9   5  -2   11481   12506
   9   5  -1    1701    3392
   9   5  -1     102    7600
   9   5  -1     102    4174
   9   5  -1     102    8301
   9   5   0    2318    4064
   9   5   0     314    3519
   9   5   0    9915   16523
   9   5   1    9119    7445
   9   5   1    6557    6543
   9   5   1   10469   14851
   9   5   2   34128   22417
   9   5   2   21831   18413
   9   5   3   51138   27371
   9   5   3   51864   25702
   9   5   4   17192   16279
   9   5   4   12454   16557
   9   5   5   72610   30078
   9   5   5   46469   20375
   9   5   6    5303   13939
   9   5   6    2065    8686
   9   5   7    6218   10702
   9   5   8    4656    9616
   9   5   8     209    7649
   9   5   9   14314   18466
   9   5   9   49038   17314
   9   5  10      63    5215
   9   5  10     253    7107
   9   5  10      63    5257
   9   5  11   25850   26023
   9   5  11   22794   13568
   9   5  12   45786   14143
   9   5  13   28872   12508
   9   5  13   32286   12739
   9   5  14   38023   15029
   9   5  14   55121   17570
   9   5  15     389    4756
   9   5  15    1112    5986
   9   5  15      65    7065
   9   5  16   12052    7264
   9   5  16   10568    7689
   9   5  16    3133    8046
   9   5  17      44    5963
   9   5  17     553    3088
   9   5  18     934    1866
   9   6  -8     428    4125
   9   6  -7     254    6999
   9   6  -6    3677    5616
   9   6  -6     197   10292
   9   6  -5     275    2365
   9   6  -5     275    2835
   9   6  -5     275    9877
   9   6  -4     383    2672
   9   6  -4     760    6977
   9   6  -4     237    7181
   9   6  -3    9804    7551
   9   6  -3    6517   14151
   9   6  -3   14020   30651
   9   6  -2   10185    6907
   9   6  -2   15789   10293
   9   6  -2    2954   18113
   9   6  -1   17011    9939
   9   6  -1   19688   10930
   9   6  -1    8442    7667
   9   6  -1    3469   21516
   9   6   0   47462   18043
   9   6   0   45587   15369
   9   6   0   29399   22885
   9   6   0    9706   30389
   9   6   1    8317    6667
   9   6   1       2    9114
   9   6   1   10769   14540
   9   6   2  157920   28253
   9   6   2   73133   18702
   9   6   2   74729   36243
   9   6   3   10313   11234
   9   6   3      22    6181
   9   6   3    3043    5569
   9   6   4   88831   25713
   9   6   4   45021   28021
   9   6   5      34   17942
   9   6   6   68047   13725
   9   6   6   73399   31788
   9   6   7   46510   12617
   9   6   7   73326   17970
   9   6   8    6989    5196
   9   6   9   28386   31729
   9   6   9   36867   15951
   9   6  10      74    5766
   9   6  10      74   16999
   9   6  10    2378    7809
   9   6  11   32759   14099
   9   6  11   13906   13500
   9   6  11   29326   13926
   9   6  12    9216   20643
   9   6  12    9632   11433
   9   6  13   24960   12564
   9   6  14      58    7115
   9   6  14   15530    9563
   9   6  15   15684    9454
   9   6  15   28731   12298
   9   6  15   16888   10407
   9   6  16     253    3758
   9   6  16   21853    9404
   9   6  16   23885   10154
   9   6  16    5690    5688
   9   6  17    1937    2665
   9   6  17    6423    5307
   9   6  17    1524    2584
   9   6  18    1554    2619
   9   7  -7      50    6177
   9   7  -6     172    2474
   9   7  -6    9324   10988
   9   7  -5     891    3990
   9   7  -5     964    4477
   9   7  -5     359   14133
   9   7  -4    2838    5442
   9   7  -4    1903    5731
   9   7  -4      31   10326
   9   7  -3    4285    3671
   9   7  -3     325    8418
   9   7  -3     630    9839
   9   7  -2   12680    7104
   9   7  -2    9308    9655
   9   7  -2    1957   12962
   9   7  -1    5706    7008
   9   7  -1    2176    7879
   9   7  -1    1231   11146
   9   7   0    3399    6901
   9   7   0    2062    6908
   9   7   0      65    7704
   9   7   0      70   11438
   9   7   1  101295   25793
   9   7   1   85042   21207
   9   7   1   59310   32782
   9   7   1   14454   30902
   9   7   2      24    4960
   9   7   2     452    4993
   9   7   2      24   12153
   9   7   3   42219   10493
   9   7   3   48999   14557
   9   7   3   49960   27380
   9   7   3   43958   12095
   9   7   4   83771   26201
   9   7   4   24665    8871
   9   7   4   25460   10395
   9   7   4   40048   29889
   9   7   4   36976   11440
   9   7   5   51827   17844
   9   7   5   32021    9465
   9   7   5   26504   19339
   9   7   5   38703   12903
   9   7   6   27819   10285
   9   7   6   22163   19483
   9   7   6   49644   16227
   9   7   7     197    4597
   9   7   7    1372    3237
   9   7   8  139350   22388
   9   7   8  139363   29183
   9   7   9     101   13567
   9   7   9    7631    7256
   9   7  10   52071   14597
   9   7  10   74117   37465
   9   7  10   76742   22585
   9   7  11   59840   20331
   9   7  11   61443   29558
   9   7  11   92415   25220
   9   7  12      44    6813
   9   7  12   18914   22159
   9   7  12      44    6155
   9   7  13   26166   13097
   9   7  14     191    6446
   9   7  14   15508    9697
   9   7  15   18073   10090
   9   7  15   46886   14903
   9   7  16    9198    6676
   9   7  16     729    3013
   9   7  17    5765    3311
   9   7  17    1223    2848
   9   8  -6    9265    3558
   9   8  -6      49    5191
   9   8  -6     612    6292
   9   8  -5     754    4327
   9   8  -5     269    2310
   9   8  -5     137    8294
   9   8  -4    2261    2784
   9   8  -4    5349    6627
   9   8  -4    7216   13221
   9   8  -3    3102    3711
   9   8  -3    3349    4273
   9   8  -3     589    9975
   9   8  -2   10017   10440
   9   8  -2    2164    6680
   9   8  -2    2769   16792
   9   8  -1     170    3675
   9   8  -1    4911    8860
   9   8  -1    1506   11139
   9   8   0    5347    6403
   9   8   0    2576    5884
   9   8   0    1396   10172
   9   8   1    2106    7427
   9   8   1    5563    7923
   9   8   1    1506   12647
   9   8   2   32208   17292
   9   8   2   17058   10220
   9   8   2   12680   15638
   9   8   2    4488   15719
   9   8   3   21859   15846
   9   8   3    3126    3365
   9   8   3   12451    8512
   9   8   3    4489    5677
   9   8   3    3858    6349
   9   8   4   13322   14546
   9   8   4      82    2269
   9   8   4    1615    5026
   9   8   4    1816    7142
   9   8   4      95    3457
   9   8   5   25885   15148
   9   8   5   17357    7067
   9   8   5   16654    7562
   9   8   5   24146   20027
   9   8   5   15697    8513
   9   8   6    7252    7199
   9   8   6    1895    7491
   9   8   6    3878    7299
   9   8   7   34633   12871
   9   8   7   50311   25499
   9   8   7   66886   19810
   9   8   8   11006    9086
   9   8   8   30326   13396
   9   8   9   18506    9097
   9   8   9   28901   10081
   9   8   9   34966   27377
   9   8   9   30564   14648
   9   8  10    8392    7555
   9   8  10    8582   12641
   9   8  10   13521   12289
   9   8  11    6053    7901
   9   8  11    6652    9310
   9   8  11    7256    8260
   9   8  12   69516   21014
   9   8  12   74681   39317
   9   8  12   70355   21163
   9   8  13     991    8250
   9   8  13      65    4928
   9   8  14   39533   14373
   9   8  14   55320   15492
   9   8  15     177    6751
   9   8  15    1461    4538
   9   8  15     177    3061
   9   8  16     156    4124
   9   8  16     156    4345
   9   8  17    5786    4754
   9   8  17      59    2278
   9   9  -5    4253    3599
   9   9  -5     213    1840
   9   9  -4    2438    4590
   9   9  -4   11386    7446
   9   9  -4    1600    8385
   9   9  -3   10232    7289
   9   9  -3    9503    8189
   9   9  -3    7585   13330
   9   9  -2      17    4835
   9   9  -2     272    5194
   9   9  -2      17   12050
   9   9  -1    7123    7806
   9   9  -1   11948    8937
   9   9  -1     541   11530
   9   9   0    2607    7247
   9   9   0      27    6450
   9   9   0    7102   15598
   9   9   1     849    5804
   9   9   1      15    5327
   9   9   2    8533   10276
   9   9   2   13167    8592
   9   9   2    3294    4629
   9   9   3    1309    6194
   9   9   3     166    2815
   9   9   3    6880    8289
   9   9   3    1484    3807
   9   9   4    4703   13030
   9   9   4    2604    3038
   9   9   4    3435    5281
   9   9   4    4817    5348
   9   9   5    2998    7809
   9   9   5    2655    4345
   9   9   5    2057    3862
   9   9   5    3687    4799
   9   9   5    1566    5616
   9   9   6    7514    5388
   9   9   6   15288   12158
   9   9   7   19120    8998
   9   9   7    9355    8983
   9   9   8   11750    8246
   9   9   8   18104   10023
   9   9   9    9939    8649
   9   9   9    2089    3707
   9   9   9    3829    6920
   9   9  10   21380    9209
   9   9  10   26630   10281
   9   9  10   10852   27062
   9   9  10   19677   12083
   9   9  11   13231    7387
   9   9  11   14482    9815
   9   9  11   16444   11944
   9   9  12      51    8453
   9   9  12   14336   15013
   9   9  12    8769    6593
   9   9  13    2371    6288
   9   9  13    6394    7943
   9   9  15   12833    7335
   9   9  15    9312    6235
   9   9  16   33473   10166
   9   9  16   33678   10019
   9   9  16      62    3385
   9   9  17      48    2935
   9  10  -4    4283    4665
   9  10  -4    3847    3186
   9  10  -3    1966    5269
   9  10  -3    4041    3786
   9  10  -2    2047    6206
   9  10  -2    8191    7073
   9  10  -1   11708    7922
   9  10  -1    8238    5650
   9  10   0      37    6990
   9  10   0    2030    3848
   9  10   1   21582   12082
   9  10   1    6980    8612
   9  10   1    8514    5219
   9  10   2    5494    9008
   9  10   2    3221    3727
   9  10   2    1456    3443
   9  10   2    5498    4883
   9  10   3    1744    1770
   9  10   3    8151    6911
   9  10   3    7388    5991
   9  10   4    2929    4088
   9  10   4    1421    2709
   9  10   4    4299    5793
   9  10   5    2200    8767
   9  10   5     106    2760
   9  10   5    1507    4110
   9  10   5      92    7081
   9  10   6   15682    7693
   9  10   6   36107   12794
   9  10   7    2151    6092
   9  10   7    2650    7495
   9  10   8   29875   13470
   9  10   8   54369   21128
   9  10   9    2911    5851
   9  10   9     107    5314
   9  10   9     107   12733
   9  10   9    4090    7655
   9  10  10   22648   10100
   9  10  10   10896    8675
   9  10  10    8665   22430
   9  10  10   17588   10697
   9  10  11    2693    4573
   9  10  11    8920    8975
   9  10  11    5529    5686
   9  10  12      69    7655
   9  10  12   11995   15595
   9  10  12      69    6207
   9  10  13    3623    6428
   9  10  13      95    3479
   9  10  15   10992    6629
   9  10  15   25367    8620
   9  10  16     649    2720
   9  10  16    9161    4883
   9  11  -4      49    3980
   9  11  -3    6519    5120
   9  11  -3     215    3468
   9  11  -2    9333    6334
   9  11  -2     249    4875
   9  11  -1    2182    5444
   9  11  -1      45    4469
   9  11   0   18690   12106
   9  11   0    1002    6322
   9  11   1   15534    9881
   9  11   1    5420    6865
   9  11   1    1951    3584
   9  11   2   14519   13074
   9  11   2    4571    3342
   9  11   2   14784    9454
   9  11   2   10498    6541
   9  11   3    5351    4346
   9  11   3   12034    8375
   9  11   3   11241    7615
   9  11   4      35    8232
   9  11   4     493    2379
   9  11   4    7726    4440
   9  11   4      35    4418
   9  11   5    2771    8388
   9  11   5    5204    4125
   9  11   5   13402    7331
   9  11   5    2963    4860
   9  11   6     565    5145
   9  11   6    5146    7334
   9  11   7   11890    8720
   9  11   7   16425   13619
   9  11   8   32087   12203
   9  11   8   46704   18232
   9  11   9    2384    4664
   9  11   9     634    4519
   9  11   9     234   11407
   9  11   9     823    6199
   9  11  10    6764    7463
   9  11  10   13428    8731
   9  11  10       5    9766
   9  11  10    6237    6570
   9  11  11      46    4749
   9  11  11      46   10480
   9  11  11      46    6685
   9  11  12    5081    6099
   9  11  12   13801   19969
   9  11  12   13769   10056
   9  11  13    5287    4319
  -9 -11 -13     313    3268
   9  11  13    3718    4107
   9  11  14    5330    4276
   9  11  15     204    2838
   9  11  15     104    3665
   9  11  16    6434    3526
   9  11  16   11460    4144
   9  12  -3       8    3931
   9  12  -2    1166    3446
   9  12  -2      69    2624
   9  12  -1    1534    3290
   9  12  -1      46    2995
   9  12   0   13328    7592
   9  12   0    6555    4066
   9  12   1    2970    4683
   9  12   1      52    5082
   9  12   1    1435    1962
   9  12   2   25427   13636
   9  12   2   11450    8340
   9  12   2    5494    5044
   9  12   3      68    7284
   9  12   3     742    2733
   9  12   3      68    4721
   9  12   3      68    2160
   9  12   4    2775    6770
   9  12   4    2894    3182
   9  12   4     889    2830
   9  12   4    6320    5666
   9  12   5    1917    3070
   9  12   5    1271    3114
   9  12   5     148    4361
   9  12   6    2859    2862
   9  12   6    1964    4801
   9  12   7    5026    5901
   9  12   7     149    5546
   9  12   8     109    5006
   9  12   8     109    4657
   9  12   9    3707    6020
   9  12   9    9587    6512
   9  12   9      55    6776
   9  12   9   12935   10852
   9  12  10       4    6981
   9  12  10       4    3309
   9  12  10    3561    9707
   9  12  10       4    7934
   9  12  11    9366    6838
   9  12  11    7249   13314
   9  12  11    9870    7936
   9  12  12    1412    4997
   9  12  12   14766   15947
   9  12  12   18307    9229
   9  12  13    4956    5743
  -9 -12 -13    2450    4648
   9  12  13    4686    5501
   9  12  14      18    3523
   9  12  14   12458    4278
   9  12  15    1687    2500
   9  13  -1      26    5823
   9  13   0      19    4104
   9  13   0    2336    3366
   9  13   1    2232    3751
   9  13   1    1795    3555
   9  13   1     914    1679
   9  13   2      19    4353
   9  13   2      19    2994
   9  13   2    1838    2042
   9  13   3    7121    4808
   9  13   3    1690    2184
   9  13   3    2384    2795
   9  13   3    3928    3264
   9  13   4     678    3248
   9  13   4     748    2375
   9  13   4      73    2750
   9  13   5    4097    3821
   9  13   5    5659    5529
   9  13   6    6631    5630
   9  13   6   17693   10025
   9  13   7      37    3738
   9  13   7      37    4307
   9  13   8   12008    6587
   9  13   8   12274   16724
   9  13   8   22835   12488
   9  13   9   10372    6141
   9  13   9      17    9543
   9  13   9    3349    4916
   9  13  10   12673    6046
   9  13  10   10730    5676
   9  13  10   10350   11596
   9  13  10   16098    8345
   9  13  11    3854    3912
   9  13  11   10853   13202
   9  13  11   10056    7296
   9  13  12      64    4465
   9  13  12      64    2802
   9  13  13   12877    5520
  -9 -13 -13    9199    6278
   9  13  13   18576    7083
   9  13  14      30    2194
   9  14   2       0    3138
   9  14   3    1324    2126
   9  14   3    2108    3067
   9  14   4     389    2369
   9  14   4     911    2871
   9  14   5    3503    2640
   9  14   5   11103    6504
   9  14   6     344    2237
   9  14   6      47    4241
   9  14   7    4937    3454
   9  14   7    3882   12504
   9  14   7   17587    8549
   9  14   8    2010    3512
   9  14   8    5601    4754
   9  14   8       3    3004
   9  14   9    6360    3888
   9  14   9    1004    6627
   9  14   9    8003    7388
  -9 -14 -10    7568    6880
   9  14  10   20299    8603
   9  14  11      36    4696
   9  14  11      36    3995
   9  14  12    1270    2071
  -9 -14 -12   10697    6602
   9  14  13    3855    2857
   9  15   4    2287    2237
   9  15   5     959    1461
   9  15   5    1625    3831
   9  15   5    3431    3787
   9  15   6    4289    2916
   9  15   6      27    5799
   9  15   6    6281    5113
   9  15   7    5173    4328
   9  15   7    2953    3949
   9  15   8    2251    3334
   9  15   8       9    4279
   9  15   9   16460    7397
   9  15  10    2721    3106
   9  15  11    1168    1986
   9  16   7       8    1206
   9  16   8    4332    3019
  10 -12  -3      38    2035
  10 -12  -2    1699    4504
  10 -12  -1     389    3869
  10 -12  -1      10    2183
  10 -12   0    9863    6455
  10 -12   0    2461    3945
  10 -12   1     432    2543
  10 -12   2   10395    6667
  10 -12   3    5040    3742
  10 -12   4      56    2757
  10 -12   5    5921    3816
  10 -11  -5     986    2679
  10 -11  -4       1    2698
  10 -11  -3    4013    6540
  10 -11  -2    2028    4430
  10 -11  -2    2038    5003
  10 -11  -1   11575    7277
  10 -11  -1    3391    8201
  10 -11   0   13540    8688
  10 -11   1      29    3925
  10 -11   2   34709   10587
  10 -11   3    5113    6893
  10 -11   4   16681    9551
  10 -11   5      72    3334
  10 -11   6    3745    4445
  10 -11   7       9    2248
  10 -10  -6      30    3182
  10 -10  -6   10028    5233
  10 -10  -5      14    2014
  10 -10  -5    1787    3069
  10 -10  -4       7    3676
  10 -10  -4    7653    7975
  10 -10  -3      94    3859
  10 -10  -3   23709   12716
  10 -10  -2    8373    8194
  10 -10  -2   11332    7248
  10 -10  -1   58346   18204
  10 -10   0      31    6454
  10 -10   1   30699   12884
  10 -10   2   12555    8078
  10 -10   3   31865   13436
  10 -10   4   13706    4161
  10 -10   4   22393    8754
  10 -10   5     672    2471
  10 -10   5     112    5285
  10 -10   6    4279    2779
  10 -10   6    3798    3144
  10 -10   7    2530    2701
  10 -10   7    2011    3195
  10 -10   8     172    1695
  10 -10   8       5    1528
  10  -9  -8      21    2300
  10  -9  -7    1491    1536
  10  -9  -7    7196    4901
  10  -9  -6     198    2266
  10  -9  -6      35    3212
  10  -9  -5    3336    3370
  10  -9  -5     941    5849
  10  -9  -4    9083    5164
  10  -9  -4    5747    8734
  10  -9  -3     634    3890
  10  -9  -3      93    3783
  10  -9  -2   34393   14708
  10  -9  -2   13343    6674
  10  -9  -2   14095   12876
  10  -9  -1   17524    9937
  10  -9  -1     182    4089
  10  -9   0   32642   15272
  10  -9   1   13577   10144
  10  -9   2   33397   10189
  10  -9   2   36888   13851
  10  -9   3   44555   11628
  10  -9   3   81121   19095
  10  -9   4    4141    5521
  10  -9   4    5908    8191
  10  -9   5    9746    6163
  10  -9   5   24135   12197
  10  -9   6      25    2584
  10  -9   6      42    4614
  10  -9   7    6412    4083
  10  -9   7   13572    8448
  10  -9   8     176    2205
  10  -9   8       4    2638
  10  -9   9    1252    1301
  10  -9  10    4143    2074
  10  -8  -8    1982    2997
  10  -8  -7   10596    7425
  10  -8  -7    2332    3706
  10  -8  -6     209    1961
  10  -8  -6      28    5118
  10  -8  -5    2932    3735
  10  -8  -5    7002    8444
  10  -8  -4      34    3568
  10  -8  -4    2216    5360
  10  -8  -3    4674    4653
  10  -8  -3    3691    7740
  10  -8  -2    7299    6280
  10  -8  -2   10286    7125
  10  -8  -2    9575   10373
  10  -8  -1      93    4405
  10  -8  -1    3907    5127
  10  -8   0   30723   14970
  10  -8   0     405    4953
  10  -8   1    2734    5540
  10  -8   1    2673    5911
  10  -8   2   18401   10809
  10  -8   2   22858   13386
  10  -8   3    1028    5019
  10  -8   3    2788    4680
  10  -8   4   39068   11332
  10  -8   5     120    4168
  10  -8   6   23427    8719
  10  -8   7    3535    2971
  10  -8   7   10937    8485
  10  -8   8       1    2318
  10  -8   8     440    4116
  10  -8   8    2573    3733
  10  -8   9       9    2515
  10  -8   9       9    1820
  10  -8   9    4192    5887
  10  -8  10     934    2524
  10  -8  11    1852    2576
  10  -7  -9      41    2934
  10  -7  -8     196    1723
  10  -7  -8      79    2123
  10  -7  -7      34    2272
  10  -7  -7    3580    5069
  10  -7  -6    6942    3571
  10  -7  -6    5423    7138
  10  -7  -5    1818    2952
  10  -7  -5     938    4463
  10  -7  -4   12469    6609
  10  -7  -4    2884    7544
  10  -7  -3    5566    6136
  10  -7  -3    7292   10916
  10  -7  -2   27427   16379
  10  -7  -2    9929    6057
  10  -7  -2    6161    8490
  10  -7  -1   93025   24845
  10  -7  -1   47922   13656
  10  -7   0      98    4335
  10  -7   0     161    3950
  10  -7   1  114488   26358
  10  -7   1   86009   23679
  10  -7   1   36167   10748
  10  -7   2   15491   11697
  10  -7   2     745    4049
  10  -7   3   98121   21271
  10  -7   3  103401   22722
  10  -7   4  104035   21258
  10  -7   5   13845    8210
  10  -7   6   24871   10104
  10  -7   6   23294   15645
  10  -7   7     866    3215
  10  -7   7       3    3641
  10  -7   8    3553    3809
  10  -7   8   12278    7911
  10  -7   9    2361    4592
  10  -7   9      32    5733
  10  -7   9     905    2673
  10  -7  10    1304    1912
  10  -7  10    4931    5555
  10  -7  11    1595    3237
  10  -7  11    2517    3709
  10  -7  12     495    1376
  10  -7  12    1088    2082
  10  -6  -9      45    3764
  10  -6  -8    3960    3553
  10  -6  -8     308    2444
  10  -6  -7     264    3111
  10  -6  -7    1256    4392
  10  -6  -6    2769    3035
  10  -6  -6    8008    7717
  10  -6  -5    1842    3195
  10  -6  -5      44    6849
  10  -6  -4    6219    6029
  10  -6  -4    5893    7353
  10  -6  -3    2163    4096
  10  -6  -3    3536    5450
  10  -6  -2   11315   11812
  10  -6  -2    9585    7877
  10  -6  -2    9788   10399
  10  -6  -1    2853    4470
  10  -6  -1      93    5378
  10  -6   0   39691   18624
  10  -6   0   41406   15566
  10  -6   0   17845   11443
  10  -6   1   39229   16108
  10  -6   1   27027   13413
  10  -6   1   17844    8682
  10  -6   2   31460   13434
  10  -6   2   13829    5827
  10  -6   3  206970   31853
  10  -6   3  174227   30056
  10  -6   4   24088    9735
  10  -6   5   48757   14891
  10  -6   5   75987   25022
  10  -6   6    5033    5464
  10  -6   6   13635   10690
  10  -6   7    2152    4010
  10  -6   7    9865    5538
  10  -6   7   15973   11783
  10  -6   8   30661   10927
  10  -6   8   17530    7913
  10  -6   8   22452   11898
  10  -6   8   28429   14641
  10  -6   9    7532    6183
  10  -6   9      22    4082
  10  -6  10    5955    8696
  10  -6  11    1932    3545
  10  -6  11      45    2786
  10  -6  12    3089    3072
  10  -6  12   12577    6677
  10  -6  13    1993    2480
  10  -6  13    3555    3548
  10  -5  -9       4    3751
  10  -5  -8    1064    2462
  10  -5  -8     131    3327
  10  -5  -7     296    3391
  10  -5  -7     296    3412
  10  -5  -6    1815    4053
  10  -5  -6    1936    4879
  10  -5  -5    2688    4312
  10  -5  -5    5517    5804
  10  -5  -4     705    7163
  10  -5  -4    1405    2725
  10  -5  -4      81    4425
  10  -5  -3     208    2488
  10  -5  -2   15805   12838
  10  -5  -2   13883    7145
  10  -5  -1    3053    6235
  10  -5  -1    8458    6845
  10  -5   0   12684    8659
  10  -5   0    8331    9222
  10  -5   0    8026    6984
  10  -5   0   15069    7817
  10  -5   1    6877   11395
  10  -5   1   15434    9889
  10  -5   1   13367   10599
  10  -5   1    5801    8121
  10  -5   2      49    7783
  10  -5   2   16938   12461
  10  -5   2    9798    8882
  10  -5   2      49    6737
  10  -5   3    5868    7020
  10  -5   3      65    5574
  10  -5   3    5094    6655
  10  -5   3      65    6022
  10  -5   4   17933   16552
  10  -5   4   17042    8380
  10  -5   4    7666    4995
  10  -5   4   20102   15659
  10  -5   5   15064   17670
  10  -5   5   23604    9373
  10  -5   5   29129   11875
  10  -5   5   35680   16563
  10  -5   6   19861    9248
  10  -5   6   25764   15814
  10  -5   7      20    4712
  10  -5   7    9356    6634
  10  -5   7   11986    9602
  10  -5   7   11671    9774
  10  -5   8      10    4075
  10  -5   8      10    4886
  10  -5   8      10    4299
  10  -5   9   22998   14288
  10  -5   9   23174   10538
  10  -5  10      81    5419
  10  -5  10    1302    4958
  10  -5  11    6300    6902
  10  -5  11    2428    5248
  10  -5  12    5561    6068
  10  -5  13      39    2485
  10  -5  13      54    2698
  10  -5  14     807    1836
  10  -5  14     629    1371
  10  -4  -9      38    3200
  10  -4  -8     821    2516
  10  -4  -7      86    2183
  10  -4  -7     174    4220
  10  -4  -6     545    2674
  10  -4  -6      78    4464
  10  -4  -5    2557    3488
  10  -4  -4      10    7849
  10  -4  -4      10    3007
  10  -4  -3     955    2728
  10  -4  -2   18639    8623
  10  -4  -1      99    6449
  10  -4  -1    1709    3442
  10  -4  -1    5449   10081
  10  -4   0      69    7387
  10  -4   0    2193    5800
  10  -4   0      69    4443
  10  -4   0      69    8838
  10  -4   1   28549   19479
  10  -4   1   26466   13989
  10  -4   1   21547   13165
  10  -4   1   14880    9258
  10  -4   2    4800    9526
  10  -4   2    4901    7815
  10  -4   2    6611    8151
  10  -4   2    1248    2774
  10  -4   3   12351   10605
  10  -4   3   17112    7800
  10  -4   3    5298    4230
  10  -4   3   12674    6124
  10  -4   4     135    9638
  10  -4   4    1069    4553
  10  -4   4      76    4849
  10  -4   4    1172    2852
  10  -4   4     130    5306
  10  -4   5   10879   14882
  10  -4   5   13513    6690
  10  -4   5    6617    6202
  10  -4   5   19751   13300
  10  -4   6    2806    3558
  10  -4   6    1173    4699
  10  -4   6    5440   14285
  10  -4   6     541    4432
  10  -4   7      91    4692
  10  -4   7      91    7798
  10  -4   7    3280    3639
  10  -4   7    5675    7657
  10  -4   8      70    4553
  10  -4   8    5927    6374
  10  -4   8      70    2835
  10  -4   8     510    6798
  10  -4   9    3117    7193
  10  -4   9    3383    5865
  10  -4   9    2690   10981
  10  -4  10     199    2642
  10  -4  10    7759    7857
  10  -4  10   11119    8931
  10  -4  11     140    4377
  10  -4  11    7027    7987
  10  -4  11     748    8653
  10  -4  12    1804    4021
  10  -4  12   12145    8329
  10  -4  12    1072    6897
  10  -4  13    1623    3037
  10  -4  13   14348    8339
  10  -4  14     380    2582
  10  -4  14       5    2694
  10  -4  15      11     976
  10  -3  -8     223    1713
  10  -3  -7    4733    3517
  10  -3  -6      29    1957
  10  -3  -5    2279    3581
  10  -3  -4    5589    7856
  10  -3  -4    2093    3415
  10  -3  -3    3097    6484
  10  -3  -3    3010    2749
  10  -3  -2    3475    5912
  10  -3  -1    7912   10153
  10  -3  -1    4223    4143
  10  -3  -1     237    4837
  10  -3   0   38601   17653
  10  -3   0   46188   18089
  10  -3   0   24750   11644
  10  -3   0   27701   20177
  10  -3   1    8691    8521
  10  -3   1   16994    9788
  10  -3   1    1800    4630
  10  -3   1    3567    6501
  10  -3   2    4842    7743
  10  -3   2     307    5255
  10  -3   2    8844    7725
  10  -3   2    2702    7225
  10  -3   3   46531   24470
  10  -3   3   86746   19917
  10  -3   3   90816   22122
  10  -3   3   66898   15937
  10  -3   4    1738   10502
  10  -3   4     319    4639
  10  -3   4     319    6638
  10  -3   4     945    3662
  10  -3   4    1959    7693
  10  -3   5    1303    3235
  10  -3   5     211    6127
  10  -3   5    4812    4414
  10  -3   5    4369    9973
  10  -3   5    1881    3171
  10  -3   6    9560    8600
  10  -3   6    6002    4294
  10  -3   6   12511    8684
  10  -3   6    5333   12772
  10  -3   7     133    4975
  10  -3   7     133    3514
  10  -3   7    2926    4733
  10  -3   7    1858    5726
  10  -3   7     133   12824
  10  -3   8    1469    6064
  10  -3   8   13872    8029
  10  -3   8    1167    7577
  10  -3   9     372    3136
  10  -3   9    3731    5752
  10  -3   9    7654    8005
  10  -3  10    5235    6525
  10  -3  10    3658    6068
  10  -3  10    2612    6829
  10  -3  11     770    4109
  10  -3  11    3010   10175
  10  -3  12    3010    5709
  10  -3  12    3465    6510
  10  -3  12    5089   11557
  10  -3  13      42    2957
  10  -3  13     704    4995
  10  -3  13      42    4707
  10  -3  14    2522    3849
  10  -3  14     201    3835
  10  -3  14    5739    8152
  10  -3  15     541    2610
  10  -3  15    2477    1856
  10  -2  -9     312    6196
  10  -2  -8     100    1497
  10  -2  -7    1536    2737
  10  -2  -6    1059    2443
  10  -2  -5      50    3972
  10  -2  -5    2244    2934
  10  -2  -4      17    6634
  10  -2  -4      60    3345
  10  -2  -3    4849    9421
  10  -2  -3    9352    6895
  10  -2  -2   21219    9412
  10  -2  -2   23433   19508
  10  -2  -1    4455    4462
  10  -2  -1   18654   12354
  10  -2   0  123463   28828
  10  -2   0   72605   16754
  10  -2   0   61830   29013
  10  -2   1   12896    9567
  10  -2   1    8430    8868
  10  -2   1   13165    7660
  10  -2   1    6162   12049
  10  -2   2   59332   18719
  10  -2   2   52088   17774
  10  -2   2   48734   15994
  10  -2   2   36421   23797
  10  -2   3   55589   14819
  10  -2   3   57073   17685
  10  -2   3   57061   14009
  10  -2   3   36866   20467
  10  -2   4   81068   17184
  10  -2   4   84989   19572
  10  -2   4   68352   18042
  10  -2   4   58635   28508
  10  -2   5   34363   10342
  10  -2   5   40136   13203
  10  -2   5   28983   11444
  10  -2   5   22537   16980
  10  -2   5   22032   12392
  10  -2   6    8489    7935
  10  -2   6   10086    6027
  10  -2   6    9154    6141
  10  -2   6    4756    3292
  10  -2   6    5021   10268
  10  -2   6   10428   11312
  10  -2   7   18907   10926
  10  -2   7   28013   10147
  10  -2   7   17046    7007
  10  -2   7   15849   10129
  10  -2   7   14066   16211
  10  -2   7   28565   18868
  10  -2   8    3182    4524
  10  -2   8    4766    8168
  10  -2   9   16133   12251
  10  -2   9   61740   17451
  10  -2   9   60646   19081
  10  -2  10      38    5629
  10  -2  10   16024   11946
  10  -2  11   25013   12656
  10  -2  11   12131   10856
  10  -2  12    9143    8793
  10  -2  12     513    5577
  10  -2  13      62    4791
  10  -2  13     923    5584
  10  -2  13      62    4518
  10  -2  14      69    3443
  10  -2  14    9985    7375
  10  -2  14    2768    6015
  10  -2  15    1063    3198
  10  -2  15      57    1774
  10  -2  15     187    2954
  10  -2  16    1530    1466
  10  -1  -9      96    5037
  10  -1  -7      44    4641
  10  -1  -6     963    2492
  10  -1  -5    4633    8445
  10  -1  -5    2314    3708
  10  -1  -4    4840    7928
  10  -1  -4       7    3649
  10  -1  -3   23653   13405
  10  -1  -3    7985    6201
  10  -1  -2      34    5931
  10  -1  -2      34    2127
  10  -1  -1    2509    3314
  10  -1  -1    8569   15471
  10  -1   0    4010    6556
  10  -1   0   11301   10946
  10  -1   1   36486   15341
  10  -1   1   41683   17666
  10  -1   1   38735   13286
  10  -1   1   15321   14021
  10  -1   2   53964   17097
  10  -1   2   92247   23063
  10  -1   2   58059   15944
  10  -1   2   48101   24945
  10  -1   3   15414   10054
  10  -1   3   17808   13023
  10  -1   3   16205    8464
  10  -1   3    1217   24539
  10  -1   4  136661   21253
  10  -1   4  124357   21886
  10  -1   4  133287   39908
  10  -1   5     104    3918
  10  -1   5    2254    6121
  10  -1   5    5200   10874
  10  -1   6   13384    6615
  10  -1   6   22942   13241
  10  -1   6   12418    7359
  10  -1   6   42123   26178
  10  -1   7    3863    5095
  10  -1   7    4798    3434
  10  -1   7    2858    8522
  10  -1   7   21594   14642
  10  -1   8   15024    9521
  10  -1   8   19265   17545
  10  -1   8   41531   24746
  10  -1   9   30625   12300
  10  -1   9   16376   14970
  10  -1  10    3860    6441
  10  -1  10    9968    7428
  10  -1  11   56966   18149
  10  -1  11   14959   15704
  10  -1  12    8655    9070
  10  -1  12     407    6836
  10  -1  13   22885   11173
  10  -1  13    6221   12173
  10  -1  14      48    4796
  10  -1  14    1158    6889
  10  -1  15    1283    2877
  10  -1  15    5607    5770
  10  -1  15    1256    1745
  10  -1  15    3662    8277
  10  -1  16      43    1785
  10  -1  16      43    4647
  10  -1  16     203    3070
  10   0  -9      54    4480
  10   0  -8    2850    8555
  10   0  -6       1    3912
  10   0  -5       1    8125
  10   0  -5    7819    5260
  10   0  -4    4700    6885
  10   0  -4    7910    5745
  10   0  -3    3329   10209
  10   0  -3    9607    6233
  10   0  -2       4    8959
  10   0  -2    7250    5133
  10   0  -1      15    5915
  10   0  -1    7849    6919
  10   0  -1   17322   15169
  10   0  -1   20961   16559
  10   0   0    1601    4075
  10   0   0    1687    4198
  10   0   0     139   13920
  10   0   1   37062   13984
  10   0   1   27473   22094
  10   0   2    7180    6405
  10   0   2      66   10576
  10   0   2    1288    3732
  10   0   2    7972    9297
  10   0   3  107667   39599
  10   0   4   12936   17460
  10   0   5  102397   37589
  10   0   6   30043    8562
  10   0   6   28950    9200
  10   0   6   40949   23464
  10   0   7   10423    4696
  10   0   7   25569   19752
  10   0   8   17758    9595
  10   0   8    9418    5907
  10   0   8   25746   15860
  10   0   8   25123   19134
  10   0   9    2220    5503
  10   0  10    6277   12080
  10   0  11    1941    4661
  10   0  11    6765    8299
  10   0  12   28749   13812
  10   0  12   22280   10304
  10   0  12   13327   14841
  10   0  13   20812   12340
  10   0  13    1427   10571
  10   0  14   23466   12128
  10   0  14    1491    8758
  10   0  15   13765    7922
  10   0  15    9366   10600
  10   0  16      41    1901
  10   0  16      41    4616
  10   0  16    3783    5820
  10   0  17    3192    2989
  10   1  -9       9    3766
  10   1  -8      19    9405
  10   1  -7     414    8276
  10   1  -5      42    7523
  10   1  -4     107    5781
  10   1  -4     107    6594
  10   1  -3   13474   12194
  10   1  -3    2596    3922
  10   1  -2   11890   10294
  10   1  -2    5561    6121
  10   1  -1       3    9216
  10   1  -1    1350    3952
  10   1  -1    1613   12027
  10   1  -1    5059    6032
  10   1   0     331    4734
  10   1   0       9    5811
  10   1   0    5661    9147
  10   1   0    9573   16183
  10   1   1       9    9021
  10   1   1    1427    8128
  10   1   1       9   17286
  10   1   2   46612   14944
  10   1   2   46759   27233
  10   1   2   44493   26210
  10   1   3   58912   28078
  10   1   4   25618   16016
  10   1   5   80362   35255
  10   1   6     134    5088
  10   1   6    1083    6696
  10   1   7   83879   34596
  10   1   8    6861   11485
  10   1   8    5512    3571
  10   1   8    7351    7579
  10   1   9   12018    5056
  10   1   9   18675   12574
  10   1  10   21789    9987
  10   1  10   35093   12733
  10   1  10   12842   10103
  10   1  11     117    5764
  10   1  11    5841   12020
  10   1  12   21880   10596
  10   1  12   10633   14031
  10   1  13    6942    8229
  10   1  13      69    4703
  10   1  13      69    6065
  10   1  13      69    5041
  10   1  14   14246    9275
  10   1  14    7425   10468
  10   1  15    7037    6874
  10   1  15     537    6015
  10   1  16   14004    6806
  10   1  16    3529    7620
  10   1  17     522    2035
  10   1  17      61    2933
  10   1  17     501    2591
  10   2  -9      18    5016
  10   2  -8     818    5596
  10   2  -7     211    7307
  10   2  -6     217    8274
  10   2  -5     130    3767
  10   2  -5     241    6358
  10   2  -4     134    8220
  10   2  -3    8525   11104
  10   2  -3     159    2538
  10   2  -2   14155   13274
  10   2  -2    5810    9856
  10   2  -2      94    6689
  10   2  -1   13313   11294
  10   2  -1    7719   18172
  10   2  -1    2509    2406
  10   2  -1    8447   17631
  10   2   0      10    6489
  10   2   0    4536    9889
  10   2   0      10    5898
  10   2   0    5983    7616
  10   2   1    2256    5233
  10   2   1    7753    7479
  10   2   1   15792   17578
  10   2   1   11953   10353
  10   2   2   21294    8439
  10   2   2   24397    9596
  10   2   2   18069   15746
  10   2   2   18550   10109
  10   2   3    5491   10230
  10   2   3   10987   15424
  10   2   4    4092   15183
  10   2   4    5640   13225
  10   2   5     204   15428
  10   2   6    3799    5920
  10   2   6   13314   15570
  10   2   7     309   10691
  10   2   7    3958   14149
  10   2   8   62495   31471
  10   2   8   38781   20267
  10   2   9   50539   31628
  10   2   9   18730   12786
  10   2  10   25555   10472
  10   2  10    8164    9549
  10   2  11   89953   20797
  10   2  11  111849   22024
  10   2  12    9636    8466
  10   2  12   20241   11195
  10   2  12     392    5028
  10   2  13    8684    7937
  10   2  13   18803   11048
  10   2  13    1159    6774
  10   2  14    4990    6926
  10   2  14    8635    7446
  10   2  14   28819   12618
  10   2  14    3856    7611
  10   2  15    5804    6370
  10   2  15    9512    8819
  10   2  16    7596    5892
  10   2  16    6926    6889
  10   2  17     194    1546
  10   2  17      37    2760
  10   2  17      37    3864
  10   3  -8     166    3335
  10   3  -7     589    8883
  10   3  -6    5134    4024
  10   3  -6    1470    5942
  10   3  -5     386    2949
  10   3  -5      33    7924
  10   3  -4    2031    5762
  10   3  -4    3176   12958
  10   3  -3    1304    4092
  10   3  -3      32    9426
  10   3  -2    7233    6406
  10   3  -2    2181   13190
  10   3  -1    3314   10223
  10   3  -1    5949    9793
  10   3  -1      18    4427
  10   3  -1      18    7403
  10   3   0   12486   12460
  10   3   0      36   14588
  10   3   0     305    2724
  10   3   0    2972   14999
  10   3   1      71   10351
  10   3   1    4809   14059
  10   3   1    3087    3719
  10   3   1      71    9173
  10   3   2    1362    5737
  10   3   2    3069    4757
  10   3   2    7602    5432
  10   3   2    5128    7367
  10   3   3   17836    8844
  10   3   3   24414   23918
  10   3   3   14895   17362
  10   3   4    7892    7388
  10   3   4    1536   12612
  10   3   5    2206    2930
  10   3   5    9567    6785
  10   3   6    1796    8538
  10   3   7     473   11425
  10   3   7    2582    9786
  10   3   8    5436   14083
  10   3   8    6618   10877
  10   3   8   12338   10891
  10   3   9      49    8922
  10   3   9      49   12878
  10   3   9    4062    5141
  10   3  10    3983   20923
  10   3  10       4    6495
  10   3  10    5465    3926
  10   3  11       1    8508
  10   3  11    1080    3658
  10   3  12   15953   10211
  10   3  12    7020    7247
  10   3  12    3099    8154
  10   3  13      98    8124
  10   3  13    3836    7013
  10   3  13      98    4538
  10   3  14      84    7117
  10   3  14      84    5685
  10   3  14      98    3920
  10   3  15     906    5051
  10   3  15    7471    7138
  10   3  15   26428   11891
  10   3  15    8082    8256
  10   3  16      73    5807
  10   3  16      73    3940
  10   3  17    1834    1795
  10   3  17      46    3220
  10   3  17    6320    5832
  10   4  -8     119    4460
  10   4  -7     343    5586
  10   4  -6    2232    3710
  10   4  -6     426    6910
  10   4  -5    6694    6479
  10   4  -5    2111    6579
  10   4  -4     327    5072
  10   4  -4     327    7977
  10   4  -3     258    5156
  10   4  -3    1841    6684
  10   4  -2     209    4549
  10   4  -2    1503   13637
  10   4  -1      75    9488
  10   4  -1     613   15380
  10   4   0       7    5461
  10   4   0       7    9280
  10   4   1    3005    7320
  10   4   1    1171    6187
  10   4   1   11687   17899
  10   4   1     750    4154
  10   4   1     152    8055
  10   4   2   18076    7075
  10   4   2   31824   16119
  10   4   2    1433   11412
  10   4   2    8829    6443
  10   4   2   17217   16080
  10   4   3   36055   15098
  10   4   3   28455    9891
  10   4   3   30801   27227
  10   4   3   32136   24123
  10   4   4    7755    4157
  10   4   4   15848   20272
  10   4   4    9657   13403
  10   4   5   23624   10020
  10   4   5   45850   29959
  10   4   5   49935   28716
  10   4   6    9009   13912
  10   4   7     855   17096
  10   4   7     713    5833
  10   4   7    1895    4956
  10   4   8    5811    7087
  10   4   8    2626    6772
  10   4   8    1178    3213
  10   4   9    3519   16649
  10   4   9      65    4046
  10   4  10   11245   14402
  10   4  10   17326    7989
  10   4  10    8406    8442
  10   4  11    7792   23347
  10   4  11   32613   11509
  10   4  11      13    6209
  10   4  12   14215    8551
  10   4  12       5    5306
  10   4  13    3274    6350
  10   4  13      51    8873
  10   4  13      51    6078
  10   4  14      89    5037
  10   4  14      89    5199
  10   4  14    4325    4446
  10   4  15      97    6429
  10   4  15      97    4963
  10   4  15      97    3603
  10   4  16   21112    8348
  10   4  16    5252    7229
  10   4  17    3900    3719
  10   4  17     348    3552
  10   5  -7      28    5565
  10   5  -6    1693    3788
  10   5  -6     155    7213
  10   5  -5    3726    4595
  10   5  -5     168    5511
  10   5  -4     326    6073
  10   5  -4     126   11014
  10   5  -3    5422    8708
  10   5  -3      66   10786
  10   5  -2    3405    6185
  10   5  -2    3357    7524
  10   5  -2    5320   14265
  10   5  -1    5199    7762
  10   5  -1     210    6512
  10   5  -1    1767   13032
  10   5   0      17    5181
  10   5   0    1122    8915
  10   5   1   13624    8658
  10   5   1    2233    6657
  10   5   1     162    6804
  10   5   2   59447   18995
  10   5   2   26038   16818
  10   5   2   24782   24927
  10   5   2   15662    8203
  10   5   3     123    8985
  10   5   3    5981    8134
  10   5   3    5975    5644
  10   5   3     123    7204
  10   5   3     123    7326
  10   5   4     149   14481
  10   5   4    7904    6861
  10   5   4    2633   10580
  10   5   4   18442   22190
  10   5   5    1879    5621
  10   5   5      92   14706
  10   5   5     469    8308
  10   5   6   17173   24644
  10   5   6    1112    8791
  10   5   6     559    6124
  10   5   7    5721   14661
  10   5   7    3066    5400
  10   5   8     299   14657
  10   5   8   10171    8912
  10   5   9   60727   32942
  10   5   9   59953   19915
  10   5  10   15840   15180
  10   5  10   12542   13609
  10   5  11   14102   24181
  10   5  11       7    5999
  10   5  11    7818    9029
  10   5  12   21059    9974
  10   5  12      19    5122
  10   5  13     426    5339
  10   5  13      42    5315
  10   5  14    4092    6175
  10   5  14    9997    7766
  10   5  14    1893    4578
  10   5  15    1676    4919
  10   5  15    2270    5316
  10   5  15      62    5101
  10   5  16      39    3987
  10   5  16     828    4698
  10   5  17    6471    4184
  10   5  17    1672    4103
  10   6  -7      12    4284
  10   6  -6      26    3136
  10   6  -6    1900    6464
  10   6  -5      37    3698
  10   6  -5      37    8831
  10   6  -4      40    3690
  10   6  -4      40   13310
  10   6  -3    2940    5660
  10   6  -3    6093    8053
  10   6  -3     244    8793
  10   6  -2    3124    5573
  10   6  -2    3310    8628
  10   6  -2     263    8906
  10   6  -1   11529    6475
  10   6  -1   12125   11538
  10   6  -1    1939   11389
  10   6   0    5390    7459
  10   6   0      42    4295
  10   6   0    3834    8761
  10   6   1   21614   11994
  10   6   1    5765    4937
  10   6   1     150   10339
  10   6   2     217    9657
  10   6   2     704    6998
  10   6   3   55657   20902
  10   6   3   22047   10886
  10   6   3   22606   18203
  10   6   4   18954    7573
  10   6   4    8129    6488
  10   6   4     414    4949
  10   6   4    1553    8376
  10   6   5    9742    6982
  10   6   5     187    4191
  10   6   5   10996   15327
  10   6   5   18025   10162
  10   6   6   30356   21567
  10   6   6   42150   13308
  10   6   7     228    9412
  10   6   8   46344   16846
  10   6   9   21297   24212
  10   6   9   28957   13256
  10   6  10   45364   32468
  10   6  10   81588   23805
  10   6  11    3046    9551
  10   6  11   18296    8165
  10   6  11    5584   10834
  10   6  12   24167   30446
  10   6  12   28902   10777
  10   6  12   21314   12652
  10   6  13   33777   11737
  10   6  13   12326    6478
  10   6  14    3761    6154
  10   6  14      19    5896
  10   6  15    6675    6853
  10   6  15   17954    9268
  10   6  15    1821    4894
  10   6  16    1118    3615
  10   6  16    6145    5727
  10   6  16       0    2758
  10   6  17    2709    3022
  10   6  17    1233    4317
  10   7  -6     688    2711
  10   7  -5    3575    4499
  10   7  -5      67    6076
  10   7  -4    7509    5558
  10   7  -4    3958    5880
  10   7  -4    1423   11748
  10   7  -3    7042    6529
  10   7  -3      64    4446
  10   7  -3      64    6528
  10   7  -2    4907    6093
  10   7  -2   11123    8801
  10   7  -2     186    8804
  10   7  -1     107    3378
  10   7  -1    7162    8263
  10   7  -1    3929    6838
  10   7   0   10064    8788
  10   7   0    4966    8011
  10   7   0    1397   12095
  10   7   1    1109    7704
  10   7   1      91    5363
  10   7   2   36097   17195
  10   7   2   16755   10894
  10   7   3   80813   25661
  10   7   3   32537   16212
  10   7   3   28479   26011
  10   7   4   26555   14084
  10   7   4       8    2398
  10   7   4    6442    5001
  10   7   4    6805    8989
  10   7   4   10640    7525
  10   7   5   43320   12384
  10   7   5   55494   14467
  10   7   5   93533   42998
  10   7   5   75691   17232
  10   7   6   16308    7650
  10   7   6      88   13033
  10   7   6   15877   10325
  10   7   7   24358   11231
  10   7   7   41489   15856
  10   7   8   64565   18113
  10   7   9    2488   12006
  10   7   9      11    7292
  10   7  10   40227   24413
  10   7  10   48096   19146
  10   7  11      18    6259
  10   7  11     202   10676
  10   7  11   11632   11114
  10   7  12   18022   25486
  10   7  12   30527   10135
  10   7  12   16210   12311
  10   7  13   22031    9279
  10   7  14    1211    5132
  10   7  14    2038    1797
  10   7  15     861    4310
  10   7  15    5577    5679
  10   7  15     540    3821
  10   7  16     125    3416
  10   7  16      48    5113
  10   7  16     386    2785
  10   7  17      42    2223
  10   7  17     629    2147
  10   8  -5      64    3363
  10   8  -4    4504    4993
  10   8  -4    3382    4763
  10   8  -4    1535    4446
  10   8  -3    3414    5018
  10   8  -3     612    5146
  10   8  -3     249    6971
  10   8  -2    5884    6479
  10   8  -2      55    5433
  10   8  -2    1621    8559
  10   8  -1    3911    6573
  10   8  -1     222    4959
  10   8  -1    1017    9456
  10   8   0    6896    8733
  10   8   0       2    4339
  10   8   0       2    5351
  10   8   1   13278    9793
  10   8   1    9741    9225
  10   8   1    4181    6398
  10   8   2   43424   20142
  10   8   2   23388   14390
  10   8   3   17951   14857
  10   8   3    8288    8166
  10   8   4   10626    5752
  10   8   4   23435   11500
  10   8   4   21098    9682
  10   8   5   31929   16609
  10   8   5   13368    7113
  10   8   5   20460    9335
  10   8   5   23735   10646
  10   8   6    5521    3829
  10   8   6   14763    7520
  10   8   7   48126   13404
  10   8   7   69250   20306
  10   8   8   24518   11657
  10   8   8   32973   15952
  10   8   9   66712   39613
  10   8   9   95000   24382
  10   8  10      77   14205
  10   8  10    4170    4915
  10   8  11   47275   14227
  10   8  11   54833   28795
  10   8  11   53043   19227
  10   8  12   17167   19735
  10   8  12   18929    7570
  10   8  12   11832    9531
  10   8  13   15002    7397
  10   8  13   11323    9996
  10   8  14   37352   13601
  10   8  14   40447   11663
  10   8  15    4425    6013
  10   8  15    3837    5206
  10   8  16    7613    5695
  10   8  16   10517    5904
  10   8  17      67    3146
  10   8  17    8635    4290
  10   9  -4     465    1903
  10   9  -4      30    3819
  10   9  -3    1396    3815
  10   9  -3    3840    4524
  10   9  -2     705    3511
  10   9  -2       3    4311
  10   9  -1    9012    6878
  10   9  -1    4075    5973
  10   9   0    5833    3765
  10   9   0   22170   10072
  10   9   1    3311    4634
  10   9   1    1800    4694
  10   9   2   23354   15075
  10   9   2   12352    8101
  10   9   3    5017    7004
  10   9   3      82    4514
  10   9   3    5420    8271
  10   9   3    4395    5088
  10   9   4    4905    6507
  10   9   4     106    3277
  10   9   4   11485    9003
  10   9   4    3501    5129
  10   9   5    5795   10457
  10   9   5      49    4108
  10   9   5   11521    7685
  10   9   5   11609    8520
  10   9   6    2183    4658
  10   9   6   10445    6000
  10   9   7      10    6299
  10   9   7    4881    7928
  10   9   8   46894   13171
  10   9   8   53578   17928
  10   9   9    3392    6774
  10   9   9     656    4539
  10   9  10   27631   27197
  10   9  10   32432   15118
  10   9  11     245    3955
  10   9  11    1629    6535
  10   9  11   16477   11768
  10   9  12   10553    7246
  10   9  12   23303   26947
  10   9  12   18679    9836
  10   9  13   16224    7125
  10   9  13    7363    8150
  10   9  14    8064    5454
  10   9  15   23941    9599
  10   9  15   41793   10226
  10   9  16    9720    5316
  10   9  16     101    4317
  10  10  -4      18    3980
  10  10  -3     932    2632
  10  10  -3       3    3761
  10  10  -2    2864    5316
  10  10  -2    1115    3692
  10  10  -1    2323    4877
  10  10  -1    8164    7089
  10  10   0   13117    9130
  10  10   0    3224    6224
  10  10   1    9411    9501
  10  10   1    7492    6288
  10  10   2   14142   11818
  10  10   2      39    4237
  10  10   3    2454    2745
  10  10   3   11273    7735
  10  10   3    2951    3667
  10  10   4    4897    7263
  10  10   4      76    4094
  10  10   4    3272    3570
  10  10   4    1195    4117
  10  10   5    4939    4171
  10  10   5    3303    5793
  10  10   5    7578    5456
  10  10   6    4412    5279
  10  10   6      13    3295
  10  10   7   12377    7743
  10  10   7   11263    9967
  10  10   8      13    4923
  10  10   8   11414    8987
  10  10   9    5177    5525
  10  10   9      38   17832
  10  10   9    7557   10046
  10  10  10     236   16079
  10  10  10   11972    9309
  10  10  11     594    2711
  10  10  11     374   12662
  10  10  11    3630    6413
  10  10  12   14442    8621
  10  10  12   22793   20294
  10  10  12   19172   10767
  10  10  13      65    5671
  10  10  14       0    3180
  10  10  15      30    3940
  10  10  15      30    2096
  10  10  16    4751    3512
  10  10  16      56    3842
  10  11  -3       1    1571
  10  11  -2      18    2302
  10  11  -2      18    3363
  10  11  -1      39    5982
  10  11  -1    3940    4591
  10  11   0    3071    4841
  10  11   0     376    3598
  10  11   1    3411    5007
  10  11   1    2457    6874
  10  11   2   30630   16154
  10  11   2   17345    9434
  10  11   3      15    7569
  10  11   3     833    1796
  10  11   3    3573    4754
  10  11   3      15    2925
  10  11   4    2770    3193
  10  11   4    2399    2945
  10  11   5    2735    3044
  10  11   5   13275    7347
  10  11   5    4092    5253
  10  11   6       4    3750
  10  11   6    4165    5907
  10  11   7   20625    8680
  10  11   7   35557   13737
  10  11   8      23    4219
  10  11   8    9292    9853
  10  11   9   16961    7979
  10  11   9    8449   20384
  10  11   9   16608   10108
  10  11  10     153   11347
  10  11  10    3233    6819
  10  11  11   13251    5996
  10  11  11    4817   12291
  10  11  11   19384   11098
  10  11  12    5182    3907
  10  11  12   10213   15016
  10  11  12   11992    7824
  10  11  13    4924    6809
  10  11  15    4662    4401
  10  11  16    3897    2988
  10  12  -1       9    3820
  10  12  -1       9    2515
  10  12   0     192    3067
  10  12   0      21    3546
  10  12   1    1225    3480
  10  12   1    2602    2984
  10  12   2       8    7389
  10  12   2    1521    4263
  10  12   3    6821    4856
  10  12   3       3    3934
  10  12   3       3    3190
  10  12   4      21    1729
  10  12   4    1649    3040
  10  12   4      21    3098
  10  12   5      66    3583
  10  12   5      66    4004
  10  12   5      66    4609
  10  12   6     521    3496
  10  12   6    2437    4986
  10  12   7      15    5556
  10  12   7      15    4059
  10  12   8    5510    5891
  10  12   8   13191    9270
  10  12   9   10222    6260
  10  12   9    7282   15371
  10  12   9    3845    4333
  10  12  10    1154    9519
  10  12  10    7721    8118
  10  12  11    9078   12727
  10  12  11   29069   12342
  10  12  12     177    3933
  10  12  12   12562   17596
  10  12  12    1207    4748
  10  12  13      88    4476
  10  12  14      43    3097
  10  12  15    2435    2815
  10  13   1    4701    4288
  10  13   2      16    4178
  10  13   3      12    2518
  10  13   3    4246    2838
  10  13   4    1443    2017
  10  13   4    4444    3048
  10  13   5    2714    2166
  10  13   5    2143    2416
  10  13   6     110    3254
  10  13   6    2322    4231
  10  13   7    6310    3334
  10  13   7   12142    6842
  10  13   8    1715    4037
  10  13   8      15   12018
  10  13   8    9976    7092
  10  13   9      32    9588
  10  13   9       9    3469
  10  13  10      21    5542
  10  13  10   13052    6575
  10  13  11    8725   10672
  10  13  11    1788    4981
  10  13  12   10094    5920
  10  13  13    3420    3678
  10  13  14    5811    3532
  10  14   4    1935    2349
  10  14   5      34    1674
  10  14   6    7766    4752
  10  14   7    4070   10863
  10  14   7   12026    7076
  10  14   8      33    6310
  10  14   8     179    3440
  10  14   9     599    4287
  10  14   9   15724    7406
  10  14  10   12319    9703
  10  14  10    2684    3025
  10  14  11   10341    5869
 -10 -14 -12    3283    3662
  10  14  12    4286    3920
  10  15   6    3107    2827
  10  15   7      30    1516
  10  15   8    4073    3216
  10  15   9   11579    5578
  10  15  10       7    1518
  10  15  11     134    1412
  11 -12   2   10757    4459
  11 -12   3     958    2236
  11 -11   0    3123    4944
  11 -11   1   33618   10212
  11 -11   2    4616    6415
  11 -11   3   16251    7858
  11 -11   4   16508    6157
  11 -11   5      31    2089
  11 -11   6    4348    3513
  11 -10  -2     467    1214
  11 -10  -1    7559    8140
  11 -10  -1     385    1894
  11 -10   0    5077    6122
  11 -10   0    1161    2235
  11 -10   1   16055    9276
  11 -10   2    6058    6206
  11 -10   3   19134    9319
  11 -10   4     231    5223
  11 -10   5    6423    3209
  11 -10   5   12852    7128
  11 -10   6    1385     998
  11 -10   6    2368    2879
  11 -10   7    2487    3729
  11  -9  -6      44    1846
  11  -9  -5     354    1435
  11  -9  -4     314    2307
  11  -9  -3       9    4017
  11  -9  -3       9    3692
  11  -9  -3       9    2321
  11  -9  -2     614    1887
  11  -9  -2    2447    3100
  11  -9  -1      35    2177
  11  -9  -1     119    3830
  11  -9   0    8572    9605
  11  -9   1    3448    5583
  11  -9   2   29094   12075
  11  -9   3    5912    5771
  11  -9   3     156    4414
  11  -9   4    8186    6526
  11  -9   4   17580   10300
  11  -9   5    9111    4689
  11  -9   5   11128    7719
  11  -9   6     714    2846
  11  -9   6    3897    5188
  11  -9   7     969    2731
  11  -9   7      43    3823
  11  -9   8    1929    1581
  11  -9   8    1792    2091
  11  -9   9    2680    1940
  11  -8  -7      25    1749
  11  -8  -6     963    1891
  11  -8  -5      71    2551
  11  -8  -4     861    1985
  11  -8  -3    3818    4962
  11  -8  -3     864    2627
  11  -8  -2       2    5237
  11  -8  -1   17459   10253
  11  -8  -1    7368    6769
  11  -8   0    9285    8411
  11  -8   0      15    2508
  11  -8   1   39412   15174
  11  -8   2   20078    9226
  11  -8   2   14201    9696
  11  -8   3   11593    8353
  11  -8   3   12988    9215
  11  -8   4   28646    8921
  11  -8   4   49499   14057
  11  -8   5    4685    3794
  11  -8   5    8605    6148
  11  -8   6   10404    5613
  11  -8   6   19575   10389
  11  -8   7       1    2918
  11  -8   7    1563    4480
  11  -8   8    4044    3076
  11  -8   8    3629    4961
  11  -8   9       2    2577
  11  -8  10    3589    2869
  11  -8  11    2911    2025
  11  -7  -7       3    1533
  11  -7  -6    1733    2972
  11  -7  -5     694    2221
  11  -7  -4    9632    4883
  11  -7  -3    2528    3834
  11  -7  -2   11906    9279
  11  -7  -1   16156   12276
  11  -7  -1    4621    5978
  11  -7   0   29927   15088
  11  -7   0    7852    6691
  11  -7   1   54402   16761
  11  -7   1   57136   18290
  11  -7   1   31928    9807
  11  -7   2   30612   13631
  11  -7   2   21342   12126
  11  -7   3  106144   22548
  11  -7   3   94766   23470
  11  -7   4    8522    8450
  11  -7   4    2217    3969
  11  -7   5   77628   17098
  11  -7   5   98530   21745
  11  -7   6   14129    5869
  11  -7   6   24814   10800
  11  -7   7    6808    4770
  11  -7   7   12292    7415
  11  -7   8    4664    5017
  11  -7   8    8838    5248
  11  -7   9    1020    2908
  11  -7   9      26    1945
  11  -7   9      26    4155
  11  -7  10     938    3478
  11  -7  11    3234    2179
  11  -7  12    1356    1770
  11  -6  -8      42    1554
  11  -6  -7      39    3096
  11  -6  -6      94    2149
  11  -6  -5    3501    3894
  11  -6  -4    7042    6905
  11  -6  -4    2956    5060
  11  -6  -3    3681    6131
  11  -6  -2    9663    8052
  11  -6  -1   10551   10444
  11  -6  -1    9351    6793
  11  -6   0   43793   16821
  11  -6   0   26351    9833
  11  -6   1   16770   11036
  11  -6   1   11583    9198
  11  -6   1    6683    6833
  11  -6   2  138178   29487
  11  -6   2   94546   23518
  11  -6   2   74286   16987
  11  -6   3   57913   15197
  11  -6   3   36535   12101
  11  -6   3   27910   11009
  11  -6   4   59251   15104
  11  -6   4   43783   14344
  11  -6   5   58354   15536
  11  -6   5   53302   16388
  11  -6   6    6246    3653
  11  -6   6    4259    8335
  11  -6   7   24651    8966
  11  -6   7   28019   13976
  11  -6   8    1348    3914
  11  -6   8      64    3913
  11  -6   8    1008    5451
  11  -6   9   11236    5599
  11  -6   9   10732    6887
  11  -6   9   11440    9624
  11  -6  10     904    2710
  11  -6  10    2131    5129
  11  -6  11    2822    2640
  11  -6  11   20420    8410
  11  -6  12    2249    2254
  11  -6  12    5558    4687
  11  -6  13     883    1191
  11  -5  -8      39    1757
  11  -5  -7      93    2439
  11  -5  -6     171    2195
  11  -5  -5    1501    3419
  11  -5  -4       3    6921
  11  -5  -4       3    3205
  11  -5  -3      15    6526
  11  -5  -3    5003    5932
  11  -5  -2    1018    4348
  11  -5  -1   14965   11856
  11  -5  -1   12225    7680
  11  -5   0      40    5636
  11  -5   0    3021    6902
  11  -5   1    7626    8592
  11  -5   1    2138    8489
  11  -5   1    2275    3919
  11  -5   2    2454    5247
  11  -5   2    5443    7058
  11  -5   2     500    4247
  11  -5   3      32    5189
  11  -5   3    1460    4072
  11  -5   3      32    2634
  11  -5   4   31456   13140
  11  -5   4   26612   12491
  11  -5   4   17570    8965
  11  -5   5    2695    3903
  11  -5   5      79    4483
  11  -5   6   11159    8028
  11  -5   6   12756   10046
  11  -5   6   16723   11831
  11  -5   7    7221    5055
  11  -5   7    8015    6622
  11  -5   7   17155   10568
  11  -5   8      39    3362
  11  -5   8    9465    6272
  11  -5   8    4624    2922
  11  -5   8    5280    6286
  11  -5   9   12769    7584
  11  -5   9    8554    5221
  11  -5   9   10333   10494
  11  -5  10      96    2356
  11  -5  10       5    2765
  11  -5  11   27291    9974
  11  -5  11    2758    3318
  11  -5  11   16423    9169
  11  -5  12       9    1724
  11  -5  12     440    2600
  11  -5  13    3011    2672
  11  -5  13    1771    2988
  11  -5  14    1442    1778
  11  -4  -8    1521    1803
  11  -4  -7      25    3592
  11  -4  -6    2993    3621
  11  -4  -5    1811    3091
  11  -4  -4    7889    8142
  11  -4  -4    1769    2593
  11  -4  -3       3    8325
  11  -4  -3       3    2205
  11  -4  -2    6505    4611
  11  -4  -1   34320   11679
  11  -4   0   12783   11187
  11  -4   0    2221    5679
  11  -4   1    6511    7944
  11  -4   1     184    6420
  11  -4   1    1589    3925
  11  -4   2    8324    7220
  11  -4   2      45    4895
  11  -4   2    7302    3734
  11  -4   3   23596   11668
  11  -4   3   17199   10883
  11  -4   3    9982    8095
  11  -4   4      74    3124
  11  -4   4      74    4465
  11  -4   4    1562    4123
  11  -4   5    3495    4947
  11  -4   5    5898    5250
  11  -4   5    1089    4724
  11  -4   5     646    4600
  11  -4   6    4188    3906
  11  -4   6      20    4010
  11  -4   6    1939    6804
  11  -4   7    5999    4783
  11  -4   7    4151    4846
  11  -4   7    9249   11057
  11  -4   8   16596    8295
  11  -4   8    3869    3478
  11  -4   8    5020    5930
  11  -4   8    5730    7818
  11  -4   9     310    2787
  11  -4   9      10    5062
  11  -4   9    1002    3435
  11  -4  10     378    3288
  11  -4  10      10    2894
  11  -4  11     171    2483
  11  -4  11     359    2840
  11  -4  12     187    3960
  11  -4  12    3626    5101
  11  -4  12      44    3315
  11  -4  13   10613    6572
  11  -4  13    2890    4045
  11  -4  13       3    3036
  11  -4  14       5    2051
  11  -4  14     835    2999
  11  -3  -7       9    2908
  11  -3  -6    1219    2827
  11  -3  -5    2672    3423
  11  -3  -4   16010   10374
  11  -3  -4    2902    4626
  11  -3  -3      40    7211
  11  -3  -3      40    3285
  11  -3  -2     202    8453
  11  -3  -2    2394    5144
  11  -3  -1     529    5238
  11  -3   0    1917    9606
  11  -3   0    1454    5105
  11  -3   1    1606    5104
  11  -3   1     645    6247
  11  -3   1    3852    3359
  11  -3   1    6501    6985
  11  -3   2   12137   10493
  11  -3   2   11866   11152
  11  -3   2    4164    5856
  11  -3   2     983    9451
  11  -3   3   16135    9435
  11  -3   3   16483   10340
  11  -3   3    5659    7593
  11  -3   3   16919   15292
  11  -3   4    3565    8387
  11  -3   4     347    4230
  11  -3   4      38    5381
  11  -3   4    6870   11633
  11  -3   5      95    4796
  11  -3   5    3141    4167
  11  -3   5      95    2590
  11  -3   5    4797    9762
  11  -3   5    3930    5751
  11  -3   6    3331    4402
  11  -3   6    5168    5529
  11  -3   6     225    2014
  11  -3   6    2842    6668
  11  -3   7    4177    4663
  11  -3   7    3388    5879
  11  -3   7    2430    5508
  11  -3   8     107    4326
  11  -3   8    5382    5817
  11  -3   8     543    2548
  11  -3   8    4676    5989
  11  -3   9     928    4798
  11  -3   9    6296    6448
  11  -3   9      75    3089
  11  -3   9    2445    8996
  11  -3  10      65    5829
  11  -3  10    6874    6416
  11  -3  10      65    3228
  11  -3  10    1859    4984
  11  -3  11    3574    5448
  11  -3  11      67    2215
  11  -3  11    7532    8925
  11  -3  12     209    3706
  11  -3  12    4635    5844
  11  -3  12      67    2131
  11  -3  12     429    6182
  11  -3  13    1430    3059
  11  -3  13    2466    2475
  11  -3  14      59    2009
  11  -3  14      30    3681
  11  -3  14     955    1637
  11  -3  15     738    1913
  11  -2  -8     476    3496
  11  -2  -7      51    2773
  11  -2  -6      35    3838
  11  -2  -5    4542    5072
  11  -2  -5      29    1958
  11  -2  -4      27    5615
  11  -2  -4     915    1967
  11  -2  -3    5415    8056
  11  -2  -3     843    3697
  11  -2  -2     224    7474
  11  -2  -2    1572    4960
  11  -2  -1    5965    7647
  11  -2   0    3163    5698
  11  -2   0   11257   16474
  11  -2   1   19629   14103
  11  -2   1   11613    8754
  11  -2   1   13383   14051
  11  -2   2   24548   11193
  11  -2   2   19287   12481
  11  -2   2   11812    9163
  11  -2   2   30380   15429
  11  -2   3   35608   14221
  11  -2   3   32913   14980
  11  -2   3   43065   15835
  11  -2   3   18547   17807
  11  -2   4  119916   22135
  11  -2   4  129140   27728
  11  -2   4  119422   21862
  11  -2   4   53129   26487
  11  -2   5     258    2745
  11  -2   5   12082   10416
  11  -2   5     238    3406
  11  -2   5     258   15680
  11  -2   5     570    5573
  11  -2   6    7319    5801
  11  -2   6    8967    7458
  11  -2   6    2261    3351
  11  -2   6   16781   15918
  11  -2   6    6367    7488
  11  -2   7    2322    3955
  11  -2   7    4613    6417
  11  -2   7   16567   25498
  11  -2   7    1196    2228
  11  -2   8     547    3497
  11  -2   8    6889    6336
  11  -2   8    2602    4159
  11  -2   8    2085    8576
  11  -2   9    7444    6258
  11  -2   9   25940   11021
  11  -2   9    1332    2997
  11  -2   9    7097   12561
  11  -2  10    2407    5191
  11  -2  10      85    5167
  11  -2  10      85    3612
  11  -2  10    3364    5355
  11  -2  11    8536    6887
  11  -2  11   25567   11334
  11  -2  11    3050    2549
  11  -2  11    6930   10107
  11  -2  12     623    2993
  11  -2  12    9670    8320
  11  -2  12    1653    2227
  11  -2  12      28    6812
  11  -2  13    3060    4083
  11  -2  13   13012    8503
  11  -2  13       4    2779
  11  -2  13     977    7486
  11  -2  14     859    2445
  11  -2  14    8073    6425
  11  -2  14     902    1773
  11  -2  14    7652    7336
  11  -2  15    1103    2301
  11  -2  15       1    4071
  11  -2  15       1    1055
  11  -1  -8      72    3112
  11  -1  -7     778    4017
  11  -1  -6      35    2761
  11  -1  -5      28    6434
  11  -1  -5      28    4433
  11  -1  -4   12535    8061
  11  -1  -4    2971    2922
  11  -1  -3    6879   10046
  11  -1  -3    2904    2418
  11  -1  -2   17719   14236
  11  -1  -2    8309    7630
  11  -1  -1    4766    6760
  11  -1  -1    2965    3859
  11  -1   0    1966    6352
  11  -1   0     287   12115
  11  -1   1   35280   13810
  11  -1   1   14752   19585
  11  -1   2    6304    6745
  11  -1   2   11546   10589
  11  -1   2    1370    3870
  11  -1   3   43879   15386
  11  -1   3   52063   18961
  11  -1   3   49570   15022
  11  -1   3   47917   27168
  11  -1   4   28995   10042
  11  -1   4   35801   16149
  11  -1   4   24212   12004
  11  -1   4   20510   21230
  11  -1   5   33864   10343
  11  -1   5   50442   16817
  11  -1   5   36260   13383
  11  -1   5   60820   32851
  11  -1   6    7870    4813
  11  -1   6    9721    9108
  11  -1   6    3324    4817
  11  -1   6   22682   22494
  11  -1   6    5866    6138
  11  -1   7    5411    4008
  11  -1   7     834    3720
  11  -1   7    1435    5359
  11  -1   7   13248   14687
  11  -1   7    2630    4002
  11  -1   8   35002   11613
  11  -1   8   23980    8679
  11  -1   8   41254   18436
  11  -1   9    9238    7533
  11  -1   9   31792   12568
  11  -1   9    3833    3567
  11  -1   9   15580   11797
  11  -1  10    1484    3967
  11  -1  10    6731    6926
  11  -1  10    3588    3587
  11  -1  10    2760    8282
  11  -1  11    7965    8142
  11  -1  11   31176   13939
  11  -1  11    2019    3242
  11  -1  11   42873   15430
  11  -1  12      28    2338
  11  -1  12    6198    7681
  11  -1  12      28    2183
  11  -1  12      28    3736
  11  -1  13    6527    6113
  11  -1  13     355    1432
  11  -1  13   14248   12769
  11  -1  14    2054    2916
  11  -1  14      97    6914
  11  -1  14    1789    1869
  11  -1  14    1774    6219
  11  -1  15      45    2046
  11  -1  15    1286    3650
  11  -1  15      45    1360
  11  -1  15    4508    5686
  11  -1  16     632    2413
  11  -1  16      11    1857
  11   0  -8      38    2558
  11   0  -7     694    3738
  11   0  -6      18    3676
  11   0  -5      21    5618
  11   0  -5      21    4107
  11   0  -4    1587    4007
  11   0  -4      45    4976
  11   0  -3    3299    5337
  11   0  -3      60    5330
  11   0  -2     955    6171
  11   0  -2      54    2684
  11   0  -1    2458    5101
  11   0  -1      59    5173
  11   0   0      88    9716
  11   0   0     286    3243
  11   0   0    5082    9199
  11   0   1       4    3499
  11   0   1     144   17491
  11   0   2    9687    6950
  11   0   2    8485    7729
  11   0   2    3962   13442
  11   0   3    9298    8042
  11   0   3   11584   10329
  11   0   3   21963   15668
  11   0   4     916    2484
  11   0   4    4972    8151
  11   0   4    2827    5935
  11   0   4   10281   13163
  11   0   5   67106   14905
  11   0   5  122837   26874
  11   0   5   83425   18394
  11   0   5   71858   32030
  11   0   6    3572    4133
  11   0   6   14834   10293
  11   0   6    4813    4416
  11   0   6   12270   16127
  11   0   7   11390    6172
  11   0   7   23162   10511
  11   0   7    8100   12127
  11   0   8    5547    5000
  11   0   8    6644    4510
  11   0   8    4811    9696
  11   0   8   13947   17858
  11   0   9    3002    4178
  11   0   9    1261    3046
  11   0   9    3126    7926
  11   0  10    1919    4446
  11   0  10     326    2004
  11   0  10    2877   10276
  11   0  11      99    3468
  11   0  11      99    7907
  11   0  11     223    1788
  11   0  11      99    5882
  11   0  12    3788    4172
  11   0  12     301    1884
  11   0  12    4804   10594
  11   0  13      60    3371
  11   0  13    1765    5868
  11   0  13      60    4176
  11   0  13      94    4067
  11   0  14    2906    3721
  11   0  14   22558   10103
  11   0  14    3776    2310
  11   0  14    6429    8505
  11   0  15     174    2966
  11   0  15     581    4002
  11   0  16      58    1329
  11   0  16    9113    5370
  11   0  16    4094    5432
  11   1  -7      20    4825
  11   1  -6     224    6315
  11   1  -5      71    2973
  11   1  -5      71    4160
  11   1  -4     127    6365
  11   1  -4     127    2661
  11   1  -4     127    5897
  11   1  -3   10803   10724
  11   1  -3     158    2991
  11   1  -2     739    6649
  11   1  -2     110    3749
  11   1  -1      65    7495
  11   1  -1    2085    4011
  11   1   0      88   10424
  11   1   0      88    4687
  11   1   0      88    6107
  11   1   0      88   11850
  11   1   1     151    8278
  11   1   1     151    6442
  11   1   1     151   20547
  11   1   1     151   17875
  11   1   2     128    9715
  11   1   2     128    6065
  11   1   2    1341   14192
  11   1   3      37    3057
  11   1   3      19    3231
  11   1   3    3268   12609
  11   1   4    2605    3530
  11   1   4    1681    4131
  11   1   4       7   17647
  11   1   5    5215    3945
  11   1   5    2666    3499
  11   1   5    4856    7615
  11   1   6    2865    2460
  11   1   6      44    4438
  11   1   6      44    8807
  11   1   7      60    4584
  11   1   7     550    2115
  11   1   7      60    8921
  11   1   8    4845    2397
  11   1   8      61   13829
  11   1   9      93    1715
  11   1   9    6639    7536
  11   1  10    1480    3397
  11   1  10    3312    2813
  11   1  10    5495    8795
  11   1  11    5083    4744
  11   1  11   18817    8524
  11   1  11    1920    2431
  11   1  11    3121    8258
  11   1  12   16062    8278
  11   1  12    1095    2700
  11   1  12    2028    6143
  11   1  13    3896    6802
  11   1  13    7933    8604
  11   1  14    1296    3249
  11   1  14    4609    7028
  11   1  14    2028    7164
  11   1  15     151    3140
  11   1  15     151    5258
  11   1  16    3029    2094
  11   1  16   16442    6488
  11   1  16    3707    6246
  11   1  17      30    2616
  11   2  -7      15    3687
  11   2  -6    2372    5758
  11   2  -5    1787    6085
  11   2  -5     161    3841
  11   2  -4     593    3558
  11   2  -4    2675   11595
  11   2  -3    5712    5300
  11   2  -3    1101    3438
  11   2  -3    5011    9788
  11   2  -2    7112   10097
  11   2  -2     666    2835
  11   2  -1     125    7771
  11   2  -1     125    6010
  11   2   0    2097    7607
  11   2   0     148    2866
  11   2   0   10313    8279
  11   2   0    9535   14931
  11   2   1     543    6835
  11   2   1    5141    7316
  11   2   1   16647   17951
  11   2   2     214    8600
  11   2   2     214    4131
  11   2   2     214   15832
  11   2   2     214    5564
  11   2   3     213    7958
  11   2   3    3968    7187
  11   2   3     213   12003
  11   2   3     213   15071
  11   2   4     140    2506
  11   2   4    4800    5499
  11   2   4    1213    4191
  11   2   4     140   15696
  11   2   5    8180    5056
  11   2   5    4226    4450
  11   2   5    8828    4373
  11   2   5     948   16858
  11   2   6       6    3360
  11   2   6       6    8898
  11   2   6    2742    6433
  11   2   6       6   14914
  11   2   7    2387    8082
  11   2   7    6085    2434
  11   2   7   15630   16157
  11   2   8    4152    9952
  11   2   8     914    2014
  11   2   8    5917    8306
  11   2   9   13752   25550
  11   2  10   17711    8477
  11   2  10   22920    8714
  11   2  10    4170    4909
  11   2  11     168    3643
  11   2  11    7218    6530
  11   2  11     277    3225
  11   2  12    3588    5427
  11   2  12   13028    8279
  11   2  12    3170    8172
  11   2  13   16629    9499
  11   2  13    3706    7457
  11   2  14     176    6274
  11   2  14    6329    6193
  11   2  14     981    4547
  11   2  15    5924    3682
  11   2  15   16269    8452
  11   2  15    6489    6427
  11   2  16     303    1249
  11   2  16     159    4335
  11   2  17      87    2589
  11   2  17     664    2363
  11   3  -7      18    4666
  11   3  -6    2520    5300
  11   3  -5     180    3412
  11   3  -5     180    4260
  11   3  -4    5630    7330
  11   3  -4     230    4626
  11   3  -3     153    5633
  11   3  -3     153    5576
  11   3  -2    2604    5376
  11   3  -1    6864   11751
  11   3  -1    5656    5410
  11   3   0    6349   12088
  11   3   0    6833    6878
  11   3   1    4593    6224
  11   3   1   10934    8310
  11   3   1     170   11714
  11   3   1     170   13782
  11   3   2    2781    6348
  11   3   2    6028    5172
  11   3   2   14314   15550
  11   3   2     335    7099
  11   3   3   14732   10584
  11   3   3    9230    6598
  11   3   3    6050    8244
  11   3   3   16565   18042
  11   3   4     750    6353
  11   3   4    2676    7125
  11   3   4    6278   17847
  11   3   4    8585   15626
  11   3   5    4060    4350
  11   3   5    8829    3290
  11   3   5    7760    7133
  11   3   5     409   10152
  11   3   6     173   13432
  11   3   6     117    5579
  11   3   6     117   11049
  11   3   7   24026   21835
  11   3   7    9929    6682
  11   3   7   10911   12535
  11   3   8      71   13300
  11   3   8    3228    4573
  11   3   8    5139   10319
  11   3   9   12239   17555
  11   3  10   19149   26748
  11   3  11      91    4814
  11   3  11    4094    5011
  11   3  11    1780    3554
  11   3  12     908    5322
  11   3  12    8272    7386
  11   3  12     295    4002
  11   3  13    3378    6428
  11   3  13     370    5055
  11   3  13      99    3200
  11   3  14     376    6866
  11   3  14   12178    8117
  11   3  14    3243    5311
  11   3  14    6223    7811
  11   3  15    4933    6664
  11   3  15     203    3598
  11   3  16    8748    6198
  11   3  16    5099    5783
  11   3  17    5786    3595
  11   3  17     141    2523
  11   4  -6     110    4088
  11   4  -5     149    2499
  11   4  -5    3267    4696
  11   4  -4    2085    3734
  11   4  -4     152    6809
  11   4  -3    1596    6250
  11   4  -3     658   10188
  11   4  -2    1210    5212
  11   4  -2    1052    8080
  11   4  -1      51    9875
  11   4   0   15742   10659
  11   4   0      43    4128
  11   4   1   22962   14915
  11   4   1   13674    7483
  11   4   2   35170   18393
  11   4   2   29851   11696
  11   4   2   23344   21808
  11   4   2   27518   24335
  11   4   3    3174    8547
  11   4   3     514    4413
  11   4   3    2825   15852
  11   4   3    4510   15918
  11   4   4   28185   16000
  11   4   4   26430   12171
  11   4   4   30845   25456
  11   4   4   45465   33015
  11   4   5   10306    8444
  11   4   5    9561    9242
  11   4   5    1371    9273
  11   4   6   11007    9076
  11   4   6   11806   18165
  11   4   7   46495   41512
  11   4   7   34955   25182
  11   4   7   43989   14230
  11   4   8     215   14248
  11   4   8    5276   11300
  11   4   8    5291    6753
  11   4   9   36651   36786
  11   4   9   37681   14547
  11   4  10      85   15069
  11   4  11   25475   29520
  11   4  11   16926    8370
  11   4  12     387    6755
  11   4  12     387    2931
  11   4  13    4144    4860
  11   4  13    1661    2465
  11   4  14    7890    8060
  11   4  14    3960    6248
  11   4  14     111    2936
  11   4  15    2132    5820
  11   4  15    3649    6136
  11   4  15    6619    6752
  11   4  15     167    2835
  11   4  16    3575    4929
  11   4  16    3910    5647
  11   4  17    6447    4241
  11   4  17      69    1429
  11   5  -6     145    2916
  11   5  -5     407    2734
  11   5  -5     152    7150
  11   5  -4      91    5890
  11   5  -4      91    8939
  11   5  -3    3985    6554
  11   5  -3      42    9334
  11   5  -2      78    8302
  11   5  -2      78    5284
  11   5  -1    3628    4646
  11   5   0     121    5928
  11   5   0     121    5699
  11   5   1     370    5538
  11   5   1       8    5553
  11   5   2      62   10899
  11   5   2      62    9257
  11   5   2    3815    4513
  11   5   3   18869   12843
  11   5   3   20013   21090
  11   5   4    9492    9624
  11   5   4     269   12027
  11   5   4     269    7066
  11   5   5    3287    5141
  11   5   5    4472   11808
  11   5   5     454   17749
  11   5   6     325    5123
  11   5   6     729    7410
  11   5   6     152    5197
  11   5   7    3250    5933
  11   5   8    1732   14767
  11   5   8    1428    6334
  11   5   9    8462   15404
  11   5   9   10097    9521
  11   5  10   23063   30096
  11   5  10   37257   16890
  11   5  11   17484   24039
  11   5  12     507    5289
  11   5  13    1799    6168
  11   5  13    9144    7203
  11   5  13    2459    5462
  11   5  14   13571    8893
  11   5  14    5375    5513
  11   5  14     216    2455
  11   5  15     317    4185
  11   5  15    4917    5518
  11   5  15     514    2427
  11   5  16     322    6599
  11   5  16     534    1963
  11   5  17    6885    4378
  11   5  17     158    1576
  11   6  -5    3346    3165
  11   6  -5     941    3571
  11   6  -4      53    4673
  11   6  -4     216    6000
  11   6  -3    1220    4547
  11   6  -3      24    4095
  11   6  -2     101    2499
  11   6  -2    4726    8530
  11   6  -2    1234    6473
  11   6  -1    1927    4727
  11   6  -1     260    5609
  11   6  -1     160    3973
  11   6   0    3724    4776
  11   6   0     238    5273
  11   6   1    1575    6803
  11   6   1      59    5974
  11   6   2       1    7542
  11   6   2       1    6983
  11   6   3   10699    7151
  11   6   3   16291    9514
  11   6   4      25    7772
  11   6   5    5388    4374
  11   6   5     134    5910
  11   6   6     431   17512
  11   6   6     431    3993
  11   6   7    9925    8435
  11   6   8     489   24564
  11   6   8    1094    3948
  11   6   9    8503   12377
  11   6   9     401    5448
  11   6  10    3679   20726
  11   6  10    8024    4751
  11   6  11     615   13240
  11   6  11      17    7071
  11   6  12     766   19003
  11   6  13     272    6843
  11   6  14    9156    7314
  11   6  14     147    5635
  11   6  15    4796    6319
  11   6  15     195    5082
  11   6  15     665    3423
  11   6  16     483    3247
  11   6  16    9523    5414
  11   6  16    2450    2743
  11   6  17     495    2082
  11   7  -4    1859    3331
  11   7  -4      10    3727
  11   7  -3    3715    3048
  11   7  -3      23    4148
  11   7  -2    1145    2730
  11   7  -2     119    6651
  11   7  -2    1566    4758
  11   7  -1     605    3379
  11   7  -1    1261    5471
  11   7  -1     142    7219
  11   7   0    2992    3435
  11   7   0     309    4592
  11   7   1      48    5235
  11   7   1    5201    8102
  11   7   2    1352    5918
  11   7   2      64    4502
  11   7   3      31    7151
  11   7   3    1354    6441
  11   7   4   16639   10425
  11   7   5    7779    7092
  11   7   5     936    2916
  11   7   6    5781    5472
  11   7   7   36772   12374
  11   7   8     197    6706
  11   7   9   13826   16127
  11   7   9   14048   10875
  11   7  10     275   17664
  11   7  10    1595    6944
  11   7  11    3939   17962
  11   7  11     458    7427
  11   7  12   11985   19974
  11   7  12   12079   10722
  11   7  13     252    6049
  11   7  14    3687    6081
  11   7  14    1687    3520
  11   7  15      59    6349
  11   7  15      59    4252
  11   7  16   14675    6589
  11   7  16   18477    7559
  11   7  16    8469    4586
  11   7  17      21    2049
  11   8  -4       4    2725
  11   8  -3      26    4343
  11   8  -3    2747    4662
  11   8  -2     347    2277
  11   8  -2    4375    5595
  11   8  -1    4734    5449
  11   8  -1    3822    6043
  11   8   0    1030    4610
  11   8   0     860    7209
  11   8   1   14393    8126
  11   8   1   14138   10024
  11   8   2     155    7273
  11   8   2    4638    7519
  11   8   3   30722   13364
  11   8   3   10709   11099
  11   8   4    4967    6688
  11   8   5    9730    6149
  11   8   5    3111    5381
  11   8   6    2077    5234
  11   8   7      74    4718
  11   8   8   35720   14930
  11   8   9     939   16119
  11   8   9     344    3954
  11   8  10    5277   16147
  11   8  10   31937   14432
  11   8  11   23645   16132
  11   8  11   44281   16861
  11   8  12    1785   13548
  11   8  12     349    6337
  11   8  14   12448    8105
  11   8  14      20    4417
  11   8  15    2237    4400
  11   8  15       2    4740
  11   8  16       7    5001
  11   8  16    4725    3106
  11   9  -3      20    1997
  11   9  -2      74    3688
  11   9  -2    3269    5480
  11   9  -1     153    6161
  11   9  -1    2533    3788
  11   9   0    2484    2916
  11   9   0     143    4099
  11   9   1   14575    9135
  11   9   1    3733    6202
  11   9   2      81    4852
  11   9   2     950    4497
  11   9   3   15768   10525
  11   9   3   11458    7027
  11   9   4    6451    7700
  11   9   4    6848    5696
  11   9   5    1363    3222
  11   9   5    2425    5523
  11   9   6    1124    4509
  11   9   7     588    3410
  11   9   8   14875    8198
  11   9   9   17775   29209
  11   9   9   33090   13856
  11   9  10    5587   19485
  11   9  10   30640   15159
  11   9  11    2623    9731
  11   9  11      61    6243
  11   9  12   43906   30263
  11   9  12   45235   15059
  11   9  13    9622    7660
  11   9  14    7612    6557
  11   9  15   11808    6611
  11   9  16      59    2825
  11  10  -2    2146    3005
  11  10  -1      99    6081
  11  10  -1    3307    5489
  11  10   0      73    4509
  11  10   0    4508    5310
  11  10   1      16    5784
  11  10   1      16    3996
  11  10   2    1959    4178
  11  10   2    1305    3129
  11  10   3      18    9969
  11  10   3     454    4013
  11  10   4    3237    4114
  11  10   4    1414    3302
  11  10   5    9464    4987
  11  10   5    3569    4798
  11  10   6     335    3776
  11  10   7   26758   13044
  11  10   8    2705    5632
  11  10   9   18820   26664
  11  10   9   27685   13350
  11  10  10    4917   10516
  11  10  10    4663    5920
  11  10  11   13013   10540
  11  10  11    8076    6739
  11  10  12    7251   13656
  11  10  12    2608    4943
  11  10  13    9211    7237
  11  10  14      98    5666
  11  10  15      85    2900
  11  10  16    6366    3894
  11  11  -1      46    3188
  11  11   0      54    2754
  11  11   1    4367    5484
  11  11   2    5021    5836
  11  11   3    7076    6309
  11  11   4   12631    7425
  11  11   4    9942    4713
  11  11   5    3290    5790
  11  11   5    1354    3352
  11  11   6    5286    5387
  11  11   7    5022    3278
  11  11   8    4232    4377
  11  11   9    7279   23763
  11  11   9   22731    9760
  11  11  10   20129   21551
  11  11  10   19980   10738
  11  11  11   20268   24494
  11  11  11   43216   15282
  11  11  12    9497   15807
  11  11  12     304    3302
  11  11  13   14483    7919
  11  11  14     172    4332
  11  11  15   11065    5292
  11  12   0      29    2153
  11  12   1      14    2662
  11  12   2       5    3228
  11  12   3    1823    2924
  11  12   4      63    2995
  11  12   4    1320    2401
  11  12   5     129    3955
  11  12   5    3992    4277
  11  12   6     194    3286
  11  12   7    2720    4687
  11  12   8    4175   15360
  11  12   8   10008    5434
  11  12   9     436    9234
  11  12   9      92    3705
  11  12  10   12543   17655
  11  12  10   21533    9671
  11  12  11     185    7950
  11  12  11    4044    5676
  11  12  12    8385   15737
  11  12  12    8874    6130
  11  12  14    2118    2984
  11  13   3    1707    1355
  11  13   4    5800    3181
  11  13   5     166    2407
  11  13   6     171    2836
  11  13   7      96    7238
  11  13   7    3117    3039
  11  13   8     141    5611
  11  13   8      50    4285
  11  13   9     930    7865
  11  13   9    7742    6140
  11  13  10      22    5389
  11  13  10      22    2839
  11  13  11    8569   11941
  11  13  11    6383    4585
  11  13  12    5233    4159
  11  14   4     172    4433
  11  14   5     396    3878
  11  14   6    3339    8278
  11  14   6    3318    2874
  11  14   7     101    3800
  11  14   7    3713    3097
  11  14   8      35    6278
  11  14   8    5426    3342
  11  14   9     253    2581
  11  14   9    9028    4940
  11  14  10    3353    2920
  11  14  11    9659    4665
  12 -10  -1      45    2858
  12 -10   1     456    4238
  12 -10   2   29789   10004
  12 -10   3     344    2888
  12 -10   4   19016    7621
  12 -10   5   14067    5675
  12 -10   6    2278    2665
  12  -9  -3    1591    1821
  12  -9  -2       6    5141
  12  -9  -2    2284    1886
  12  -9   1    5520    6984
  12  -9   2    9420    8055
  12  -9   3   11529    7701
  12  -9   4   15018    7362
  12  -9   5     213    1870
  12  -9   5    3475    4112
  12  -9   6    1859    2671
  12  -9   6    6135    5686
  12  -9   7     940    1168
  12  -9   7      28    3459
  12  -9   8     664    1045
  12  -8  -5      32    1430
  12  -8  -4    1185    1531
  12  -8  -3     252    1926
  12  -8  -2      23    5288
  12  -8  -2    3513    3637
  12  -8  -1     993    2714
  12  -8   0   11924    7861
  12  -8   0    6876    3796
  12  -8   1   16606    9633
  12  -8   2     614    5168
  12  -8   3   36406   11426
  12  -8   4    3676    4131
  12  -8   4    4306    6267
  12  -8   5   17351    7008
  12  -8   5   24565   10489
  12  -8   6    4682    3401
  12  -8   6    6487    4500
  12  -8   7    8556    4813
  12  -8   7    6217    5545
  12  -8   8    2766    2654
  12  -8   8     991    2788
  12  -8   9     792    1165
  12  -8  10    1095    1242
  12  -7  -6    1611    2164
  12  -7  -5      76    2001
  12  -7  -4      11    2922
  12  -7  -3       8    6774
  12  -7  -3    2479    3031
  12  -7  -2    2413    5617
  12  -7  -2    2981    4255
  12  -7  -1       1    3838
  12  -7   0   10268    7361
  12  -7   0    6317    4564
  12  -7   1      80    5644
  12  -7   1      80    4337
  12  -7   2    7780    6802
  12  -7   2    1532    2148
  12  -7   3    1301    4208
  12  -7   3   11918    9466
  12  -7   4   11419    8078
  12  -7   4    7304    7018
  12  -7   5   41666   11297
  12  -7   5   42194   14159
  12  -7   6    3317    4814
  12  -7   6     110    4536
  12  -7   7    1105    3697
  12  -7   7    8827    6940
  12  -7   8      84    2921
  12  -7   8    4724    4605
  12  -7   9      57    2301
  12  -7  10    1087    2262
  12  -7  11    1997    2139
  12  -6  -6    3873    2451
  12  -6  -5     864    1688
  12  -6  -4       8    3341
  12  -6  -3    5100    5074
  12  -6  -3     862    2627
  12  -6  -2       3    8361
  12  -6  -2       3    3981
  12  -6  -1    3242    4343
  12  -6   0   13337    9137
  12  -6   0    4394    4338
  12  -6   1   20791   11408
  12  -6   1   13895    7275
  12  -6   2   28632   11642
  12  -6   2   23672   11956
  12  -6   2   19734    9133
  12  -6   3    2171    6342
  12  -6   3   13127    9201
  12  -6   3    9655    4594
  12  -6   4   69157   17001
  12  -6   4   62147   16789
  12  -6   5     128    2691
  12  -6   5      92    4323
  12  -6   6   20045    8865
  12  -6   6   19518   10196
  12  -6   7    4503    4411
  12  -6   7     133    3372
  12  -6   8     158    3980
  12  -6   8    8165    6979
  12  -6   9    3055    3612
  12  -6  10     123    2295
  12  -6  11     851    1756
  12  -6  12     111    2407
  12  -5  -6      23    1541
  12  -5  -5      41    2083
  12  -5  -4    6223    6118
  12  -5  -4     557    2425
  12  -5  -3    8849    8535
  12  -5  -3     256    3048
  12  -5  -2    4994    5396
  12  -5  -2    2386    3911
  12  -5  -1   10211    4801
  12  -5   0    1231    3621
  12  -5   1   12274   10753
  12  -5   1    6686    8301
  12  -5   2    6120    6875
  12  -5   2    6223    6755
  12  -5   2   15846    7424
  12  -5   3   28787   13541
  12  -5   3   30795   12690
  12  -5   3   18338   10326
  12  -5   4    9224    6752
  12  -5   4   18654   11342
  12  -5   4    7014    4440
  12  -5   5   23394   11204
  12  -5   5   18172    9689
  12  -5   6    8917    7865
  12  -5   6   12939    9212
  12  -5   7    6335    4876
  12  -5   7   12531    7527
  12  -5   8    9852    5989
  12  -5   8    8142    6990
  12  -5   8   12113   10130
  12  -5   9     222    3557
  12  -5   9    2494    4291
  12  -5  10    3848    3154
  12  -5  10   14446    9356
  12  -5  11    1291    2477
  12  -5  11    1356    5404
  12  -5  12    1087    1490
  12  -5  12    2677    3878
  12  -5  13      34    1161
  12  -4  -6     405    1266
  12  -4  -5      16    2217
  12  -4  -4    9386    7492
  12  -4  -4     118    3172
  12  -4  -3      55    4348
  12  -4  -3      55    4350
  12  -4  -2    6385   11113
  12  -4  -2    4114    4273
  12  -4  -1      21    4792
  12  -4   0   15722    8919
  12  -4   1     616    5872
  12  -4   1     189    6741
  12  -4   2   51573   18276
  12  -4   2   39994   15199
  12  -4   2   34645   13798
  12  -4   3   35190   14723
  12  -4   3   23152   11864
  12  -4   3   21110   12213
  12  -4   4   29644   12332
  12  -4   4   26090   12330
  12  -4   4   20945   11099
  12  -4   5   61957   15973
  12  -4   5   65217   17355
  12  -4   5   39066   11139
  12  -4   6      75    4121
  12  -4   6    5701    7440
  12  -4   7    7829    5254
  12  -4   7    4371    6377
  12  -4   7    6394    8172
  12  -4   8     300    3127
  12  -4   8   13222    7983
  12  -4   8    8637    6760
  12  -4   9     992    3102
  12  -4   9    2328    3642
  12  -4   9    8557    6791
  12  -4  10    2369    2213
  12  -4  10     684    2495
  12  -4  11     727    3355
  12  -4  11      54    2971
  12  -4  11    4099    5681
  12  -4  12     971    1852
  12  -4  12    1916    4037
  12  -4  13       8    1381
  12  -4  13    1841    2743
  12  -3  -6      54    1869
  12  -3  -5     163    1819
  12  -3  -4    3170    3624
  12  -3  -4    2663    4004
  12  -3  -3    5296    9949
  12  -3  -3    3254    4230
  12  -3  -2   13761   10228
  12  -3  -2    1243    2194
  12  -3  -1   10726   10432
  12  -3  -1    6107    6070
  12  -3   0   15367    8260
  12  -3   1    4958    5521
  12  -3   2  104605   26812
  12  -3   2  107377   29033
  12  -3   2   68288   20957
  12  -3   3    5203    8015
  12  -3   3    5815   10998
  12  -3   3    4638    7562
  12  -3   4   50692   14611
  12  -3   4   38829   15082
  12  -3   4   32765   13820
  12  -3   5    2049    3346
  12  -3   5    7053    7913
  12  -3   5    1625    5117
  12  -3   6   21915    9723
  12  -3   6   23848   11932
  12  -3   6   18087    8702
  12  -3   7    3882    3712
  12  -3   7      12    5091
  12  -3   7    4412    6478
  12  -3   8    1449    3260
  12  -3   8    4071    4009
  12  -3   8       7    2572
  12  -3   9   10476    6483
  12  -3   9    9662    6133
  12  -3   9    8772    8060
  12  -3  10    7204    5905
  12  -3  10    2717    3230
  12  -3  10     287    1951
  12  -3  11   14268    7630
  12  -3  11    2210    3263
  12  -3  11    3090    4174
  12  -3  12      26    3396
  12  -3  12     485    1895
  12  -3  12     219    2058
  12  -3  13    7071    5352
  12  -3  13     545    1585
  12  -3  13    4812    3705
  12  -3  14       6    1511
  12  -3  14     749    1975
  12  -2  -6      70    1993
  12  -2  -5    1038    2601
  12  -2  -4    4189    8064
  12  -2  -4     636    2504
  12  -2  -3    6491    6196
  12  -2  -3    1838    2754
  12  -2  -2       1    4724
  12  -2  -2    3552    2803
  12  -2  -1   12102   13512
  12  -2  -1   14588    7270
  12  -2   0    1429    4667
  12  -2   1   12037    7878
  12  -2   2    9152    8087
  12  -2   3   85251   21359
  12  -2   3   87509   25120
  12  -2   3  107002   23250
  12  -2   4   43910   14330
  12  -2   4   42231   15571
  12  -2   4   51284   15354
  12  -2   5   11391    7489
  12  -2   5   18782   12196
  12  -2   5    7242    7631
  12  -2   6   34420   10259
  12  -2   6   44590   14244
  12  -2   6   29306   11733
  12  -2   7     360    3677
  12  -2   7     838    4681
  12  -2   7    1391    4312
  12  -2   8    4009    3037
  12  -2   8    7144    9506
  12  -2   8    5237    7300
  12  -2   9    1517    3303
  12  -2   9    3263    5979
  12  -2  10    6746    3243
  12  -2  10    5758    4742
  12  -2  11     722    1935
  12  -2  11      13    1724
  12  -2  12       5    3387
  12  -2  12    3211    5125
  12  -2  12     373    2042
  12  -2  13    2013    2370
  12  -2  13    4172    4769
  12  -2  14    2160    3829
  12  -2  14      19    2137
  12  -2  14      19    2409
  12  -2  15      98    1137
  12  -1  -5      42    2520
  12  -1  -4      62    6108
  12  -1  -4     820    2471
  12  -1  -3    3849    7466
  12  -1  -3      80    3591
  12  -1  -2    1474    9966
  12  -1  -2    1968    3243
  12  -1  -1       0    8006
  12  -1  -1       0    4432
  12  -1   0      91    5601
  12  -1   0     902    3815
  12  -1   1    1532    4583
  12  -1   2    8455    8579
  12  -1   3   74278   20538
  12  -1   3   70673   20299
  12  -1   4     113    4125
  12  -1   4    5195    9811
  12  -1   5   57176   15730
  12  -1   5   90552   23005
  12  -1   5   56891   16108
  12  -1   6    3517    2791
  12  -1   6    1207    6888
  12  -1   6    4393    6450
  12  -1   7   31851    9978
  12  -1   7   22158   10129
  12  -1   8    7712    5555
  12  -1   8    6139    4400
  12  -1   9    7191    6017
  12  -1   9    1034    2714
  12  -1   9    2051    1704
  12  -1  10    4837    5499
  12  -1  10   11282    7941
  12  -1  10    2839    2995
  12  -1  10    8558    6446
  12  -1  11    2039    4082
  12  -1  11    3841    5765
  12  -1  11     377    1856
  12  -1  11    1949    4269
  12  -1  12    4019    5067
  12  -1  12   17479    9274
  12  -1  12    3411    3077
  12  -1  12   20153    9943
  12  -1  13    1191    3402
  12  -1  13    7522    6527
  12  -1  13    2820    2794
  12  -1  13    5109    6787
  12  -1  14      68    1575
  12  -1  14      68    1951
  12  -1  15      77    4077
  12  -1  15     328    1480
  12   0  -5     693    3572
  12   0  -5    1060    2400
  12   0  -4      13    7999
  12   0  -4     449    1967
  12   0  -3    2875    6203
  12   0  -3      60    2270
  12   0  -2    7375   10010
  12   0  -2     127    3272
  12   0  -1      93    6337
  12   0  -1      93    4824
  12   0   0   12481    6924
  12   0   0    4209    3812
  12   0   1      13    8303
  12   0   1    6702    7114
  12   0   2    2893    5545
  12   0   2       8    6396
  12   0   3      16    3513
  12   0   4    9070    7380
  12   0   4    6474    8532
  12   0   4      55    8608
  12   0   5    3126    3950
  12   0   5    7831    8458
  12   0   6    2029    5673
  12   0   6     391    4741
  12   0   7    3012    4449
  12   0   8    2341    2314
  12   0   9    4215    5542
  12   0   9     148    2617
  12   0   9    2473    6082
  12   0   9     132    1892
  12   0  10      19    1311
  12   0  10      19    7068
  12   0  10      19    2091
  12   0  10    2250    6142
  12   0  11       5    2243
  12   0  11    8925    7676
  12   0  11       5    1549
  12   0  11    2380    6615
  12   0  12       5    2940
  12   0  12    6044    6577
  12   0  12       5    3364
  12   0  12    1826    2673
  12   0  13     738    1614
  12   0  13     329    4483
  12   0  13      45    2414
  12   0  13    1450    3582
  12   0  14    1255    2323
  12   0  14    2170    5316
  12   0  14    1480    2706
  12   0  15    1755    3914
  12   0  15     236    2273
  12   0  15     236    2141
  12   0  16    2111    2389
  12   1  -5    4165    4257
  12   1  -4    4422    6870
  12   1  -4    1212    2975
  12   1  -3     104    8917
  12   1  -3    4340    2938
  12   1  -2    1907    9476
  12   1  -2    3727    4818
  12   1  -1      82    6096
  12   1  -1      82    5197
  12   1   0    1373    4977
  12   1   0     657    3966
  12   1   1      23    9413
  12   1   1     452    3682
  12   1   2      32    9169
  12   1   2      32    7508
  12   1   3    4499    5042
  12   1   3   10945    9896
  12   1   4    4011    3649
  12   1   4      89    7614
  12   1   4     854    5048
  12   1   4      89    7333
  12   1   5    8063    5182
  12   1   5     885    4140
  12   1   5   17821   13573
  12   1   6    2798    2161
  12   1   6    7874    7144
  12   1   6      62    9365
  12   1   7   36407   27648
  12   1   7    3808    3953
  12   1   8     981    1703
  12   1   9    1484    3030
  12   1  10     125    1590
  12   1  10    1122    5597
  12   1  11     102    3809
  12   1  11     112    3212
  12   1  12    2114    1790
  12   1  12      54    5303
  12   1  12      54    2598
  12   1  12    7654    4592
  12   1  13     904    1107
  12   1  13    5805    7238
  12   1  13    2120    5149
  12   1  14    2213    1827
  12   1  14     110    4363
  12   1  14    4484    5402
  12   1  15     208    1281
  12   1  15     267    3094
  12   1  16    9085    5356
  12   2  -5    2328    3222
  12   2  -4    4182    5699
  12   2  -3     415    7914
  12   2  -2    4508    8622
  12   2  -2    6644    5152
  12   2  -1   12339   12014
  12   2  -1    1157    3006
  12   2   0   12596   12918
  12   2   0    8624    7732
  12   2   1   11663   12003
  12   2   1   16876   10438
  12   2   2       6    7536
  12   2   2    4247    7078
  12   2   3    6118    8368
  12   2   3    5553    6318
  12   2   4    4139    5473
  12   2   4    2002    3064
  12   2   4      37   13393
  12   2   5   12283    7045
  12   2   5   15131    6888
  12   2   5   19584   10095
  12   2   5   12854   12264
  12   2   6    3115    6588
  12   2   6    2945    3902
  12   2   6      63    9808
  12   2   6      63    8590
  12   2   7   20195   21312
  12   2   7   13217    6353
  12   2   7   13965    7812
  12   2   8   18296   23324
  12   2   8    2332    3995
  12   2   9   25167   23267
  12   2   9    6527    6023
  12   2  11    5112    3671
  12   2  12      95    4165
  12   2  12    6669    5433
  12   2  13    3530    6212
  12   2  13      14    3311
  12   2  13    2516    2205
  12   2  14      11    4674
  12   2  14    1094    3028
  12   2  15    5513    5842
  12   2  15      27    2788
  12   2  16   37967    9791
  12   2  16      33    2604
  12   3  -5    7521    4663
  12   3  -4    1948    5435
  12   3  -3     223    3930
  12   3  -2      30    7380
  12   3  -1   12729   11337
  12   3  -1    5050    5364
  12   3   0   28543   18412
  12   3   0    4365    5018
  12   3   1   16277   13775
  12   3   1    4317    5561
  12   3   2   47951   21472
  12   3   2   36065   13075
  12   3   3    7491   10483
  12   3   3     600    4053
  12   3   4   30481   15801
  12   3   4   53974   15063
  12   3   5   34368   33413
  12   3   5   56356   17713
  12   3   5   58100   15133
  12   3   5   43098   28414
  12   3   6      72   18044
  12   3   6    2325    4003
  12   3   6    2078    8378
  12   3   7   28710   30564
  12   3   8    8515   15162
  12   3   9   60780   32760
  12   3  10   18422   27385
  12   3  11   20646   10125
  12   3  12      81    4764
  12   3  13       8    4633
  12   3  13    3146    5562
  12   3  14    3132    4493
  12   3  14     182    2124
  12   3  15     138    5703
  12   3  15     512    3249
  12   3  16      70    3315
  12   3  16     946    1880
  12   3  17    4023    2729
  12   4  -5    2314    3142
  12   4  -4      12    2419
  12   4  -4     601    3853
  12   4  -3    4504    6618
  12   4  -2    4888    7412
  12   4  -1    2464    5004
  12   4   0     140   12200
  12   4   0     140    3035
  12   4   1   23883   13914
  12   4   1   11088    5715
  12   4   2   17295   15175
  12   4   2    6343    6468
  12   4   3   13372   12817
  12   4   3    9500    7626
  12   4   4   57628   19698
  12   4   5    2534    8718
  12   4   6    7448   14793
  12   4   6   11006   10628
  12   4   7    2881    7776
  12   4   8      57    7167
  12   4   9   38349   28567
  12   4  10    3786   18354
  12   4  12    1271    4297
  12   4  13      17    4745
  12   4  14     114    6342
  12   4  14     302    3489
  12   4  15    4361    5860
  12   4  15    4697    5245
  12   4  15     265    1623
  12   4  16     216    3754
  12   4  16     313    1726
  12   4  17      80    3291
  12   5  -4    1746    3625
  12   5  -4     284    1152
  12   5  -3    1077    5275
  12   5  -2     300    6439
  12   5  -1    2204    7191
  12   5   0     591    4617
  12   5   1     147    5149
  12   5   2      41    9373
  12   5   3   11941    8993
  12   5   4       6    6536
  12   5   5   17037   12410
  12   5   6    5131    6248
  12   5   7   18805   29723
  12   5   7   16048    8446
  12   5   8    3329   16753
  12   5   8    5250    7713
  12   5   9     101    8214
  12   5   9    1520    4699
  12   5  10   19225   26964
  12   5  11   25718   27551
  12   5  12   23845   11657
  12   5  13      60    4811
  12   5  14   11393    7570
  12   5  15    8505    6423
  12   5  15   24151    8829
  12   5  16     230    4425
  12   5  17    2248    2451
  12   6  -4    1554    3363
  12   6  -3     717    2651
  12   6  -2    3918    7578
  12   6  -1    1070    6164
  12   6   0    1221    6191
  12   6   1     321    5576
  12   6   2     110    7540
  12   6   3       1    9206
  12   6   4      26    4839
  12   6   5     112    8455
  12   6   6    1900    3767
  12   6   7     364   24411
  12   6   7     364    2251
  12   6   8     242   16501
  12   6   8    8921    7794
  12   6   9   21565   22578
  12   6   9   16762    9878
  12   6  10    1060   14395
  12   6  10    7236    8038
  12   6  11   12644   18460
  12   6  13    1198    5018
  12   6  14    9704    7123
  12   6  15     211    6808
  12   6  16    2514    3809
  12   6  16   11922    5847
  12   6  17    5666    3102
  12   7  -3     539    2395
  12   7  -2    2477    4687
  12   7  -1     792    6025
  12   7   0    1616    5198
  12   7   1    7306    7718
  12   7   2     403    5410
  12   7   3    2080    6581
  12   7   4    7283    7201
  12   7   5     260    5308
  12   7   6    1126    4222
  12   7   6    6908    5320
  12   7   7    2399    5929
  12   7   8     316   12510
  12   7   8    7885    7017
  12   7   9     227   21437
  12   7   9    6934    6579
  12   7  10    9768   21730
  12   7  10    3286    5897
  12   7  11    4077    8182
  12   7  11    9584    8382
  12   7  12   16568   28447
  12   7  14     235    7348
  12   7  15    5594    5384
  12   7  16     123    3116
  12   7  16     186    2648
  12   8  -3      63    1736
  12   8  -2    5068    4307
  12   8  -1    1354    2829
  12   8   0      18    5172
  12   8   1   10417    9222
  12   8   2    2888    8260
  12   8   3   13658    9105
  12   8   4    8385    7741
  12   8   5    3150    6145
  12   8   6    6255    4792
  12   8   6    4752    4226
  12   8   7    6406    5699
  12   8   8     247   10701
  12   8   8   11169    6504
  12   8   9     285   14411
  12   8   9     503    3392
  12   8  10     343   12312
  12   8  10     343    3967
  12   8  11    3191    8999
  12   8  11    2636    7040
  12   8  12      39   15577
  12   8  14     192    4331
  12   8  15      70    5466
  12   8  16      37    2815
  12   8  16    4355    3730
  12   9  -2    2379    4178
  12   9  -1    3417    5051
  12   9   0    1986    3830
  12   9   1      25    5785
  12   9   2   13279    7778
  12   9   3    6786    6019
  12   9   4      36    5022
  12   9   5    4878    4542
  12   9   6     192    3742
  12   9   7    8917    5132
  12   9   8    2722   22250
  12   9   8    4418    5635
  12   9   9   14739   32126
  12   9   9   27353   12485
  12   9  10    2907   12817
  12   9  10     241    4903
  12   9  11    1890   10068
  12   9  11    6728    4903
  12   9  12   24042   22677
  12   9  12   15618    9669
  12   9  14    2639    4442
  12   9  15      12    4000
  12   9  16       1    2690
  12   9  16    7317    3707
  12  10  -1      98    1784
  12  10   0    3511    4034
  12  10   1    1226    3209
  12  10   2    5180    4489
  12  10   3       5    5487
  12  10   4      27    2681
  12  10   5     107    2861
  12  10   6     151    2061
  12  10   7      31    2399
  12  10   8      30    9529
  12  10   8    7425    6313
  12  10   9     378    7372
  12  10   9    9906    6943
  12  10  10     174    7944
  12  10  10     174    4760
  12  10  11    7048   15463
  12  10  11    7260    8243
  12  10  12    6002   17346
  12  10  12    4641    6801
  12  10  14      22    3883
  12  10  15    3965    3510
  12  11   0    1093    1857
  12  11   1    3259    3987
  12  11   2    5620    5057
  12  11   3   11468    5179
  12  11   4    1717    3424
  12  11   5    3621    3104
  12  11   6      59    3547
  12  11   7    3602    3211
  12  11   8     684   13968
  12  11   8     613    3065
  12  11   9      89   11410
  12  11   9     619    3877
  12  11  10    5922   16117
  12  11  10   11706    7490
  12  11  11    6296   10024
  12  11  11    2199    2726
  12  11  12   11552   16655
  12  11  12     626    3745
  12  11  14    3551    3745
  12  11  15      11    2163
  12  12   2    2635    2236
  12  12   3    3178    3356
  12  12   4       3    1215
  12  12   6    1638    1844
  12  12   7       3    7050
  12  12   7    4864    4250
  12  12   8      14    6586
  12  12   8      14    2622
  12  12   9      43    5827
  12  12   9    8456    6127
  12  12  10      59    4877
  12  12  10    6709    5658
  12  12  11    3983   10380
  12  12  11    4924    4959
  12  12  12   12187    5730
  12  12  14   14380    4422
  12  13   3      27    4120
  12  13   4      22    3770
  12  13   5       7    6579
  12  13   6    1274    7504
  12  13   7     862    7632
  12  13   7    4359    3043
  12  13   8      12    4076
  12  13   8    1414    2752
  12  13   9    1297    8245
  12  13   9    5549    3513
  12  13  10      16    5953
  12  13  10    1152    2386
  12  13  11    7135    4084
  13  -9   0     693    2080
  13  -8  -2    1371    1283
  13  -8  -1     539    3310
  13  -8  -1     859     889
  13  -8   3    1891    4931
  13  -8   4     168    3054
  13  -8   5    6573    5051
  13  -8   6      36    1536
  13  -8   6    1739    3064
  13  -8   7    3393    2644
  13  -8   8       5    1328
  13  -7  -4      98    1066
  13  -7  -3      20    1641
  13  -7  -2    4325    4173
  13  -7  -2       4    2230
  13  -7  -1       6    3113
  13  -7  -1    5612    4033
  13  -7   0    3312    2215
  13  -7   1      79    1949
  13  -7   2      83    2935
  13  -7   3    5144    6972
  13  -7   4   26873    9698
  13  -7   5    3710    4866
  13  -7   5      64    4721
  13  -7   6   11479    6004
  13  -7   6    7024    4792
  13  -7   7    2106    1617
  13  -7   7    2418    4125
  13  -7   8    3650    3741
  13  -7   9       3    1595
  13  -7  10     790     993
  13  -6  -5     621    1261
  13  -6  -4      83    1384
  13  -6  -3    5732    4885
  13  -6  -3     273    2058
  13  -6  -2      16    4359
  13  -6  -2      16    2247
  13  -6  -1      25    4447
  13  -6  -1    1339    3753
  13  -6   0     106    2867
  13  -6   1    4457    5457
  13  -6   2      49    2551
  13  -6   3   18869    9036
  13  -6   3      16    3063
  13  -6   4   27559   10186
  13  -6   4   26532   10667
  13  -6   5     347    2735
  13  -6   5      14    4232
  13  -6   6    5755    4212
  13  -6   6    4775    6109
  13  -6   7     384    2716
  13  -6   7    2464    4259
  13  -6   8    4834    3849
  13  -6   8    5579    5071
  13  -6   9      10    2157
  13  -6  10     357    2100
  13  -6  11    1540    2201
  13  -5  -5    2383    1592
  13  -5  -4      28    2071
  13  -5  -3    5144    5003
  13  -5  -3    1124    2395
  13  -5  -2   11002    7660
  13  -5  -2    9268    4640
  13  -5  -1      23    7749
  13  -5  -1     347    3599
  13  -5   0   21179    8157
  13  -5   1     131    3160
  13  -5   2   15071    7529
  13  -5   3   16463    9258
  13  -5   3    3239    3806
  13  -5   4    2830    3963
  13  -5   4    2763    6864
  13  -5   4      69    2963
  13  -5   5   22855    9614
  13  -5   5   16693    9733
  13  -5   6      32    3442
  13  -5   6      32    3692
  13  -5   7   11931    6451
  13  -5   7    9828    7072
  13  -5   8    3441    2057
  13  -5   8    5020    5007
  13  -5   9    6345    3200
  13  -5  10     857    1608
  13  -5  11    1201    2108
  13  -5  12     690    1421
  13  -4  -5    1247    1859
  13  -4  -4    1056    1979
  13  -4  -3    7888    6044
  13  -4  -3    8435    4653
  13  -4  -2    2824    4675
  13  -4  -2    5743    4169
  13  -4  -1       0    5446
  13  -4  -1    6204    5968
  13  -4   0    9238   10542
  13  -4   0   22659    9388
  13  -4   1     110    5707
  13  -4   2   12068    9181
  13  -4   3    6408    7364
  13  -4   4   61297   16418
  13  -4   4   60557   16989
  13  -4   4   49166   14284
  13  -4   5   10340    6589
  13  -4   5   18706    8890
  13  -4   5    4343    5571
  13  -4   6    5771    4547
  13  -4   6   10062    8374
  13  -4   7    7402    6342
  13  -4   7   15286    8744
  13  -4   8     122    3201
  13  -4   8      50    2865
  13  -4   9   10435    5777
  13  -4  10    1069    2548
  13  -4  11    3793    2432
  13  -4  12    2173    2027
  13  -4  13     489    1255
  13  -3  -5    2938    2185
  13  -3  -4     123    1764
  13  -3  -3    6264    5283
  13  -3  -3    5983    4432
  13  -3  -2     417    4889
  13  -3  -2     765    2126
  13  -3  -1     528    4468
  13  -3  -1    3803    5069
  13  -3   0    1532    3447
  13  -3   0     900    3680
  13  -3   1   15725    8884
  13  -3   2    6947    8098
  13  -3   3   66349   17522
  13  -3   4   72035   17748
  13  -3   4   48575   16422
  13  -3   5   10594    8004
  13  -3   5    9921    9331
  13  -3   5    6934    6942
  13  -3   6   52840   13591
  13  -3   6   51027   16515
  13  -3   7    1793    4857
  13  -3   7     503    3488
  13  -3   8    5052    4344
  13  -3   9      10    2518
  13  -3  10    8080    4679
  13  -3  10   13813    7113
  13  -3  11      26    3091
  13  -3  11    3245    1622
  13  -3  11    1743    3837
  13  -3  12    2094    3124
  13  -3  12     573    2957
  13  -3  12    1007    3002
  13  -3  13    1369    1482
  13  -2  -5    1599    1728
  13  -2  -4       7    5356
  13  -2  -4    1963    2418
  13  -2  -3    3229    4226
  13  -2  -3    1217    2042
  13  -2  -2    8431    7777
  13  -2  -2    1033    2197
  13  -2  -1       2    4648
  13  -2  -1       2    5572
  13  -2   0    3819    7730
  13  -2   0    2624    4410
  13  -2   1    5738    7445
  13  -2   1    2948    4996
  13  -2   2     351    3340
  13  -2   3   24915   12716
  13  -2   4    3528    4573
  13  -2   4     136    4306
  13  -2   5   14021    9139
  13  -2   5    2460    5602
  13  -2   6     268    4395
  13  -2   7   12983    8269
  13  -2   8     287    2633
  13  -2   9    2601    3925
  13  -2   9    7056    5850
  13  -2  10    7072    5014
  13  -2  10    5146    3810
  13  -2  10    8282    5588
  13  -2  11    2093    3720
  13  -2  11    1651    1553
  13  -2  11     465    2820
  13  -2  12    4423    4272
  13  -2  12    1685    1327
  13  -2  12    2959    3315
  13  -2  13      24    1600
  13  -2  13    1104    2520
  13  -1  -4    4277    3662
  13  -1  -4    3745    3247
  13  -1  -3     419    5187
  13  -1  -3     879    1801
  13  -1  -2   15148    9883
  13  -1  -2    1571    3342
  13  -1  -1    2931    7430
  13  -1  -1     155    2600
  13  -1   0      27    4563
  13  -1   0    1786    4068
  13  -1   1      12    8165
  13  -1   1      12    5047
  13  -1   2   12806    8141
  13  -1   2   18812   10955
  13  -1   3    1712    5565
  13  -1   4   85504   20141
  13  -1   4  118429   23567
  13  -1   5   13292    7094
  13  -1   5    9163    6611
  13  -1   6   17278    8620
  13  -1   6   22940   13128
  13  -1   7   26569    8820
  13  -1   8    2850    4941
  13  -1   9    3466    2978
  13  -1   9     629    1361
  13  -1  10     910    1748
  13  -1  10    1302    2440
  13  -1  11   10799    6456
  13  -1  11    3080    2719
  13  -1  11    4512    3972
  13  -1  12      44    1660
  13  -1  12     972    2341
  13  -1  13     396    1548
  13  -1  13     726    2160
  13  -1  14      38    2649
  13  -1  14     863    1214
  13   0  -4     605    2358
  13   0  -4     119    1665
  13   0  -3     876    3740
  13   0  -3    5256    3950
  13   0  -2     211    4971
  13   0  -2     879    3271
  13   0  -1    8258   10378
  13   0  -1    1624    3908
  13   0   0    1001    6630
  13   0   0     419    3001
  13   0   1   12435   10491
  13   0   1   12812    8809
  13   0   2    5344    6440
  13   0   2   10168    6747
  13   0   3   15696   11040
  13   0   3   31991   13582
  13   0   4   60409   18295
  13   0   4  100377   20022
  13   0   5   12170    7854
  13   0   5   10539    9048
  13   0   6   52628   13210
  13   0   7    1781    4167
  13   0   8   20151    7901
  13   0   9      49    2397
  13   0  10   15881    8019
  13   0  10     962    3189
  13   0  11   38579   12162
  13   0  11    4927    4040
  13   0  12    3195    5130
  13   0  12      39    1231
  13   0  12      39     839
  13   0  13    3078    2857
  13   0  13      72    1254
  13   0  14      50    3838
  13   0  14    1166    1265
  13   0  15    3055    3194
  13   1  -4    3693    3785
  13   1  -3     423    4989
  13   1  -3      20    1907
  13   1  -2    3340    7434
  13   1  -2    2987    4525
  13   1  -1    6712    9176
  13   1  -1      52    4772
  13   1   0   11033   11177
  13   1   0    5449    5222
  13   1   1    4308   10578
  13   1   1    5411    6634
  13   1   2    7628    9617
  13   1   2    5848    3012
  13   1   3    2654    7045
  13   1   3   22004   10061
  13   1   4    1963    4188
  13   1   4    6860    9027
  13   1   5     226    6478
  13   1   5   12558    7229
  13   1   6    5038    4792
  13   1   6     172    7164
  13   1   7   12783    6548
  13   1   7    5280    3870
  13   1   8   11509    5626
  13   1   9   13127    7574
  13   1   9    4336    4814
  13   1  10   28759   10238
  13   1  10    8471    3959
  13   1  11      55    4044
  13   1  11      55    1320
  13   1  12   37647   12375
  13   1  13    2806    5114
  13   1  14   14886    7514
  13   1  15    9022    5249
  13   2  -4    2232    3347
  13   2  -3    1888    4942
  13   2  -2     531    6684
  13   2  -2     531    1520
  13   2  -1      38    5614
  13   2  -1     599    3934
  13   2   0   14357   13666
  13   2   0    6940    6066
  13   2   1     466    4662
  13   2   1     377    3682
  13   2   2    5474    9501
  13   2   2   16781    8984
  13   2   3     884    4761
  13   2   3    2104    6246
  13   2   4    6301    8334
  13   2   4   12809    7881
  13   2   5   17025   10264
  13   2   5   26735   11011
  13   2   6      19    4736
  13   2   7   15679   20348
  13   2   7    8601    4949
  13   2   7    3122    4583
  13   2   8    9629   18765
  13   2   8    4451    4504
  13   2   9    7444    4890
  13   2  12    4396    5702
  13   2  13   13713    8377
  13   2  13    1263    2251
  13   2  14      20    5386
  13   2  15       4    3262
  13   2  16    5279    3268
  13   3  -4    2130    3669
  13   3  -3    7364    5922
  13   3  -2     354    3616
  13   3  -1    4725    6270
  13   3  -1    1769    3094
  13   3   0     249    8516
  13   3   0     249    4151
  13   3   1   14736   10245
  13   3   1    2863    3917
  13   3   2    8866    9450
  13   3   2   10234    6256
  13   3   3   26484   14970
  13   3   3   29769   11720
  13   3   4   62091   21802
  13   3   4   73830   17584
  13   3   5       8    4436
  13   3   6   24539   28795
  13   3   6   42889   15226
  13   3   7    6724   11616
  13   3   7    4882    6582
  13   3   8   24252   24730
  13   3   9   68203   36064
  13   3  13    2477    4976
  13   3  14      13    3850
  13   3  15    4265    4750
  13   3  16      22    4778
  13   4  -4      59    1962
  13   4  -3    4164    4865
  13   4  -2    1964    4870
  13   4  -1    2021    6835
  13   4   0      80    6230
  13   4   1    6072    7549
  13   4   2      40    9997
  13   4   3   37191   17016
  13   4   4   11775   12109
  13   4   5    9866   23434
  13   4   5   22743   13849
  13   4   6    8493   12329
  13   4   6    1606    5432
  13   4   7   17460   28618
  13   4   7   18891    9480
  13   4   8   42723   33667
  13   4   9     288   12316
  13   4  10   50992   35878
  13   4  12   31160    9971
  13   4  13    4340    4670
  13   4  14     111    7158
  13   4  14    1650    3347
  13   4  15     956    3285
  13   4  16      78    2744
  13   5  -3     115    1842
  13   5  -2    5905    4707
  13   5  -1      97    5867
  13   5   0    7549    6396
  13   5   1       3    4953
  13   5   2    2713    4060
  13   5   3     171    4240
  13   5   4    9204    5810
  13   5   5       2   11461
  13   5   5       2    6051
  13   5   6      64   12673
  13   5   6      64    6754
  13   5   7     129   13105
  13   5   8     259   16717
  13   5   9   32588   30109
  13   5  10   17862   25987
  13   5  12   34420   11499
  13   5  13      68    6207
  13   5  14    6755    4763
  13   5  15    1138    3822
  13   5  16    3246    3430
  13   6  -3    1338    2112
  13   6  -2     269    2632
  13   6  -1    8264    6214
  13   6   0    2219    6316
  13   6   1      12    4469
  13   6   2    1559    6103
  13   6   3    3849    6571
  13   6   4   20447   12976
  13   6   5      63    5637
  13   6   6    3957   14390
  13   6   6    6068    4551
  13   6   7    2183   16140
  13   6   8   10058   16926
  13   6   8    9448    5941
  13   6   9   21754   25982
  13   6  10    4121   14418
  13   6  11   37896   29200
  13   6  12      14    6473
  13   6  13   24808    9311
  13   6  14      17    3659
  13   6  15      12    4541
  13   6  15   11525    5470
  13   6  16    3839    3207
  13   7  -2     232    1890
  13   7  -1      23    3209
  13   7   0     578    4979
  13   7   1    9678    7192
  13   7   2    1567    6024
  13   7   3    8774    9477
  13   7   4    8058    6433
  13   7   5   10642    7731
  13   7   6    7812    5628
  13   7   7    8971   17490
  13   7   8   16418   27984
  13   7   8   23811    9057
  13   7   9    4975   11849
  13   7   9    4682    6102
  13   7  10   31736   24430
  13   7  11    2215   15313
  13   7  13    6576    5249
  13   7  14    6128    4850
  13   7  15    2088    3019
  13   7  16       5    2184
  13   8  -2     994    1918
  13   8  -1    1089    3145
  13   8   0     240    2838
  13   8   1    2002    2792
  13   8   2     771    4551
  13   8   3    6924    6068
  13   8   4    3819    6320
  13   8   5   11805    8074
  13   8   6    4369    5024
  13   8   7    7064    9100
  13   8   7    2748    2940
  13   8   8     833   14262
  13   8   8     101    2638
  13   8   9   25616   27977
  13   8   9   27908   10019
  13   8  10     218    8320
  13   8  10    5049    6526
  13   8  11   18879   29887
  13   8  12   40486   22902
  13   8  13     354    4119
  13   8  14   13049    6638
  13   8  15    2732    3017
  13   9  -1     731    1910
  13   9   0    1033    3913
  13   9   1     211    3281
  13   9   2     482    2780
  13   9   3    1107    4463
  13   9   4    1329    3753
  13   9   5     389    3556
  13   9   7     185    7424
  13   9   7    2569    3410
  13   9   8     126   17391
  13   9   8    3598    3726
  13   9   9    5491   18239
  13   9   9    7851    5374
  13   9  10     257   15597
  13   9  10    3527    5178
  13   9  11     494    6329
  13   9  12   12117   17947
  13   9  13    7576    6158
  13   9  14     178    4027
  13   9  15    1677    2183
  13  10   0     180    1789
  13  10   1     226    2174
  13  10   2    4108    4185
  13  10   3    5857    4678
  13  10   4    2397    3440
  13  10   5    2376    3252
  13  10   7      60   14689
  13  10   7    1391    1459
  13  10   8    2892   17138
  13  10   8    9300    5175
  13  10   9      25    7979
  13  10   9    5605    4506
  13  10  10   15449   19477
  13  10  10   16032    6906
  13  10  11   11019   14850
  13  10  11    8221    6093
  13  10  13    4000    3763
  13  10  14     366    2262
  13  11   2     666    2419
  13  11   2      30    2185
  13  11   3    2428    2134
  13  11   4    1836    1673
  13  11   6       7    8398
  13  11   7    2974    5960
  13  11   7       4    1175
  13  11   8       9   11460
  13  11   8       9    1685
  13  11   9       6    5559
  13  11   9    4318    3341
  13  11  10    9153   14088
  13  11  10    6918    4330
  13  11  11     713    5243
  13  11  13    1733    2731
  13  12   4       1    2003
  13  12   5       8    4161
  13  12   6    2037    4126
  13  12   7      10    8848
  13  12   8     488    7551
  13  12   8    1109    1514
  13  12   9    3022    8957
  13  12   9    1896    2222
  13  12  10      24    4971
  13  12  10      24    1571
  13  12  11    5606   10135
  13  13   7     169    1940
  13  13   8    1784    3696
  13  13   9    5521    6477
  14  -8   1     744    1942
  14  -8   2    8932    5015
  14  -7   0       4    2916
  14  -7   0       4     709
  14  -7   1       8    1896
  14  -6  -2      96    1213
  14  -6  -1     550    2958
  14  -6  -1      16    2238
  14  -6   0    2208    4389
  14  -6   0    2589    3057
  14  -6   1    5029    4974
  14  -6   1      28    2198
  14  -6   2    2240    2594
  14  -6   6    2467    2773
  14  -6   7    6826    4499
  14  -6   8    3388    2721
  14  -6   9    1433    1991
  14  -6  10     288    1009
  14  -5  -3     147     997
  14  -5  -2    5144    4025
  14  -5  -2    1633    2280
  14  -5  -1    1853    2326
  14  -5  -1      30    2021
  14  -5   0    8743    5682
  14  -5   0    3624    3454
  14  -5   1      71    5034
  14  -5   1      71    2624
  14  -5   2   10894    5099
  14  -5   3    1881    2407
  14  -5   6     157    1900
  14  -5   7    3066    3637
  14  -5   8      33    2146
  14  -5   9    3272    3237
  14  -5  10    1205    1909
  14  -5  11    1323    1341
  14  -4  -3    2279    1647
  14  -4  -2       3    3593
  14  -4  -2    2875    2496
  14  -4  -1    4992    5753
  14  -4  -1    3562    3515
  14  -4   0    1404    3896
  14  -4   0     369    3044
  14  -4   1     809    4141
  14  -4   1     143    2800
  14  -4   2      12    3529
  14  -4   2      12    2258
  14  -4   3     344    2790
  14  -4   4    7576    5911
  14  -4   5     232    2403
  14  -4   6    3595    3376
  14  -4   7     457    2909
  14  -4   8    5056    3714
  14  -4   9      48    2283
  14  -4  10    2211    2981
  14  -4  11     853    1901
  14  -4  12      10    1111
  14  -3  -4      21    1126
  14  -3  -3      25    3507
  14  -3  -3     747    1942
  14  -3  -2    5825    5724
  14  -3  -2    2602    3506
  14  -3  -1    5478    6555
  14  -3  -1    1765    2382
  14  -3   0       3    4078
  14  -3   0    2695    3899
  14  -3   1       3    6099
  14  -3   1       3    3285
  14  -3   2    2923    4798
  14  -3   2   11804    5829
  14  -3   3   12075    7194
  14  -3   4    2793    4029
  14  -3   5   14707    8402
  14  -3   6    2838    3535
  14  -3   7     898    3628
  14  -3   8    1947    2045
  14  -3   9      40    1799
  14  -3  10    1774    1995
  14  -3  11      52    2088
  14  -3  12    2143    1652
  14  -2  -3      37    2421
  14  -2  -3      37    1903
  14  -2  -2      37    3823
  14  -2  -2     976    1586
  14  -2  -1    2135    7244
  14  -2  -1      40    2853
  14  -2   0    7606    6104
  14  -2   0    1851    3415
  14  -2   1     114    4832
  14  -2   1     114    2351
  14  -2   2    9294    8075
  14  -2   2   13274    7443
  14  -2   3    2858    6267
  14  -2   3    4077    5729
  14  -2   4   40594   13353
  14  -2   4   55038   15111
  14  -2   5   18169    9029
  14  -2   6   10740    7236
  14  -2   7   16489    7028
  14  -2   8     193    2389
  14  -2   8     193    2592
  14  -2   9    3678    3439
  14  -2  10    3909    3397
  14  -2  11       3    1616
  14  -2  12      18    1746
  14  -1  -3    1558    2385
  14  -1  -3     676    1089
  14  -1  -2       5    5274
  14  -1  -2     317    1850
  14  -1  -1    5168    5036
  14  -1  -1     759    1833
  14  -1   0    6473    7046
  14  -1   0     647    3293
  14  -1   1    6724    6675
  14  -1   1     322    4810
  14  -1   2    9286    9249
  14  -1   2   13552    8238
  14  -1   3     172    6209
  14  -1   3    1375    5321
  14  -1   4   10722    6943
  14  -1   4   25701   11397
  14  -1   5    3035    3365
  14  -1   5    4601    5703
  14  -1   6   16555    7184
  14  -1   6     228    3332
  14  -1   7    1433    3377
  14  -1   7     263    4227
  14  -1   8    6394    4942
  14  -1   8    4503    2909
  14  -1   9     774    1610
  14  -1  10    2669    3076
  14  -1  11    2610    3090
  14  -1  12      65    3331
  14  -1  12     204    1126
  14  -1  13      98    3461
  14   0  -3     222    1963
  14   0  -3    1081    1647
  14   0  -2     197    4154
  14   0  -2    1402    1915
  14   0  -1    2440    3695
  14   0  -1     480    2120
  14   0   0    3600    6101
  14   0   0     889    3008
  14   0   1      54    5142
  14   0   1      54    3368
  14   0   2     200    4817
  14   0   2   11010    5675
  14   0   3    7462    8296
  14   0   3   16336    9489
  14   0   4      50    3839
  14   0   4    6683    6095
  14   0   5   15703   10781
  14   0   5   40114   14236
  14   0   6   27457    9930
  14   0   7    3443    4728
  14   0   7    6424    4535
  14   0   8   13671    6021
  14   0   8   15076    7169
  14   0   9    3766    3890
  14   0  10    5481    3687
  14   0  11    4480    3903
  14   0  11      52    2022
  14   0  12   15882    5823
  14   0  12     145     906
  14   0  13    6949    4666
  14   0  14    3461    3043
  14   1  -3    2193    3259
  14   1  -2     390    4433
  14   1  -2     744    1602
  14   1  -1     597    3326
  14   1  -1     422    2319
  14   1   0    4659    6477
  14   1   0    1683    3804
  14   1   1    7134    7268
  14   1   1    3580    4952
  14   1   2    9927    9132
  14   1   2   10163    6506
  14   1   3      18    5715
  14   1   3    1084    3512
  14   1   4    5451    7011
  14   1   4    4306    6885
  14   1   5     135    4090
  14   1   6      64    3704
  14   1   7    5611    4785
  14   1   8     945    3120
  14   1   9   11121    5903
  14   1  10    4574    3481
  14   1  11   14855    6270
  14   1  11     743    1936
  14   1  12   10582    6159
  14   1  13    7288    5223
  14   1  14   21401    6100
  14   2  -3    1942    3169
  14   2  -2     146    2692
  14   2  -1     314    4237
  14   2   0     390    6219
  14   2   0     390    1460
  14   2   1    3269    6411
  14   2   1    1706    2565
  14   2   2    7073    6813
  14   2   2    3371    4852
  14   2   3    6065    7181
  14   2   3    5093    4877
  14   2   4   25375   12427
  14   2   5    3734    5525
  14   2   6   24368   11327
  14   2   7    8241    6927
  14   2  10   12072    5855
  14   2  11   23484    8552
  14   2  12      27    3489
  14   2  13   18831    7101
  14   2  14   12968    5822
  14   2  15   10973    4234
  14   3  -3    2150    2768
  14   3  -2    2566    3907
  14   3  -1    1923    3919
  14   3   0     156    5176
  14   3   1    1497    3881
  14   3   2     105    4365
  14   3   3   16076   12000
  14   3   4    9921    8995
  14   3   5    5397    8216
  14   3   6    7853    6997
  14   3   7    5245    6889
  14   3  11       1    3330
  14   3  12   11903    6518
  14   3  13      14    5059
  14   3  14      16    4801
  14   3  15   16493    5596
  14   4  -2    2374    3590
  14   4  -1     737    4884
  14   4   0     841    3996
  14   4   1     404    4045
  14   4   2    6723    5286
  14   4   3    5550    3835
  14   4   4    3576    6317
  14   4   5   13559    7734
  14   4   6     271    5005
  14   4   6     271    3617
  14   4   7    8677   16090
  14   4   7    8375    6074
  14   4   8    9614   15404
  14   4   9   17340   24994
  14   4  13      80    3531
  14   4  14    1104    3269
  14   4  15    3089    2933
  14   5  -2     234    2008
  14   5  -1    1918    4495
  14   5   0    5238    5500
  14   5   1     186    3454
  14   5   2    3679    4141
  14   5   3      22    6011
  14   5   4   14110    7811
  14   5   5      91    6103
  14   5   5      91    6218
  14   5   6    7094   14951
  14   5   6    4640    4819
  14   5   7     275    9931
  14   5   7     491    4628
  14   5   8     786    5784
  14   5   9   15897   21253
  14   5  10   11548   20244
  14   5  14    2821    3419
  14   5  15     581    2173
  14   6  -1     109    2894
  14   6   0    6361    5873
  14   6   1      73    2938
  14   6   2     285    3941
  14   6   3    6742    6002
  14   6   4    2073    5502
  14   6   4    8633    7464
  14   6   5     910    5166
  14   6   5     892    3489
  14   6   6    2760    9839
  14   6   6    5778    4531
  14   6   7     214    6761
  14   6   8    3146   18420
  14   6   9    1325    9147
  14   6  10   50272   29200
  14   6  12    4129    3738
  14   6  13    2255    2087
  14   6  14      61    5167
  14   6  14      61    2057
  14   6  15    3181    3064
  14   7  -1    1234    2079
  14   7   0    5175    3046
  14   7   1      72    3602
  14   7   2   11251    7165
  14   7   3      74    7769
  14   7   3    5631    5622
  14   7   4      15    7250
  14   7   4    8322    7108
  14   7   5       5    5361
  14   7   5    4712    6160
  14   7   6      18    6995
  14   7   6    2144    2751
  14   7   7    3230   15666
  14   7   8    2459    7116
  14   7   9     359   12426
  14   7  10   14249   20081
  14   7  11   14422   21080
  14   7  12     444    3405
  14   7  13     175    3958
  14   7  14    4888    2875
  14   7  15     575    1864
  14   8   0    3162    2716
  14   8   1      70    2946
  14   8   2    1060    2653
  14   8   3     109    5380
  14   8   3     109    3260
  14   8   4     330    6073
  14   8   4    4527    2630
  14   8   5       6    6721
  14   8   5       6    3904
  14   8   6       0    5795
  14   8   6       0    4044
  14   8   7       6    8962
  14   8   8    2708    8543
  14   8   9    6247   16714
  14   8  10    5489   12727
  14   8  11   24456   20336
  14   8  12    4034    4660
  14   8  13    6865    4489
  14   8  14      94    1916
  14   9   1    2762    1921
  14   9   2    4039    3712
  14   9   3     161    2953
  14   9   3    5281    3255
  14   9   4    2060    5163
  14   9   4    2476    2372
  14   9   5      12    7587
  14   9   5      12    2717
  14   9   6      12    5163
  14   9   7      16    8903
  14   9   8    2363   13573
  14   9   9     203    9840
  14   9  10   13582   19619
  14   9  11    3004   12123
  14   9  12   11692    5719
  14   9  13    6738    2900
  14  10   3    3770    2493
  14  10   4       1    2439
  14  10   4     886    1681
  14  10   5       1    5112
  14  10   6       3    3049
  14  10   7    1697    7479
  14  10   8      25    6752
  14  10   9    4500   12376
  14  10  10   14191   17154
  14  10  11    3592   13729
  14  10  12   18581    4871
  14  11   5      16    5142
  14  11   6       9    5624
  14  11   7      52    5639
  14  11   8      34    4398
  14  11   9    2173    6378
  14  11  10    1980    8293
  14  12   8      20    2569
  15  -6   1    1625    2434
  15  -6   2    1628    2930
  15  -6   3    2045    2069
  15  -6   4    3285    2664
  15  -6   5    3082    2156
  15  -6   6    1830    1636
  15  -5   0    2194    2735
  15  -5   1    1547    2973
  15  -5   2      69    2537
  15  -5   3      72    2645
  15  -5   4    3367    2600
  15  -5   5     397    2175
  15  -5   6    2300    1847
  15  -5   7     619    1532
  15  -4  -1      47    1896
  15  -4  -1    1185    1379
  15  -4   0    2570    3490
  15  -4   0     722    1605
  15  -4   1    3607    4698
  15  -4   1    3347    2625
  15  -4   2     517    2912
  15  -4   2    2288    2804
  15  -4   3    6381    5097
  15  -4   4     163    3493
  15  -4   5    9357    5400
  15  -4   6    4269    2765
  15  -4   7    2459    2278
  15  -3  -2     836    1010
  15  -3  -1      35    2962
  15  -3  -1      35    1439
  15  -3   0   10351    5863
  15  -3   0    2364    2276
  15  -3   1    4048    4238
  15  -3   1      27    1702
  15  -3   2    6389    5680
  15  -3   2    2021    3231
  15  -3   3    5891    5651
  15  -3   3   10026    5207
  15  -3   4    5261    5328
  15  -3   5     241    2845
  15  -3   6     267    2884
  15  -3   7    1213    3329
  15  -3   8     102    2441
  15  -3   9    1043    1863
  15  -3  10    1417    1702
  15  -2  -1      13    2714
  15  -2  -1     984    1091
  15  -2   0     133    3568
  15  -2   0      53    2507
  15  -2   1    5607    5451
  15  -2   1    1031    1447
  15  -2   2     118    3031
  15  -2   2    1596    2722
  15  -2   3      92    2839
  15  -2   3    1315    3076
  15  -2   4   23205    9592
  15  -2   5    3405    4244
  15  -2   6   17654    7264
  15  -2   7    5618    3169
  15  -2   8      35    3300
  15  -2   9      23    1667
  15  -2  10       5    1891
  15  -1  -1      51    3326
  15  -1  -1    1153    1758
  15  -1   0    2427    3242
  15  -1   0     193    2331
  15  -1   1    1706    4479
  15  -1   1      43    1655
  15  -1   2     578    2673
  15  -1   2     538    1598
  15  -1   3    8235    6966
  15  -1   3    5446    5638
  15  -1   4     442    3259
  15  -1   5    6269    5335
  15  -1   6    7469    4250
  15  -1   7      86    2420
  15  -1   8       1    2627
  15  -1  10      18    1253
  15   0  -1     492    2901
  15   0   0      73    2849
  15   0   0     407    1582
  15   0   1    2699    4716
  15   0   1      78    1857
  15   0   2    2858    5733
  15   0   2     643    3170
  15   0   3    2301    3924
  15   0   3     317    3616
  15   0   4    5271    4973
  15   0   5    7886    5640
  15   0   6     370    3199
  15   0   7    1718    2670
  15   1  -1    1154    2438
  15   1   0      12    2473
  15   1   1      83    4941
  15   1   2    1482    5482
  15   1   3     514    5349
  15   1   4    9881    7635
  15   1   5    5790    6182
  15   1   6   22614    9815
  15   1   7   12030    6847
  15   2  -1    7361    3575
  15   2   0      34    2437
  15   2   1       9    3902
  15   2   2       5    3679
  15   2   3    6280    6693
  15   2   4    7696    7353
  15   2   5      87    3378
  15   2   6    8053    6036
  15   2   7    1135    3733
  15   3  -1    2301    2851
  15   3   0    2078    1976
  15   3   1      26    3043
  15   3   2      27    4236
  15   3   3     233    2915
  15   3   4      25    6582
  15   3   5    4407    4882
  15   3   6      24    3684
  15   3   7      28    4739
  15   3  13      17     887
  15   4  -1     108    2316
  15   4   0    4184    2704
  15   4   1      18    2904
  15   4   2     586    3361
  15   4   3     129    2857
  15   4   4      82    4735
  15   4   5      72    3341
  15   4   6    3993    4225
  15   4   7     141    2703
  15   4  12       8    2658
  15   4  13     651    1448
  15   5   0     117    2717
  15   5   1      76    1808
  15   5   2    4275    4590
  15   5   3    3044    4348
  15   5   4    1947    3746
  15   5   5    2415    5407
  15   5   6    2895    3404
  15   5   7    2399    9627
  15   5   8    9224   17181
  15   5  12    7291    3441
  15   5  13      31    2999
  15   6   0      23    1659
  15   6   1      30    2937
  15   6   2    2556    3219
  15   6   3    5573    4621
  15   6   4    1925    4505
  15   6   5    1385    3119
  15   6   6     183    2752
  15   6   6    2264    3233
  15   6   7      99    4467
  15   6   8    2644    8454
  15   6   9   10035   12838
  15   6  12    1991    1681
  15   6  13     830    1576
  15   7   1       5    1482
  15   7   2     784    3402
  15   7   3      81    3239
  15   7   4    1712    2718
  15   7   5      51    4375
  15   7   5    2860    2255
  15   7   6      23    6475
  15   7   6      23    3021
  15   7   7    2257    8463
  15   7   8    2428   11153
  15   7   9   10654   16846
  15   8   3      57    2103
  15   8   4    2273    1932
  15   8   5      36    4145
  15   8   5      36    2238
  15   8   6     211    3558
  15   8   7      31    3970
  15   8   8    3973   10315
  15   8   9    4625    7648
  15   9   6      37    5232
  15   9   7      89    2315
  15   9   8    1032    6826
  15   9   9    4369    7509
  15  10   7      48    1600
  15  10   8    5163    6303
  15  10   9    9431    8549
  16  -4   2     872    2188
  16  -4   3    1525    2166
  16  -4   4    1567    2243
  16  -4   5    4681    2385
  16  -3   1      12    1964
  16  -3   2    2470    2436
  16  -3   3     826    1973
  16  -3   4    6225    4056
  16  -3   5     327    1961
  16  -3   6    4864    3237
  16  -2   1      42    1874
  16  -2   2    1983    2141
  16  -2   3    5766    3901
  16  -2   4    2691    3092
  16  -2   5    4136    3738
  16  -2   6    3038    3208
  16  -2   7      59    1140
  16  -1   1     170    1966
  16  -1   2      87    2742
  16  -1   3     131    1882
  16  -1   4    5238    3702
  16  -1   5   13127    6317
  16  -1   6    3268    3556
  16  -1   7    2533    3085
  16   0   0     902    1309
  16   0   1     270    2014
  16   0   2      79    2404
  16   0   3      37    1661
  16   0   4    3251    3629
  16   0   5    1664    2436
  16   0   6     322    1692
  16   0   7     727    2708
  16   1   0      14     994
  16   1   1     912    2192
  16   1   2      26    3738
  16   1   3      86    2510
  16   1   4     217    3619
  16   1   5    1915    4198
  16   1   6    2648    3730
  16   1   7     188    1835
  16   2   1       9    1247
  16   2   2       1    2446
  16   2   3      18    2341
  16   2   4     104    4504
  16   2   5     341    2257
  16   2   6     157    2125
  16   2   7      74    1181
  16   3   1    2282    1516
  16   3   2    1545    2000
  16   3   3      12    1934
  16   3   4     842    1865
  16   3   5      57    3176
  16   3   6      34    2658
  16   3   7    1142    1527
  16   4   1       1    2148
  16   4   2      22    1874
  16   4   3      31    2021
  16   4   4    1455    2533
  16   4   5     695    1768
  16   4   6       6    1497
  16   5   2      24    2621
  16   5   3    1803    2717
  16   5   4     107    1506
  16   5   5    5814    3789
  16   5   6    1368    1270
  16   6   3      51    1894
  16   6   4      23    1794
  16   6   5       2    2578
   0   0   0       2       0
;
_shelx_hkl_checksum              97361
_shelx_fab_file
;
    0    0    1      4.88      0.00
    0    0    2      2.13      0.00
    0    0    3      0.39      0.00
    0    0    4      0.19      0.00
    0    0    5      0.43      0.00
    0    0    6      0.40      0.00
    0    0    7      0.36      0.00
    0    0    8      0.49      0.00
    0    0    9      0.53      0.00
    0    0   10      0.33      0.00
    0    0   11      0.06      0.00
    0    0   12     -0.13      0.00
    0    0   13     -0.18      0.00
    0    0   14     -0.05      0.00
    0   -1   14     -0.11      0.00
    0   -1   13      0.08      0.00
    0   -1   12      0.09      0.00
    0   -1   11     -0.02      0.00
    0   -1   10     -0.15      0.00
    0   -1    9     -0.25      0.00
    0   -1    8     -0.27      0.00
    0   -1    7     -0.17      0.00
    0   -1    6     -0.06      0.00
    0   -1    5      0.00      0.00
    0   -1    4      0.12      0.00
    0   -1    3      0.01      0.00
    0   -1    2     -1.07      0.00
    0   -1    1     -3.05      0.00
    0    1    0     -4.33      0.00
    0    1    1     -3.51      0.00
    0    1    2     -1.36      0.00
    0    1    3      0.07      0.00
    0    1    4      0.03      0.00
    0    1    5     -0.47      0.00
    0    1    6     -0.54      0.00
    0    1    7     -0.41      0.00
    0    1    8     -0.48      0.00
    0    1    9     -0.48      0.00
    0    1   10     -0.16      0.00
    0    1   11      0.25      0.00
    0    1   12      0.45      0.00
    0    1   13      0.44      0.00
    0    1   14      0.35      0.00
    0   -2   13     -0.22      0.00
    0   -2   12     -0.25      0.00
    0   -2   11     -0.12      0.00
    0   -2   10     -0.05      0.00
    0   -2    9     -0.04      0.00
    0   -2    8      0.05      0.00
    0   -2    7      0.10      0.00
    0   -2    6     -0.06      0.00
    0   -2    5     -0.31      0.00
    0   -2    4     -0.42      0.00
    0   -2    3     -0.34      0.00
    0   -2    2     -0.01      0.00
    0   -2    1      0.56      0.00
    0    2    0      0.87      0.00
    0    2    1      0.39      0.00
    0    2    2     -0.58      0.00
    0    2    3     -0.98      0.00
    0    2    4     -0.48      0.00
    0    2    5      0.16      0.00
    0    2    6      0.29      0.00
    0    2    7      0.19      0.00
    0    2    8      0.25      0.00
    0    2    9      0.22      0.00
    0    2   10     -0.17      0.00
    0    2   11     -0.63      0.00
    0    2   12     -0.73      0.00
    0    2   13     -0.53      0.00
    0    2   14     -0.34      0.00
    0    2   15     -0.25      0.00
    0   -3   12      0.33      0.00
    0   -3   11      0.11      0.00
    0   -3   10     -0.03      0.00
    0   -3    9      0.02      0.00
    0   -3    8     -0.02      0.00
    0   -3    7     -0.18      0.00
    0   -3    6     -0.11      0.00
    0   -3    5      0.22      0.00
    0   -3    4      0.39      0.00
    0   -3    3      0.17      0.00
    0   -3    2     -0.10      0.00
    0   -3    1      0.01      0.00
    0    3    0      0.51      0.00
    0    3    1      1.05      0.00
    0    3    2      1.25      0.00
    0    3    3      0.87      0.00
    0    3    4      0.20      0.00
    0    3    5     -0.19      0.00
    0    3    6     -0.07      0.00
    0    3    7      0.10      0.00
    0    3    8      0.01      0.00
    0    3    9     -0.05      0.00
    0    3   10      0.25      0.00
    0    3   11      0.62      0.00
    0    3   12      0.59      0.00
    0    3   13      0.22      0.00
    0    3   14     -0.04      0.00
    0    3   15     -0.03      0.00
    0   -4   11     -0.06      0.00
    0   -4   10      0.17      0.00
    0   -4    9      0.13      0.00
    0   -4    8      0.04      0.00
    0   -4    7      0.16      0.00
    0   -4    6      0.25      0.00
    0   -4    5      0.04      0.00
    0   -4    4     -0.18      0.00
    0   -4    3      0.04      0.00
    0   -4    2      0.52      0.00
    0   -4    1      0.63      0.00
    0    4    0      0.21      0.00
    0    4    1     -0.24      0.00
    0    4    2     -0.18      0.00
    0    4    3      0.35      0.00
    0    4    4      0.82      0.00
    0    4    5      0.74      0.00
    0    4    6      0.21      0.00
    0    4    7     -0.20      0.00
    0    4    8     -0.17      0.00
    0    4    9     -0.02      0.00
    0    4   10     -0.11      0.00
    0    4   11     -0.26      0.00
    0    4   12     -0.11      0.00
    0    4   13      0.25      0.00
    0    4   14      0.42      0.00
    0    4   15      0.28      0.00
    0   -5   10      0.03      0.00
    0   -5    9     -0.01      0.00
    0   -5    8      0.11      0.00
    0   -5    7      0.11      0.00
    0   -5    6     -0.05      0.00
    0   -5    5     -0.10      0.00
    0   -5    4      0.02      0.00
    0   -5    3     -0.01      0.00
    0   -5    2     -0.31      0.00
    0   -5    1     -0.58      0.00
    0    5    0     -0.60      0.00
    0    5    1     -0.54      0.00
    0    5    2     -0.69      0.00
    0    5    3     -1.03      0.00
    0    5    4     -1.22      0.00
    0    5    5     -0.96      0.00
    0    5    6     -0.34      0.00
    0    5    7      0.19      0.00
    0    5    8      0.33      0.00
    0    5    9      0.23      0.00
    0    5   10      0.15      0.00
    0    5   11      0.05      0.00
    0    5   12     -0.21      0.00
    0    5   13     -0.47      0.00
    0    5   14     -0.44      0.00
    0    5   15     -0.15      0.00
    0   -6   10     -0.41      0.00
    0   -6    9     -0.32      0.00
    0   -6    8     -0.35      0.00
    0   -6    7     -0.41      0.00
    0   -6    6     -0.32      0.00
    0   -6    5     -0.13      0.00
    0   -6    4     -0.03      0.00
    0   -6    3     -0.08      0.00
    0   -6    2     -0.18      0.00
    0   -6    1     -0.22      0.00
    0    6    0     -0.13      0.00
    0    6    1      0.08      0.00
    0    6    2      0.31      0.00
    0    6    3      0.44      0.00
    0    6    4      0.46      0.00
    0    6    5      0.37      0.00
    0    6    6      0.10      0.00
    0    6    7     -0.26      0.00
    0    6    8     -0.52      0.00
    0    6    9     -0.55      0.00
    0    6   10     -0.43      0.00
    0    6   11     -0.21      0.00
    0    6   12      0.10      0.00
    0    6   13      0.28      0.00
    0    6   14      0.14      0.00
    0    6   15     -0.19      0.00
    0   -7   10      0.43      0.00
    0   -7    9      0.38      0.00
    0   -7    8      0.33      0.00
    0   -7    7      0.39      0.00
    0   -7    6      0.45      0.00
    0   -7    5      0.38      0.00
    0   -7    4      0.19      0.00
    0   -7    3      0.12      0.00
    0   -7    2      0.34      0.00
    0   -7    1      0.69      0.00
    0    7    0      0.80      0.00
    0    7    1      0.54      0.00
    0    7    2      0.23      0.00
    0    7    3      0.20      0.00
    0    7    4      0.30      0.00
    0    7    5      0.24      0.00
    0    7    6      0.12      0.00
    0    7    7      0.22      0.00
    0    7    8      0.51      0.00
    0    7    9      0.66      0.00
    0    7   10      0.55      0.00
    0    7   11      0.32      0.00
    0    7   12      0.10      0.00
    0    7   13      0.00      0.00
    0    7   14      0.13      0.00
    0   -8    9      0.02      0.00
    0   -8    8     -0.02      0.00
    0   -8    7     -0.14      0.00
    0   -8    6     -0.31      0.00
    0   -8    5     -0.38      0.00
    0   -8    4     -0.29      0.00
    0   -8    3     -0.16      0.00
    0   -8    2     -0.25      0.00
    0   -8    1     -0.55      0.00
    0    8    0     -0.71      0.00
    0    8    1     -0.46      0.00
    0    8    2     -0.07      0.00
    0    8    3      0.01      0.00
    0    8    4     -0.13      0.00
    0    8    5     -0.07      0.00
    0    8    6      0.16      0.00
    0    8    7      0.16      0.00
    0    8    8     -0.14      0.00
    0    8    9     -0.32      0.00
    0    8   10     -0.17      0.00
    0    8   11      0.03      0.00
    0    8   12      0.06      0.00
    0    8   13     -0.03      0.00
    0    8   14     -0.13      0.00
    0   -9    9     -0.40      0.00
    0   -9    8     -0.18      0.00
    0   -9    7      0.13      0.00
    0   -9    6      0.32      0.00
    0   -9    5      0.31      0.00
    0   -9    4      0.20      0.00
    0   -9    3      0.10      0.00
    0   -9    2      0.12      0.00
    0   -9    1      0.27      0.00
    0    9    0      0.35      0.00
    0    9    1      0.15      0.00
    0    9    2     -0.19      0.00
    0    9    3     -0.34      0.00
    0    9    4     -0.27      0.00
    0    9    5     -0.31      0.00
    0    9    6     -0.51      0.00
    0    9    7     -0.52      0.00
    0    9    8     -0.24      0.00
    0    9    9     -0.12      0.00
    0    9   10     -0.37      0.00
    0    9   11     -0.58      0.00
    0    9   12     -0.41      0.00
    0    9   13     -0.10      0.00
    0    9   14      0.00      0.00
    0  -10    8     -0.02      0.00
    0  -10    7     -0.50      0.00
    0  -10    6     -0.72      0.00
    0  -10    5     -0.48      0.00
    0  -10    3      0.14      0.00
    0  -10    2      0.07      0.00
    0  -10    1     -0.09      0.00
    0   10    0     -0.16      0.00
    0   10    1     -0.10      0.00
    0   10    2      0.02      0.00
    0   10    3      0.06      0.00
    0   10    4      0.04      0.00
    0   10    5      0.13      0.00
    0   10    6      0.34      0.00
    0   10    7      0.38      0.00
    0   10    8      0.19      0.00
    0   10    9      0.15      0.00
    0   10   10      0.46      0.00
    0   10   11      0.71      0.00
    0   10   12      0.46      0.00
    0   10   13      0.02      0.00
    0  -11    7      0.81      0.00
    0  -11    6      1.08      0.00
    0  -11    5      0.75      0.00
    0  -11    4      0.07      0.00
    0  -11    3     -0.35      0.00
    0  -11    2     -0.28      0.00
    0  -11    1     -0.04      0.00
    0   11    0      0.08      0.00
    0   11    1      0.13      0.00
    0   11    2      0.23      0.00
    0   11    3      0.35      0.00
    0   11    4      0.36      0.00
    0   11    5      0.22      0.00
    0   11    6      0.01      0.00
    0   11    7     -0.02      0.00
    0   11    8      0.14      0.00
    0   11    9      0.19      0.00
    0   11   10     -0.06      0.00
    0   11   11     -0.29      0.00
    0   11   12     -0.10      0.00
    0   11   13      0.30      0.00
    0  -12    6     -0.84      0.00
    0  -12    5     -0.67      0.00
    0  -12    4     -0.08      0.00
    0  -12    3      0.37      0.00
    0  -12    2      0.32      0.00
    0  -12    1      0.04      0.00
    0   12    0     -0.09      0.00
    0   12    1     -0.08      0.00
    0   12    2     -0.17      0.00
    0   12    3     -0.30      0.00
    0   12    4     -0.27      0.00
    0   12    5     -0.07      0.00
    0   12    6      0.11      0.00
    0   12    7      0.06      0.00
    0   12    8     -0.17      0.00
    0   12    9     -0.34      0.00
    0   12   10     -0.27      0.00
    0   12   11     -0.15      0.00
    0   12   12     -0.24      0.00
    0  -13    4     -0.05      0.00
    0  -13    3     -0.26      0.00
    0  -13    2     -0.15      0.00
    0  -13    1      0.13      0.00
    0   13    0      0.20      0.00
    0   13    1      0.08      0.00
    0   13    2      0.01      0.00
    0   13    3      0.03      0.00
    0   13    4     -0.07      0.00
    0   13    5     -0.31      0.00
    0   13    6     -0.45      0.00
    0   13    7     -0.33      0.00
    0   13    8     -0.06      0.00
    0   13    9      0.14      0.00
    0   13   10      0.20      0.00
    0   13   11      0.19      0.00
    0  -14    2     -0.07      0.00
    0  -14    1     -0.30      0.00
    0   14    0     -0.31      0.00
    0   14    1     -0.11      0.00
    0   14    2      0.04      0.00
    0   14    3      0.06      0.00
    0   14    4      0.14      0.00
    0   14    5      0.32      0.00
    0   14    6      0.39      0.00
    0   14    7      0.24      0.00
    0   14    8      0.04      0.00
    0   14    9     -0.04      0.00
    0   15    1      0.06      0.00
    0   15    2     -0.07      0.00
    0   15    3     -0.05      0.00
    0   15    4     -0.02      0.00
    0   15    5     -0.07      0.00
    0   15    6     -0.05      0.00
    0   15    7      0.12      0.00
   -1   15    6     -0.68      0.00
   -1   15    5     -0.72      0.00
   -1   15    4     -0.50      0.00
   -1   15    3     -0.19      0.00
   -1   15    2     -0.05      0.00
   -1   15    1     -0.08      0.00
   -1   14    9     -0.12      0.00
   -1   14    8     -0.07      0.00
   -1   14    7      0.18      0.00
   -1   14    6      0.46      0.00
   -1   14    5      0.55      0.00
   -1   14    4      0.40      0.00
   -1   14    3      0.20      0.00
   -1   14    2      0.12      0.00
   -1   14    1      0.17      0.00
   -1   14    0      0.19      0.00
    1  -14    1      0.10      0.00
    1  -14    2      0.09      0.00
   -1   13   10     -0.04      0.00
   -1   13    9      0.09      0.00
   -1   13    8      0.22      0.00
   -1   13    7      0.20      0.00
   -1   13    6      0.08      0.00
   -1   13    5      0.04      0.00
   -1   13    4      0.09      0.00
   -1   13    3      0.15      0.00
   -1   13    2      0.15      0.00
   -1   13    1      0.12      0.00
   -1   13    0      0.09      0.00
    1  -13    1      0.06      0.00
    1  -13    2     -0.05      0.00
    1  -13    3     -0.29      0.00
    1  -13    4     -0.48      0.00
   -1   12   11      0.08      0.00
   -1   12   10      0.09      0.00
   -1   12    9      0.03      0.00
   -1   12    8     -0.16      0.00
   -1   12    7     -0.27      0.00
   -1   12    6     -0.25      0.00
   -1   12    5     -0.24      0.00
   -1   12    4     -0.25      0.00
   -1   12    3     -0.20      0.00
   -1   12    2     -0.16      0.00
   -1   12    1     -0.23      0.00
   -1   12    0     -0.36      0.00
    1  -12    1     -0.37      0.00
    1  -12    2     -0.23      0.00
    1  -12    3     -0.05      0.00
    1  -12    4      0.09      0.00
    1  -12    5      0.13      0.00
    1  -12    6      0.04      0.00
   -1   11   12     -0.13      0.00
   -1   11   11      0.10      0.00
   -1   11   10      0.08      0.00
   -1   11    9      0.00      0.00
   -1   11    8      0.06      0.00
   -1   11    7      0.11      0.00
   -1   11    6      0.03      0.00
   -1   11    5     -0.06      0.00
   -1   11    4     -0.08      0.00
   -1   11    3     -0.17      0.00
   -1   11    2     -0.28      0.00
   -1   11    1     -0.20      0.00
   -1   11    0      0.06      0.00
    1  -11    1      0.22      0.00
    1  -11    2      0.21      0.00
    1  -11    3      0.21      0.00
    1  -11    4      0.28      0.00
    1  -11    5      0.22      0.00
    1  -11    6      0.00      0.00
    1  -11    7     -0.21      0.00
   -1   10   13      0.28      0.00
   -1   10   12     -0.02      0.00
   -1   10   11     -0.34      0.00
   -1   10   10     -0.33      0.00
   -1   10    9     -0.13      0.00
   -1   10    8     -0.04      0.00
   -1   10    7     -0.01      0.00
   -1   10    6      0.12      0.00
   -1   10    5      0.27      0.00
   -1   10    4      0.30      0.00
   -1   10    3      0.33      0.00
   -1   10    2      0.48      0.00
   -1   10    1      0.57      0.00
   -1   10    0      0.44      0.00
    1  -10    1      0.27      0.00
    1  -10    2      0.19      0.00
    1  -10    3      0.04      0.00
    1  -10    4     -0.23      0.00
    1  -10    5     -0.34      0.00
    1  -10    6     -0.05      0.00
    1  -10    7      0.34      0.00
    1  -10    8      0.40      0.00
   -1    9   13     -0.19      0.00
   -1    9   12      0.06      0.00
   -1    9   11      0.35      0.00
   -1    9   10      0.35      0.00
   -1    9    9      0.10      0.00
   -1    9    8     -0.07      0.00
   -1    9    7     -0.05      0.00
   -1    9    6     -0.07      0.00
   -1    9    5     -0.18      0.00
   -1    9    4     -0.18      0.00
   -1    9    3     -0.07      0.00
   -1    9    2     -0.11      0.00
   -1    9    1     -0.31      0.00
   -1    9    0     -0.46      0.00
    1   -9    1     -0.44      0.00
    1   -9    2     -0.37      0.00
    1   -9    3     -0.24      0.00
    1   -9    4      0.02      0.00
    1   -9    5      0.18      0.00
    1   -9    6      0.03      0.00
    1   -9    7     -0.27      0.00
    1   -9    8     -0.28      0.00
    1   -9    9      0.08      0.00
   -1    8   14      0.26      0.00
   -1    8   13      0.19      0.00
   -1    8   12      0.07      0.00
   -1    8   11     -0.07      0.00
   -1    8   10     -0.07      0.00
   -1    8    9      0.14      0.00
   -1    8    8      0.28      0.00
   -1    8    7      0.16      0.00
   -1    8    6      0.02      0.00
   -1    8    5      0.06      0.00
   -1    8    4      0.12      0.00
   -1    8    3      0.00      0.00
   -1    8    2     -0.14      0.00
   -1    8    1     -0.03      0.00
   -1    8    0      0.21      0.00
    1   -8    1      0.30      0.00
    1   -8    2      0.19      0.00
    1   -8    3      0.01      0.00
    1   -8    4     -0.11      0.00
    1   -8    5     -0.11      0.00
    1   -8    6      0.02      0.00
    1   -8    7      0.11      0.00
    1   -8    8     -0.01      0.00
    1   -8    9     -0.30      0.00
   -1    7   14     -0.39      0.00
   -1    7   13     -0.24      0.00
   -1    7   12     -0.23      0.00
   -1    7   11     -0.25      0.00
   -1    7   10     -0.26      0.00
   -1    7    9     -0.36      0.00
   -1    7    8     -0.43      0.00
   -1    7    7     -0.26      0.00
   -1    7    6      0.02      0.00
   -1    7    5      0.04      0.00
   -1    7    4     -0.17      0.00
   -1    7    3     -0.27      0.00
   -1    7    2     -0.14      0.00
   -1    7    1     -0.09      0.00
   -1    7    0     -0.25      0.00
    1   -7    1     -0.36      0.00
    1   -7    2     -0.17      0.00
    1   -7    3      0.17      0.00
    1   -7    4      0.34      0.00
    1   -7    5      0.20      0.00
    1   -7    6     -0.02      0.00
    1   -7    7     -0.02      0.00
    1   -7    8      0.23      0.00
    1   -7    9      0.42      0.00
    1   -7   10      0.35      0.00
   -1    6   14      0.53      0.00
   -1    6   13      0.25      0.00
   -1    6   12      0.24      0.00
   -1    6   11      0.35      0.00
   -1    6   10      0.38      0.00
   -1    6    9      0.40      0.00
   -1    6    8      0.43      0.00
   -1    6    7      0.30      0.00
   -1    6    6     -0.03      0.00
   -1    6    5     -0.20      0.00
   -1    6    4     -0.02      0.00
   -1    6    3      0.22      0.00
   -1    6    2      0.22      0.00
   -1    6    1      0.13      0.00
   -1    6    0      0.21      0.00
    1   -6    1      0.38      0.00
    1   -6    2      0.35      0.00
    1   -6    3      0.07      0.00
    1   -6    4     -0.18      0.00
    1   -6    5     -0.15      0.00
    1   -6    6      0.03      0.00
    1   -6    7      0.01      0.00
    1   -6    8     -0.28      0.00
    1   -6    9     -0.43      0.00
    1   -6   10     -0.16      0.00
   -1    5   14     -0.41      0.00
   -1    5   13     -0.07      0.00
   -1    5   12     -0.05      0.00
   -1    5   11     -0.20      0.00
   -1    5   10     -0.26      0.00
   -1    5    9     -0.27      0.00
   -1    5    8     -0.36      0.00
   -1    5    7     -0.36      0.00
   -1    5    6     -0.09      0.00
   -1    5    5      0.24      0.00
   -1    5    4      0.33      0.00
   -1    5    3      0.26      0.00
   -1    5    2      0.27      0.00
   -1    5    1      0.37      0.00
   -1    5    0      0.34      0.00
    1   -5    1      0.16      0.00
    1   -5    2     -0.05      0.00
    1   -5    3     -0.14      0.00
    1   -5    4     -0.14      0.00
    1   -5    5     -0.12      0.00
    1   -5    6     -0.09      0.00
    1   -5    7      0.04      0.00
    1   -5    8      0.28      0.00
    1   -5    9      0.39      0.00
    1   -5   10      0.12      0.00
   -1    4   14     -0.05      0.00
   -1    4   13     -0.32      0.00
   -1    4   12     -0.24      0.00
   -1    4   11     -0.02      0.00
   -1    4   10      0.08      0.00
   -1    4    9      0.13      0.00
   -1    4    8      0.30      0.00
   -1    4    7      0.42      0.00
   -1    4    6      0.26      0.00
   -1    4    5     -0.06      0.00
   -1    4    4     -0.29      0.00
   -1    4    3     -0.44      0.00
   -1    4    2     -0.59      0.00
   -1    4    1     -0.68      0.00
   -1    4    0     -0.65      0.00
    1   -4    1     -0.58      0.00
    1   -4    2     -0.51      0.00
    1   -4    3     -0.30      0.00
    1   -4    4      0.04      0.00
    1   -4    5      0.21      0.00
    1   -4    6      0.08      0.00
    1   -4    7     -0.17      0.00
    1   -4    8     -0.32      0.00
    1   -4    9     -0.30      0.00
    1   -4   10     -0.09      0.00
    1   -4   11      0.20      0.00
   -1    3   14      0.42      0.00
   -1    3   13      0.58      0.00
   -1    3   12      0.37      0.00
   -1    3   11      0.09      0.00
   -1    3   10     -0.02      0.00
   -1    3    9     -0.07      0.00
   -1    3    8     -0.23      0.00
   -1    3    7     -0.36      0.00
   -1    3    6     -0.25      0.00
   -1    3    5     -0.06      0.00
   -1    3    4      0.00      0.00
   -1    3    3      0.06      0.00
   -1    3    2      0.24      0.00
   -1    3    1      0.29      0.00
   -1    3    0      0.06      0.00
    1   -3    1     -0.08      0.00
    1   -3    2      0.18      0.00
    1   -3    3      0.46      0.00
    1   -3    4      0.32      0.00
    1   -3    5      0.02      0.00
    1   -3    6      0.03      0.00
    1   -3    7      0.28      0.00
    1   -3    8      0.32      0.00
    1   -3    9      0.10      0.00
    1   -3   10     -0.11      0.00
    1   -3   11     -0.21      0.00
    1   -3   12     -0.25      0.00
   -1    2   14     -0.32      0.00
   -1    2   13     -0.37      0.00
   -1    2   12     -0.17      0.00
   -1    2   11      0.04      0.00
   -1    2   10      0.05      0.00
   -1    2    9      0.03      0.00
   -1    2    8      0.13      0.00
   -1    2    7      0.19      0.00
   -1    2    6      0.02      0.00
   -1    2    5     -0.13      0.00
   -1    2    4      0.03      0.00
   -1    2    3      0.22      0.00
   -1    2    2      0.06      0.00
   -1    2    0      0.28      0.00
    1   -2    1      0.90      0.00
    1   -2    2      0.87      0.00
    1   -2    3      0.19      0.00
    1   -2    4     -0.30      0.00
    1   -2    5     -0.24      0.00
    1   -2    6     -0.13      0.00
    1   -2    7     -0.23      0.00
    1   -2    8     -0.19      0.00
    1   -2    9      0.14      0.00
    1   -2   10      0.39      0.00
    1   -2   11      0.35      0.00
    1   -2   12      0.28      0.00
    1   -2   13      0.32      0.00
   -1    1   14      0.03      0.00
   -1    1   13     -0.05      0.00
   -1    1   12     -0.18      0.00
   -1    1   11     -0.18      0.00
   -1    1   10     -0.03      0.00
   -1    1    9      0.09      0.00
   -1    1    8      0.05      0.00
   -1    1    7     -0.01      0.00
   -1    1    6      0.15      0.00
   -1    1    5      0.34      0.00
   -1    1    4      0.20      0.00
   -1    1    3     -0.05      0.00
   -1    1    2      0.22      0.00
   -1    1    1      0.82      0.00
   -1    1    0      0.78      0.00
    1   -1    1     -0.16      0.00
    1   -1    2     -0.93      0.00
    1   -1    3     -0.70      0.00
    1   -1    4      0.01      0.00
    1   -1    5      0.30      0.00
    1   -1    6      0.20      0.00
    1   -1    7      0.12      0.00
    1   -1    8      0.03      0.00
    1   -1    9     -0.25      0.00
    1   -1   10     -0.44      0.00
    1   -1   11     -0.32      0.00
    1   -1   12     -0.19      0.00
    1   -1   13     -0.31      0.00
    1   -1   14     -0.39      0.00
   -1    0   14     -0.05      0.00
   -1    0   13      0.18      0.00
   -1    0   12      0.28      0.00
   -1    0   11      0.14      0.00
   -1    0   10     -0.07      0.00
   -1    0    9     -0.21      0.00
   -1    0    8     -0.22      0.00
   -1    0    7     -0.13      0.00
   -1    0    6     -0.13      0.00
   -1    0    5     -0.25      0.00
   -1    0    4     -0.25      0.00
   -1    0    3     -0.15      0.00
   -1    0    2     -0.49      0.00
   -1    0    1     -1.43      0.00
    1    0    0     -2.07      0.00
    1    0    1     -1.53      0.00
    1    0    2     -0.33      0.00
    1    0    3      0.29      0.00
    1    0    4      0.03      0.00
    1    0    5     -0.33      0.00
    1    0    6     -0.31      0.00
    1    0    7     -0.14      0.00
    1    0    8     -0.03      0.00
    1    0    9      0.11      0.00
    1    0   10      0.18      0.00
    1    0   11      0.02      0.00
    1    0   12     -0.12      0.00
    1    0   13      0.04      0.00
    1    0   14      0.25      0.00
   -1   -1   13      0.01      0.00
   -1   -1   12     -0.08      0.00
   -1   -1   11      0.06      0.00
   -1   -1   10      0.16      0.00
   -1   -1    9      0.16      0.00
   -1   -1    8      0.19      0.00
   -1   -1    7      0.18      0.00
   -1   -1    6      0.04      0.00
   -1   -1    5     -0.07      0.00
   -1   -1    4     -0.05      0.00
   -1   -1    3      0.03      0.00
   -1   -1    2      0.25      0.00
   -1   -1    1      0.88      0.00
    1    1    0      1.67      0.00
    1    1    1      1.79      0.00
    1    1    2      1.03      0.00
    1    1    3      0.20      0.00
    1    1    4      0.02      0.00
    1    1    5      0.24      0.00
    1    1    6      0.33      0.00
    1    1    7      0.24      0.00
    1    1    8      0.18      0.00
    1    1    9      0.14      0.00
    1    1   10      0.10      0.00
    1    1   11      0.17      0.00
    1    1   12      0.28      0.00
    1    1   13      0.20      0.00
    1    1   14      0.02      0.00
    1    1   15      0.06      0.00
   -1   -2   13     -0.11      0.00
   -1   -2   12     -0.07      0.00
   -1   -2   11     -0.21      0.00
   -1   -2   10     -0.19      0.00
   -1   -2    9      0.01      0.00
   -1   -2    8      0.02      0.00
   -1   -2    7     -0.15      0.00
   -1   -2    6     -0.08      0.00
   -1   -2    5      0.26      0.00
   -1   -2    4      0.41      0.00
   -1   -2    3      0.25      0.00
   -1   -2    2      0.11      0.00
   -1   -2    1      0.08      0.00
    1    2    0     -0.06      0.00
    1    2    1     -0.26      0.00
    1    2    2     -0.18      0.00
    1    2    3      0.13      0.00
    1    2    4      0.24      0.00
    1    2    5      0.08      0.00
    1    2    6     -0.10      0.00
    1    2    7     -0.16      0.00
    1    2    8     -0.23      0.00
    1    2    9     -0.27      0.00
    1    2   10     -0.18      0.00
    1    2   11     -0.03      0.00
    1    2   12     -0.01      0.00
    1    2   13     -0.08      0.00
    1    2   14     -0.14      0.00
    1    2   15     -0.22      0.00
   -1   -3   12      0.01      0.00
   -1   -3   11      0.21      0.00
   -1   -3   10      0.23      0.00
   -1   -3    9     -0.02      0.00
   -1   -3    8     -0.09      0.00
   -1   -3    7      0.19      0.00
   -1   -3    6      0.31      0.00
   -1   -3    5     -0.09      0.00
   -1   -3    4     -0.49      0.00
   -1   -3    3     -0.38      0.00
   -1   -3    2     -0.10      0.00
   -1   -3    1     -0.22      0.00
    1    3    0     -0.63      0.00
    1    3    1     -0.82      0.00
    1    3    2     -0.69      0.00
    1    3    3     -0.49      0.00
    1    3    4     -0.33      0.00
    1    3    5     -0.15      0.00
    1    3    6     -0.03      0.00
    1    3    7      0.04      0.00
    1    3    8      0.16      0.00
    1    3    9      0.29      0.00
    1    3   10      0.19      0.00
    1    3   11     -0.11      0.00
    1    3   12     -0.29      0.00
    1    3   13     -0.17      0.00
    1    3   14      0.13      0.00
    1    3   15      0.34      0.00
   -1   -4   11     -0.12      0.00
   -1   -4   10     -0.22      0.00
   -1   -4    9     -0.15      0.00
   -1   -4    8     -0.11      0.00
   -1   -4    7     -0.36      0.00
   -1   -4    6     -0.58      0.00
   -1   -4    5     -0.31      0.00
   -1   -4    4      0.20      0.00
   -1   -4    3      0.28      0.00
   -1   -4    2     -0.09      0.00
   -1   -4    1     -0.30      0.00
    1    4    0     -0.07      0.00
    1    4    1      0.21      0.00
    1    4    2      0.21      0.00
    1    4    3     -0.01      0.00
    1    4    4     -0.23      0.00
    1    4    5     -0.36      0.00
    1    4    6     -0.33      0.00
    1    4    7     -0.21      0.00
    1    4    8     -0.19      0.00
    1    4    9     -0.30      0.00
    1    4   10     -0.33      0.00
    1    4   11     -0.12      0.00
    1    4   12      0.08      0.00
    1    4   13      0.00      0.00
    1    4   14     -0.30      0.00
    1    4   15     -0.48      0.00
   -1   -5   11      0.01      0.00
   -1   -5   10      0.00      0.00
   -1   -5    9      0.10      0.00
   -1   -5    8      0.23      0.00
   -1   -5    7      0.41      0.00
   -1   -5    6      0.57      0.00
   -1   -5    5      0.48      0.00
   -1   -5    4      0.15      0.00
   -1   -5    3     -0.03      0.00
   -1   -5    2      0.16      0.00
   -1   -5    1      0.49      0.00
    1    5    0      0.67      0.00
    1    5    1      0.69      0.00
    1    5    2      0.67      0.00
    1    5    3      0.64      0.00
    1    5    4      0.67      0.00
    1    5    5      0.74      0.00
    1    5    6      0.72      0.00
    1    5    7      0.49      0.00
    1    5    8      0.26      0.00
    1    5    9      0.25      0.00
    1    5   10      0.39      0.00
    1    5   11      0.46      0.00
    1    5   12      0.47      0.00
    1    5   13      0.56      0.00
    1    5   14      0.68      0.00
    1    5   15      0.63      0.00
   -1   -6   10      0.45      0.00
   -1   -6    9      0.37      0.00
   -1   -6    8      0.07      0.00
   -1   -6    7     -0.13      0.00
   -1   -6    6     -0.18      0.00
   -1   -6    5     -0.18      0.00
   -1   -6    4     -0.18      0.00
   -1   -6    3     -0.15      0.00
   -1   -6    2     -0.11      0.00
   -1   -6    1     -0.11      0.00
    1    6    0     -0.25      0.00
    1    6    1     -0.47      0.00
    1    6    2     -0.54      0.00
    1    6    3     -0.37      0.00
    1    6    4     -0.19      0.00
    1    6    5     -0.27      0.00
    1    6    6     -0.45      0.00
    1    6    7     -0.37      0.00
    1    6    8     -0.08      0.00
    1    6    9      0.07      0.00
    1    6   10     -0.09      0.00
    1    6   11     -0.37      0.00
    1    6   12     -0.65      0.00
    1    6   13     -0.86      0.00
    1    6   14     -0.88      0.00
    1    6   15     -0.62      0.00
   -1   -7   10     -0.72      0.00
   -1   -7    9     -0.79      0.00
   -1   -7    8     -0.47      0.00
   -1   -7    7     -0.21      0.00
   -1   -7    6     -0.21      0.00
   -1   -7    5     -0.22      0.00
   -1   -7    4     -0.06      0.00
   -1   -7    3      0.12      0.00
   -1   -7    2      0.04      0.00
   -1   -7    1     -0.27      0.00
    1    7    0     -0.46      0.00
    1    7    1     -0.35      0.00
    1    7    2     -0.19      0.00
    1    7    3     -0.28      0.00
    1    7    4     -0.46      0.00
    1    7    5     -0.35      0.00
    1    7    6     -0.04      0.00
    1    7    7      0.03      0.00
    1    7    8     -0.26      0.00
    1    7    9     -0.50      0.00
    1    7   10     -0.41      0.00
    1    7   11     -0.07      0.00
    1    7   12      0.30      0.00
    1    7   13      0.62      0.00
    1    7   14      0.68      0.00
    1    7   15      0.38      0.00
   -1   -8    9      0.59      0.00
   -1   -8    8      0.39      0.00
   -1   -8    7      0.21      0.00
   -1   -8    6      0.19      0.00
   -1   -8    5      0.20      0.00
   -1   -8    4      0.06      0.00
   -1   -8    3     -0.10      0.00
   -1   -8    2     -0.03      0.00
   -1   -8    1      0.31      0.00
    1    8    0      0.61      0.00
    1    8    1      0.59      0.00
    1    8    2      0.35      0.00
    1    8    3      0.22      0.00
    1    8    4      0.21      0.00
    1    8    5      0.07      0.00
    1    8    6     -0.17      0.00
    1    8    7     -0.15      0.00
    1    8    8      0.25      0.00
    1    8    9      0.61      0.00
    1    8   10      0.57      0.00
    1    8   11      0.26      0.00
    1    8   12     -0.05      0.00
    1    8   13     -0.29      0.00
    1    8   14     -0.40      0.00
    1    8   15     -0.20      0.00
   -1   -9    9      0.06      0.00
   -1   -9    8      0.12      0.00
   -1   -9    7      0.06      0.00
   -1   -9    6      0.00      0.00
   -1   -9    5      0.10      0.00
   -1   -9    4      0.26      0.00
   -1   -9    3      0.27      0.00
   -1   -9    2      0.07      0.00
   -1   -9    1     -0.18      0.00
    1    9    0     -0.30      0.00
    1    9    1     -0.19      0.00
    1    9    2      0.07      0.00
    1    9    3      0.33      0.00
    1    9    4      0.51      0.00
    1    9    5      0.69      0.00
    1    9    6      0.80      0.00
    1    9    7      0.59      0.00
    1    9    8      0.05      0.00
    1    9    9     -0.36      0.00
    1    9   10     -0.30      0.00
    1    9   11      0.04      0.00
    1    9   12      0.26      0.00
    1    9   13      0.32      0.00
    1    9   14      0.35      0.00
   -1  -10    8     -0.44      0.00
   -1  -10    7     -0.12      0.00
   -1  -10    6      0.14      0.00
   -1  -10    4     -0.35      0.00
   -1  -10    3     -0.39      0.00
   -1  -10    2     -0.08      0.00
   -1  -10    1      0.17      0.00
    1   10    0      0.11      0.00
    1   10    1     -0.10      0.00
    1   10    2     -0.27      0.00
    1   10    3     -0.39      0.00
    1   10    4     -0.54      0.00
    1   10    5     -0.69      0.00
    1   10    6     -0.72      0.00
    1   10    7     -0.48      0.00
    1   10    8     -0.01      0.00
    1   10    9      0.30      0.00
    1   10   10      0.12      0.00
    1   10   11     -0.32      0.00
    1   10   12     -0.55      0.00
    1   10   13     -0.46      0.00
   -1  -11    7     -0.14      0.00
   -1  -11    6     -0.55      0.00
   -1  -11    5     -0.50      0.00
   -1  -11    4     -0.08      0.00
   -1  -11    3      0.13      0.00
   -1  -11    2     -0.10      0.00
   -1  -11    1     -0.34      0.00
    1   11    0     -0.27      0.00
    1   11    1     -0.07      0.00
    1   11    2     -0.05      0.00
    1   11    3     -0.16      0.00
    1   11    4     -0.15      0.00
    1   11    5     -0.05      0.00
    1   11    6     -0.04      0.00
    1   11    7     -0.20      0.00
    1   11    8     -0.46      0.00
    1   11   10     -0.30      0.00
    1   11   11      0.18      0.00
    1   11   12      0.45      0.00
    1   11   13      0.32      0.00
   -1  -12    5      0.70      0.00
   -1  -12    4      0.46      0.00
   -1  -12    3      0.23      0.00
   -1  -12    2      0.30      0.00
   -1  -12    1      0.46      0.00
    1   12    0      0.43      0.00
    1   12    1      0.33      0.00
    1   12    2      0.43      0.00
    1   12    3      0.60      0.00
    1   12    4      0.59      0.00
    1   12    5      0.42      0.00
    1   12    6      0.37      0.00
    1   12    7      0.49      0.00
    1   12   10      0.38      0.00
    1   12   11      0.05      0.00
    1   12   12     -0.16      0.00
   -1  -13    4     -0.24      0.00
   -1  -13    3     -0.22      0.00
   -1  -13    2     -0.24      0.00
   -1  -13    1     -0.26      0.00
    1   13    0     -0.24      0.00
    1   13    1     -0.25      0.00
    1   13    2     -0.39      0.00
    1   13    3     -0.50      0.00
    1   13    4     -0.34      0.00
    1   13    5     -0.03      0.00
    1   13    6      0.07      0.00
    1   13    7     -0.08      0.00
    1   13    9     -0.17      0.00
    1   13   10     -0.03      0.00
    1   13   11      0.09      0.00
   -1  -14    2      0.01      0.00
   -1  -14    1     -0.08      0.00
    1   14    0     -0.16      0.00
    1   14    1     -0.12      0.00
    1   14    2      0.04      0.00
    1   14    3      0.09      0.00
    1   14    4     -0.12      0.00
    1   14    5     -0.43      0.00
    1   14    6     -0.48      0.00
    1   14    7     -0.23      0.00
    1   14    8     -0.04      0.00
    1   14    9     -0.11      0.00
    1   14   10     -0.29      0.00
    1   15    1      0.25      0.00
    1   15    2      0.14      0.00
    1   15    3      0.13      0.00
    1   15    4      0.28      0.00
    1   15    5      0.42      0.00
    1   15    6      0.30      0.00
    1   15    7     -0.05      0.00
    1   15    8     -0.28      0.00
   -2   15    5      0.62      0.00
   -2   15    4      0.37      0.00
   -2   15    3      0.14      0.00
   -2   15    2      0.01      0.00
   -2   14    8      0.20      0.00
   -2   14    7     -0.15      0.00
   -2   14    6     -0.50      0.00
   -2   14    5     -0.55      0.00
   -2   14    4     -0.37      0.00
   -2   14    3     -0.17      0.00
   -2   14    2     -0.02      0.00
   -2   14    1      0.12      0.00
   -2   14    0      0.24      0.00
    2  -14    1      0.24      0.00
    2  -14    2      0.10      0.00
   -2   13   10     -0.18      0.00
   -2   13    9     -0.30      0.00
   -2   13    8     -0.35      0.00
   -2   13    7     -0.17      0.00
   -2   13    6      0.05      0.00
   -2   13    5      0.06      0.00
   -2   13    4     -0.04      0.00
   -2   13    3     -0.08      0.00
   -2   13    2     -0.09      0.00
   -2   13    1     -0.19      0.00
   -2   13    0     -0.24      0.00
    2  -13    1     -0.05      0.00
    2  -13    2      0.27      0.00
    2  -13    3      0.43      0.00
    2  -13    4      0.36      0.00
   -2   12   11     -0.09      0.00
   -2   12   10     -0.06      0.00
   -2   12    9      0.03      0.00
   -2   12    8      0.11      0.00
   -2   12    7      0.08      0.00
   -2   12    6      0.04      0.00
   -2   12    5      0.14      0.00
   -2   12    4      0.26      0.00
   -2   12    3      0.20      0.00
   -2   12    2      0.08      0.00
   -2   12    1      0.14      0.00
   -2   12    0      0.26      0.00
    2  -12    1      0.09      0.00
    2  -12    2     -0.30      0.00
    2  -12    3     -0.46      0.00
    2  -12    4     -0.26      0.00
    2  -12    5      0.04      0.00
    2  -12    6      0.21      0.00
   -2   11   12      0.24      0.00
   -2   11   11      0.27      0.00
   -2   11   10      0.27      0.00
   -2   11    9      0.28      0.00
   -2   11    8      0.26      0.00
   -2   11    7      0.25      0.00
   -2   11    6      0.22      0.00
   -2   11    5      0.10      0.00
   -2   11    4     -0.03      0.00
   -2   11    3      0.05      0.00
   -2   11    2      0.25      0.00
   -2   11    1      0.27      0.00
   -2   11    0      0.08      0.00
    2  -11    1      0.04      0.00
    2  -11    2      0.24      0.00
    2  -11    3      0.28      0.00
    2  -11    4     -0.04      0.00
    2  -11    5     -0.36      0.00
    2  -11    6     -0.35      0.00
    2  -11    7     -0.20      0.00
   -2   10   12     -0.20      0.00
   -2   10   11     -0.27      0.00
   -2   10   10     -0.28      0.00
   -2   10    9     -0.37      0.00
   -2   10    8     -0.45      0.00
   -2   10    7     -0.41      0.00
   -2   10    6     -0.31      0.00
   -2   10    5     -0.23      0.00
   -2   10    4     -0.18      0.00
   -2   10    3     -0.24      0.00
   -2   10    2     -0.44      0.00
   -2   10    1     -0.59      0.00
   -2   10    0     -0.55      0.00
    2  -10    1     -0.44      0.00
    2  -10    2     -0.42      0.00
    2  -10    3     -0.29      0.00
    2  -10    4      0.11      0.00
    2  -10    5      0.45      0.00
    2  -10    6      0.35      0.00
    2  -10    7     -0.01      0.00
    2  -10    8     -0.15      0.00
   -2    9   13     -0.15      0.00
   -2    9   12      0.17      0.00
   -2    9   11      0.27      0.00
   -2    9   10      0.23      0.00
   -2    9    9      0.33      0.00
   -2    9    8      0.46      0.00
   -2    9    7      0.34      0.00
   -2    9    6      0.07      0.00
   -2    9    5     -0.05      0.00
   -2    9    4      0.01      0.00
   -2    9    3      0.06      0.00
   -2    9    2      0.11      0.00
   -2    9    1      0.26      0.00
   -2    9    0      0.45      0.00
    2   -9    1      0.53      0.00
    2   -9    2      0.49      0.00
    2   -9    3      0.32      0.00
    2   -9    4      0.02      0.00
    2   -9    5     -0.22      0.00
    2   -9    6     -0.13      0.00
    2   -9    7      0.21      0.00
    2   -9    8      0.41      0.00
    2   -9    9      0.26      0.00
   -2    8   13      0.28      0.00
   -2    8   12     -0.18      0.00
   -2    8   11     -0.38      0.00
   -2    8   10     -0.30      0.00
   -2    8    9     -0.30      0.00
   -2    8    8     -0.38      0.00
   -2    8    7     -0.18      0.00
   -2    8    6      0.25      0.00
   -2    8    5      0.43      0.00
   -2    8    4      0.23      0.00
   -2    8    3      0.09      0.00
   -2    8    2      0.20      0.00
   -2    8    1      0.28      0.00
   -2    8    0      0.09      0.00
    2   -8    1     -0.14      0.00
    2   -8    2     -0.16      0.00
    2   -8    3     -0.01      0.00
    2   -8    4      0.11      0.00
    2   -8    5      0.09      0.00
    2   -8    6     -0.07      0.00
    2   -8    7     -0.28      0.00
    2   -8    8     -0.39      0.00
    2   -8    9     -0.31      0.00
   -2    7   13     -0.38      0.00
   -2    7   12      0.12      0.00
   -2    7   11      0.48      0.00
   -2    7   10      0.44      0.00
   -2    7    9      0.29      0.00
   -2    7    8      0.22      0.00
   -2    7    7      0.00      0.00
   -2    7    6     -0.39      0.00
   -2    7    5     -0.52      0.00
   -2    7    4     -0.16      0.00
   -2    7    3      0.18      0.00
   -2    7    2      0.09      0.00
   -2    7    1     -0.18      0.00
   -2    7    0     -0.18      0.00
    2   -7    1      0.00      0.00
    2   -7    2     -0.01      0.00
    2   -7    3     -0.24      0.00
    2   -7    4     -0.37      0.00
    2   -7    5     -0.22      0.00
    2   -7    6      0.05      0.00
    2   -7    7      0.20      0.00
    2   -7    8      0.20      0.00
    2   -7    9      0.16      0.00
    2   -7   10      0.15      0.00
   -2    6   14      0.28      0.00
   -2    6   13      0.28      0.00
   -2    6   12     -0.06      0.00
   -2    6   11     -0.43      0.00
   -2    6   10     -0.47      0.00
   -2    6    9     -0.25      0.00
   -2    6    8     -0.04      0.00
   -2    6    7      0.12      0.00
   -2    6    6      0.28      0.00
   -2    6    5      0.22      0.00
   -2    6    4     -0.17      0.00
   -2    6    3     -0.55      0.00
   -2    6    2     -0.53      0.00
   -2    6    1     -0.30      0.00
   -2    6    0     -0.25      0.00
    2   -6    1     -0.37      0.00
    2   -6    2     -0.33      0.00
    2   -6    3     -0.07      0.00
    2   -6    4      0.14      0.00
    2   -6    5      0.12      0.00
    2   -6    6     -0.05      0.00
    2   -6    7     -0.13      0.00
    2   -6    8     -0.08      0.00
    2   -6    9     -0.05      0.00
    2   -6   10     -0.13      0.00
   -2    5   14      0.11      0.00
   -2    5   13     -0.06      0.00
   -2    5   12      0.00      0.00
   -2    5   11      0.24      0.00
   -2    5   10      0.31      0.00
   -2    5    9      0.12      0.00
   -2    5    8     -0.11      0.00
   -2    5    7     -0.13      0.00
   -2    5    6      0.03      0.00
   -2    5    5      0.27      0.00
   -2    5    4      0.47      0.00
   -2    5    3      0.49      0.00
   -2    5    2      0.31      0.00
   -2    5    1      0.19      0.00
   -2    5    0      0.30      0.00
    2   -5    1      0.46      0.00
    2   -5    2      0.46      0.00
    2   -5    3      0.37      0.00
    2   -5    4      0.36      0.00
    2   -5    5      0.38      0.00
    2   -5    6      0.32      0.00
    2   -5    7      0.18      0.00
    2   -5    8      0.08      0.00
    2   -5    9      0.06      0.00
    2   -5   10      0.10      0.00
   -2    4   14     -0.05      0.00
   -2    4   13      0.13      0.00
   -2    4   12      0.19      0.00
   -2    4   11      0.07      0.00
   -2    4   10     -0.03      0.00
   -2    4    9      0.05      0.00
   -2    4    8      0.17      0.00
   -2    4    7      0.06      0.00
   -2    4    6     -0.28      0.00
   -2    4    5     -0.56      0.00
   -2    4    4     -0.47      0.00
   -2    4    2      0.49      0.00
   -2    4    1      0.55      0.00
   -2    4    0      0.21      0.00
    2   -4    1     -0.03      0.00
    2   -4    2      0.07      0.00
    2   -4    3      0.11      0.00
    2   -4    4     -0.23      0.00
    2   -4    5     -0.61      0.00
    2   -4    6     -0.56      0.00
    2   -4    7     -0.21      0.00
    2   -4    8      0.00      0.00
    2   -4    9      0.02      0.00
    2   -4   10      0.03      0.00
   -2    3   14     -0.44      0.00
   -2    3   13     -0.57      0.00
   -2    3   12     -0.54      0.00
   -2    3   11     -0.36      0.00
   -2    3   10     -0.18      0.00
   -2    3    9     -0.14      0.00
   -2    3    8     -0.12      0.00
   -2    3    7      0.05      0.00
   -2    3    6      0.31      0.00
   -2    3    5      0.37      0.00
   -2    3    4      0.04      0.00
   -2    3    3     -0.59      0.00
   -2    3    1     -0.90      0.00
   -2    3    0     -0.30      0.00
    2   -3    1      0.01      0.00
    2   -3    2     -0.35      0.00
    2   -3    3     -0.76      0.00
    2   -3    4     -0.50      0.00
    2   -3    5      0.16      0.00
    2   -3    6      0.39      0.00
    2   -3    7      0.07      0.00
    2   -3    8     -0.20      0.00
    2   -3    9     -0.19      0.00
    2   -3   10     -0.18      0.00
    2   -3   11     -0.30      0.00
   -2    2   14      0.71      0.00
   -2    2   13      0.79      0.00
   -2    2   12      0.66      0.00
   -2    2   11      0.37      0.00
   -2    2   10      0.13      0.00
   -2    2    9      0.03      0.00
   -2    2    8     -0.04      0.00
   -2    2    7     -0.21      0.00
   -2    2    6     -0.27      0.00
   -2    2    5      0.02      0.00
   -2    2    4      0.55      0.00
   -2    2    3      0.92      0.00
   -2    2    2      0.84      0.00
   -2    2    1      0.28      0.00
   -2    2    0     -0.48      0.00
    2   -2    1     -0.84      0.00
    2   -2    2     -0.39      0.00
    2   -2    3      0.43      0.00
    2   -2    4      0.73      0.00
    2   -2    5      0.33      0.00
    2   -2    6     -0.04      0.00
    2   -2    7      0.06      0.00
    2   -2    8      0.24      0.00
    2   -2    9      0.16      0.00
    2   -2   10      0.10      0.00
    2   -2   11      0.25      0.00
    2   -2   12      0.27      0.00
    2   -2   13     -0.01      0.00
   -2    1   13     -0.43      0.00
   -2    1   12     -0.27      0.00
   -2    1   11      0.00      0.00
   -2    1   10      0.20      0.00
   -2    1    9      0.22      0.00
   -2    1    8      0.20      0.00
   -2    1    7      0.33      0.00
   -2    1    6      0.33      0.00
   -2    1    5     -0.16      0.00
   -2    1    4     -0.80      0.00
   -2    1    3     -0.82      0.00
   -2    1    2     -0.05      0.00
   -2    1    1      0.88      0.00
   -2    1    0      1.43      0.00
    2   -1    1      1.49      0.00
    2   -1    2      1.12      0.00
    2   -1    3      0.45      0.00
    2   -1    4     -0.14      0.00
    2   -1    5     -0.27      0.00
    2   -1    6     -0.11      0.00
    2   -1    7     -0.02      0.00
    2   -1    8      0.04      0.00
    2   -1    9      0.20      0.00
    2   -1   10      0.25      0.00
    2   -1   11      0.05      0.00
    2   -1   12     -0.07      0.00
    2   -1   13      0.21      0.00
    2   -1   14      0.50      0.00
   -2    0   13     -0.07      0.00
   -2    0   12     -0.22      0.00
   -2    0   11     -0.38      0.00
   -2    0   10     -0.48      0.00
   -2    0    9     -0.39      0.00
   -2    0    8     -0.21      0.00
   -2    0    7     -0.23      0.00
   -2    0    6     -0.29      0.00
   -2    0    5      0.05      0.00
   -2    0    4      0.62      0.00
   -2    0    3      0.49      0.00
   -2    0    2     -0.63      0.00
   -2    0    1     -1.71      0.00
    2    0    0     -1.75      0.00
    2    0    1     -1.08      0.00
    2    0    2     -0.60      0.00
    2    0    3     -0.48      0.00
    2    0    4     -0.29      0.00
    2    0    5      0.01      0.00
    2    0    6      0.13      0.00
    2    0    7     -0.02      0.00
    2    0    8     -0.30      0.00
    2    0    9     -0.51      0.00
    2    0   10     -0.48      0.00
    2    0   11     -0.16      0.00
    2    0   12      0.10      0.00
    2    0   13     -0.06      0.00
    2    0   14     -0.43      0.00
    2    0   15     -0.43      0.00
   -2   -1   13      0.15      0.00
   -2   -1   12      0.29      0.00
   -2   -1   11      0.37      0.00
   -2   -1   10      0.43      0.00
   -2   -1    9      0.38      0.00
   -2   -1    8      0.14      0.00
   -2   -1    7     -0.01      0.00
   -2   -1    6      0.05      0.00
   -2   -1    5     -0.03      0.00
   -2   -1    4     -0.38      0.00
   -2   -1    3     -0.33      0.00
   -2   -1    2      0.62      0.00
   -2   -1    1      1.60      0.00
    2    1    0      1.37      0.00
    2    1    1      0.17      0.00
    2    1    2     -0.60      0.00
    2    1    3     -0.36      0.00
    2    1    4      0.07      0.00
    2    1    5      0.02      0.00
    2    1    6     -0.20      0.00
    2    1    7     -0.08      0.00
    2    1    8      0.27      0.00
    2    1    9      0.44      0.00
    2    1   10      0.27      0.00
    2    1   11     -0.12      0.00
    2    1   12     -0.45      0.00
    2    1   13     -0.43      0.00
    2    1   14     -0.11      0.00
    2    1   15      0.11      0.00
   -2   -2   13      0.05      0.00
   -2   -2   12     -0.06      0.00
   -2   -2   11     -0.10      0.00
   -2   -2   10     -0.17      0.00
   -2   -2    9     -0.25      0.00
   -2   -2    8     -0.16      0.00
   -2   -2    7      0.07      0.00
   -2   -2    6      0.14      0.00
   -2   -2    5      0.09      0.00
   -2   -2    4      0.23      0.00
   -2   -2    3      0.36      0.00
   -2   -2    2     -0.03      0.00
   -2   -2    1     -0.66      0.00
    2    2    0     -0.57      0.00
    2    2    1      0.37      0.00
    2    2    2      1.06      0.00
    2    2    3      0.77      0.00
    2    2    4      0.13      0.00
    2    2    5     -0.02      0.00
    2    2    6      0.15      0.00
    2    2    7      0.06      0.00
    2    2    8     -0.21      0.00
    2    2    9     -0.20      0.00
    2    2   10      0.13      0.00
    2    2   11      0.47      0.00
    2    2   12      0.61      0.00
    2    2   13      0.60      0.00
    2    2   14      0.48      0.00
    2    2   15      0.31      0.00
   -2   -3   12      0.03      0.00
   -2   -3   11      0.05      0.00
   -2   -3   10      0.03      0.00
   -2   -3    9      0.10      0.00
   -2   -3    8      0.17      0.00
   -2   -3    7      0.07      0.00
   -2   -3    6     -0.07      0.00
   -2   -3    5     -0.05      0.00
   -2   -3    4      0.00      0.00
   -2   -3    3     -0.15      0.00
   -2   -3    2     -0.30      0.00
   -2   -3    1     -0.27      0.00
    2    3    0     -0.27      0.00
    2    3    1     -0.52      0.00
    2    3    2     -0.64      0.00
    2    3    3     -0.31      0.00
    2    3    4      0.10      0.00
    2    3    5      0.12      0.00
    2    3    6     -0.02      0.00
    2    3    7      0.14      0.00
    2    3    8      0.38      0.00
    2    3    9      0.20      0.00
    2    3   10     -0.30      0.00
    2    3   11     -0.51      0.00
    2    3   12     -0.30      0.00
    2    3   13     -0.06      0.00
    2    3   14     -0.08      0.00
    2    3   15     -0.19      0.00
   -2   -4   12     -0.25      0.00
   -2   -4   11     -0.26      0.00
   -2   -4   10     -0.08      0.00
   -2   -4    9      0.11      0.00
   -2   -4    8      0.11      0.00
   -2   -4    7      0.03      0.00
   -2   -4    6      0.02      0.00
   -2   -4    5     -0.04      0.00
   -2   -4    4     -0.21      0.00
   -2   -4    3     -0.26      0.00
   -2   -4    2      0.02      0.00
   -2   -4    1      0.45      0.00
    2    4    0      0.70      0.00
    2    4    1      0.62      0.00
    2    4    2      0.25      0.00
    2    4    3     -0.17      0.00
    2    4    4     -0.29      0.00
    2    4    5     -0.01      0.00
    2    4    6      0.18      0.00
    2    4    7     -0.08      0.00
    2    4    8     -0.43      0.00
    2    4    9     -0.26      0.00
    2    4   10      0.26      0.00
    2    4   11      0.39      0.00
    2    4   12     -0.10      0.00
    2    4   13     -0.60      0.00
    2    4   14     -0.62      0.00
    2    4   15     -0.32      0.00
   -2   -5   11      0.36      0.00
   -2   -5   10      0.16      0.00
   -2   -5    9     -0.29      0.00
   -2   -5    8     -0.58      0.00
   -2   -5    7     -0.48      0.00
   -2   -5    6     -0.22      0.00
   -2   -5    5     -0.02      0.00
   -2   -5    4      0.18      0.00
   -2   -5    3      0.35      0.00
   -2   -5    2      0.25      0.00
   -2   -5    1     -0.19      0.00
    2    5    0     -0.62      0.00
    2    5    1     -0.66      0.00
    2    5    2     -0.26      0.00
    2    5    3      0.16      0.00
    2    5    4      0.15      0.00
    2    5    5     -0.27      0.00
    2    5    6     -0.56      0.00
    2    5    7     -0.33      0.00
    2    5    8      0.07      0.00
    2    5    9      0.02      0.00
    2    5   10     -0.37      0.00
    2    5   11     -0.43      0.00
    2    5   12      0.07      0.00
    2    5   13      0.61      0.00
    2    5   14      0.72      0.00
    2    5   15      0.49      0.00
   -2   -6   11     -0.16      0.00
   -2   -6   10     -0.19      0.00
   -2   -6    9      0.19      0.00
   -2   -6    8      0.66      0.00
   -2   -6    7      0.72      0.00
   -2   -6    6      0.38      0.00
   -2   -6    5      0.05      0.00
   -2   -6    4     -0.07      0.00
   -2   -6    3     -0.08      0.00
   -2   -6    2     -0.02      0.00
   -2   -6    1      0.20      0.00
    2    6    0      0.47      0.00
    2    6    1      0.55      0.00
    2    6    2      0.32      0.00
    2    6    3     -0.01      0.00
    2    6    4     -0.07      0.00
    2    6    5      0.21      0.00
    2    6    6      0.50      0.00
    2    6    7      0.46      0.00
    2    6    8      0.28      0.00
    2    6    9      0.32      0.00
    2    6   10      0.53      0.00
    2    6   11      0.51      0.00
    2    6   12      0.18      0.00
    2    6   13     -0.12      0.00
    2    6   14     -0.16      0.00
    2    6   15     -0.10      0.00
   -2   -7   10      0.21      0.00
   -2   -7    9      0.22      0.00
   -2   -7    8     -0.11      0.00
   -2   -7    7     -0.32      0.00
   -2   -7    6     -0.14      0.00
   -2   -7    5      0.15      0.00
   -2   -7    4      0.20      0.00
   -2   -7    3     -0.02      0.00
   -2   -7    2     -0.29      0.00
   -2   -7    1     -0.45      0.00
    2    7    0     -0.45      0.00
    2    7    1     -0.34      0.00
    2    7    2     -0.15      0.00
    2    7    3      0.05      0.00
    2    7    4      0.18      0.00
    2    7    5      0.15      0.00
    2    7    6      0.03      0.00
    2    7    7     -0.07      0.00
    2    7    8     -0.14      0.00
    2    7    9     -0.27      0.00
    2    7   10     -0.38      0.00
    2    7   11     -0.29      0.00
    2    7   12     -0.10      0.00
    2    7   13     -0.10      0.00
   -2   -8    9     -0.52      0.00
   -2   -8    8     -0.47      0.00
   -2   -8    7     -0.26      0.00
   -2   -8    6     -0.21      0.00
   -2   -8    5     -0.32      0.00
   -2   -8    4     -0.34      0.00
   -2   -8    3     -0.14      0.00
   -2   -8    2      0.19      0.00
   -2   -8    1      0.40      0.00
    2    8    0      0.33      0.00
    2    8    1      0.08      0.00
    2    8    2     -0.11      0.00
    2    8    3     -0.13      0.00
    2    8    4     -0.12      0.00
    2    8    5     -0.16      0.00
    2    8    6     -0.19      0.00
    2    8    7     -0.15      0.00
    2    8    8     -0.08      0.00
    2    8    9     -0.02      0.00
    2    8   10     -0.03      0.00
    2    8   11     -0.16      0.00
    2    8   12     -0.25      0.00
    2    8   13     -0.12      0.00
   -2   -9    8      0.41      0.00
   -2   -9    7      0.27      0.00
   -2   -9    6      0.15      0.00
   -2   -9    5      0.10      0.00
   -2   -9    4      0.09      0.00
   -2   -9    3      0.09      0.00
   -2   -9    2      0.02      0.00
   -2   -9    1     -0.06      0.00
    2    9    0     -0.02      0.00
    2    9    1      0.14      0.00
    2    9    2      0.21      0.00
    2    9    3      0.04      0.00
    2    9    4     -0.20      0.00
    2    9    5     -0.30      0.00
    2    9    6     -0.27      0.00
    2    9    7     -0.22      0.00
    2    9    8     -0.12      0.00
    2    9    9      0.08      0.00
    2    9   10      0.27      0.00
    2    9   11      0.35      0.00
    2    9   12      0.31      0.00
    2    9   13      0.17      0.00
    2    9   14     -0.02      0.00
   -2  -10    7      0.26      0.00
   -2  -10    6      0.28      0.00
   -2  -10    5      0.27      0.00
   -2  -10    4      0.28      0.00
   -2  -10    3      0.21      0.00
   -2  -10    2      0.03      0.00
   -2  -10    1     -0.13      0.00
    2   10    0     -0.19      0.00
    2   10    1     -0.19      0.00
    2   10    2     -0.10      0.00
    2   10    3      0.15      0.00
    2   10    4      0.45      0.00
    2   10    5      0.58      0.00
    2   10    6      0.57      0.00
    2   10    7      0.50      0.00
    2   10    8      0.33      0.00
    2   10    9      0.00      0.00
    2   10   11     -0.21      0.00
    2   10   12      0.06      0.00
    2   10   13      0.23      0.00
    2   10   14      0.22      0.00
   -2  -11    6     -0.49      0.00
   -2  -11    5     -0.26      0.00
   -2  -11    4     -0.16      0.00
   -2  -11    3     -0.19      0.00
   -2  -11    2     -0.10      0.00
   -2  -11    1      0.10      0.00
    2   11    0      0.23      0.00
    2   11    1      0.18      0.00
    2   11    2      0.00      0.00
    2   11    3     -0.22      0.00
    2   11    4     -0.36      0.00
    2   11    5     -0.32      0.00
    2   11    6     -0.18      0.00
    2   11    7     -0.10      0.00
    2   11    8     -0.02      0.00
    2   11   11      0.09      0.00
    2   11   12     -0.39      0.00
    2   11   13     -0.63      0.00
   -2  -12    5     -0.13      0.00
   -2  -12    4     -0.38      0.00
   -2  -12    3     -0.29      0.00
   -2  -12    2     -0.09      0.00
   -2  -12    1     -0.08      0.00
    2   12    0     -0.21      0.00
    2   12    1     -0.25      0.00
    2   12    2     -0.14      0.00
    2   12    3      0.01      0.00
    2   12    4      0.03      0.00
    2   12    5     -0.12      0.00
    2   12    6     -0.34      0.00
    2   12    7     -0.44      0.00
    2   12   11     -0.07      0.00
    2   12   12      0.38      0.00
    2   12   13      0.60      0.00
   -2  -13    3      0.58      0.00
   -2  -13    2      0.23      0.00
   -2  -13    1      0.01      0.00
    2   13    0      0.08      0.00
    2   13    1      0.26      0.00
    2   13    2      0.31      0.00
    2   13    3      0.27      0.00
    2   13    4      0.24      0.00
    2   13    5      0.30      0.00
    2   13    6      0.39      0.00
    2   13    7      0.39      0.00
    2   13   10      0.02      0.00
    2   13   11     -0.10      0.00
    2   13   12     -0.28      0.00
   -2  -14    2     -0.02      0.00
   -2  -14    1      0.25      0.00
    2   14    0      0.21      0.00
    2   14    1     -0.02      0.00
    2   14    2     -0.18      0.00
    2   14    3     -0.22      0.00
    2   14    4     -0.22      0.00
    2   14    5     -0.19      0.00
    2   14    6     -0.11      0.00
    2   14    7      0.02      0.00
    2   14    9      0.27      0.00
    2   14   10      0.34      0.00
    2   15    1     -0.19      0.00
    2   15    2     -0.10      0.00
    2   15    3     -0.11      0.00
    2   15    4     -0.07      0.00
    2   15    5     -0.01      0.00
    2   15    6     -0.05      0.00
    2   15    7     -0.17      0.00
    2   15    8     -0.24      0.00
   -3   14    7     -0.13      0.00
   -3   14    6     -0.10      0.00
   -3   14    5     -0.10      0.00
   -3   14    4     -0.11      0.00
   -3   14    3     -0.08      0.00
   -3   14    2     -0.06      0.00
   -3   14    1     -0.06      0.00
   -3   14    0     -0.01      0.00
    3  -14    1      0.03      0.00
    3  -14    2     -0.10      0.00
   -3   13    9      0.18      0.00
   -3   13    8      0.24      0.00
   -3   13    7      0.25      0.00
   -3   13    6      0.25      0.00
   -3   13    5      0.26      0.00
   -3   13    4      0.24      0.00
   -3   13    3      0.13      0.00
   -3   13    2      0.04      0.00
   -3   13    1      0.04      0.00
   -3   13    0      0.03      0.00
    3  -13    1     -0.06      0.00
    3  -13    2     -0.08      0.00
    3  -13    3      0.08      0.00
    3  -13    4      0.22      0.00
   -3   12   10      0.00      0.00
   -3   12    9     -0.07      0.00
   -3   12    8     -0.06      0.00
   -3   12    7     -0.07      0.00
   -3   12    6     -0.11      0.00
   -3   12    5     -0.20      0.00
   -3   12    4     -0.24      0.00
   -3   12    3     -0.17      0.00
   -3   12    2     -0.03      0.00
   -3   12    1      0.00      0.00
   -3   12    0     -0.08      0.00
    3  -12    1     -0.06      0.00
    3  -12    2      0.09      0.00
    3  -12    3      0.20      0.00
    3  -12    4      0.20      0.00
    3  -12    5      0.21      0.00
    3  -12    6      0.21      0.00
   -3   11   11     -0.22      0.00
   -3   11   10     -0.07      0.00
   -3   11    9     -0.08      0.00
   -3   11    8     -0.17      0.00
   -3   11    7     -0.19      0.00
   -3   11    6     -0.12      0.00
   -3   11    5     -0.05      0.00
   -3   11    4      0.02      0.00
   -3   11    3      0.04      0.00
   -3   11    2     -0.03      0.00
   -3   11    1     -0.08      0.00
   -3   11    0      0.04      0.00
    3  -11    1      0.18      0.00
    3  -11    2      0.08      0.00
    3  -11    3     -0.21      0.00
    3  -11    4     -0.42      0.00
    3  -11    5     -0.43      0.00
    3  -11    6     -0.29      0.00
    3  -11    7     -0.01      0.00
   -3   10   12      0.12      0.00
   -3   10   11      0.07      0.00
   -3   10   10     -0.11      0.00
   -3   10    9     -0.06      0.00
   -3   10    8      0.14      0.00
   -3   10    7      0.18      0.00
   -3   10    6      0.07      0.00
   -3   10    5      0.06      0.00
   -3   10    4      0.12      0.00
   -3   10    3      0.10      0.00
   -3   10    2      0.05      0.00
   -3   10    1      0.08      0.00
   -3   10    0      0.05      0.00
    3  -10    1     -0.07      0.00
    3  -10    2     -0.06      0.00
    3  -10    3      0.22      0.00
    3  -10    4      0.51      0.00
    3  -10    5      0.50      0.00
    3  -10    6      0.23      0.00
    3  -10    7     -0.06      0.00
    3  -10    8     -0.27      0.00
    3  -10    9     -0.33      0.00
   -3    9   12     -0.07      0.00
   -3    9   11      0.03      0.00
   -3    9   10      0.36      0.00
   -3    9    9      0.39      0.00
   -3    9    8      0.13      0.00
   -3    9    7      0.05      0.00
   -3    9    6      0.22      0.00
   -3    9    5      0.23      0.00
   -3    9    4      0.01      0.00
   -3    9    3     -0.10      0.00
   -3    9    2      0.04      0.00
   -3    9    1      0.12      0.00
   -3    9    0      0.05      0.00
    3   -9    1     -0.04      0.00
    3   -9    2     -0.12      0.00
    3   -9    3     -0.35      0.00
    3   -9    4     -0.60      0.00
    3   -9    5     -0.54      0.00
    3   -9    6     -0.18      0.00
    3   -9    7      0.12      0.00
    3   -9    8      0.16      0.00
   -3    8   12      0.18      0.00
   -3    8   11      0.15      0.00
   -3    8   10     -0.26      0.00
   -3    8    9     -0.50      0.00
   -3    8    8     -0.33      0.00
   -3    8    7     -0.21      0.00
   -3    8    6     -0.38      0.00
   -3    8    5     -0.45      0.00
   -3    8    4     -0.16      0.00
   -3    8    3      0.11      0.00
   -3    8    2     -0.02      0.00
   -3    8    1     -0.29      0.00
   -3    8    0     -0.31      0.00
    3   -8    1     -0.09      0.00
    3   -8    2      0.13      0.00
    3   -8    3      0.35      0.00
    3   -8    4      0.53      0.00
    3   -8    5      0.48      0.00
    3   -8    6      0.16      0.00
    3   -8    7     -0.08      0.00
    3   -8    8      0.00      0.00
    3   -8    9      0.24      0.00
   -3    7   13      0.29      0.00
   -3    7   12     -0.16      0.00
   -3    7   11     -0.37      0.00
   -3    7   10     -0.14      0.00
   -3    7    9      0.19      0.00
   -3    7    8      0.25      0.00
   -3    7    7      0.17      0.00
   -3    7    6      0.28      0.00
   -3    7    5      0.37      0.00
   -3    7    4      0.14      0.00
   -3    7    3     -0.21      0.00
   -3    7    2     -0.21      0.00
   -3    7    1      0.12      0.00
   -3    7    0      0.31      0.00
    3   -7    1      0.19      0.00
    3   -7    2     -0.04      0.00
    3   -7    3     -0.19      0.00
    3   -7    4     -0.25      0.00
    3   -7    5     -0.20      0.00
    3   -7    6     -0.05      0.00
    3   -7    7      0.01      0.00
    3   -7    8     -0.16      0.00
    3   -7    9     -0.41      0.00
   -3    6   13     -0.35      0.00
   -3    6   12     -0.06      0.00
   -3    6   11      0.32      0.00
   -3    6   10      0.45      0.00
   -3    6    9      0.25      0.00
   -3    6    8      0.01      0.00
   -3    6    7     -0.06      0.00
   -3    6    6     -0.09      0.00
   -3    6    5     -0.12      0.00
   -3    6    4      0.01      0.00
   -3    6    3      0.26      0.00
   -3    6    2      0.36      0.00
   -3    6    1      0.20      0.00
   -3    6    0      0.03      0.00
    3   -6    1      0.04      0.00
    3   -6    2      0.15      0.00
    3   -6    3      0.21      0.00
    3   -6    4      0.16      0.00
    3   -6    5      0.06      0.00
    3   -6    6      0.01      0.00
    3   -6    7      0.12      0.00
    3   -6    8      0.37      0.00
    3   -6    9      0.52      0.00
   -3    5   13      0.16      0.00
   -3    5   12      0.14      0.00
   -3    5   11     -0.11      0.00
   -3    5   10     -0.43      0.00
   -3    5    9     -0.44      0.00
   -3    5    8     -0.17      0.00
   -3    5    7      0.02      0.00
   -3    5    6     -0.02      0.00
   -3    5    5     -0.14      0.00
   -3    5    4     -0.22      0.00
   -3    5    3     -0.26      0.00
   -3    5    2     -0.26      0.00
   -3    5    1     -0.25      0.00
   -3    5    0     -0.25      0.00
    3   -5    1     -0.29      0.00
    3   -5    2     -0.33      0.00
    3   -5    3     -0.37      0.00
    3   -5    4     -0.38      0.00
    3   -5    5     -0.33      0.00
    3   -5    6     -0.29      0.00
    3   -5    7     -0.41      0.00
    3   -5    8     -0.63      0.00
    3   -5    9     -0.69      0.00
    3   -5   10     -0.48      0.00
   -3    4   13      0.19      0.00
   -3    4   12      0.05      0.00
   -3    4   11      0.07      0.00
   -3    4   10      0.26      0.00
   -3    4    9      0.31      0.00
   -3    4    8      0.09      0.00
   -3    4    7     -0.08      0.00
   -3    4    6      0.02      0.00
   -3    4    5      0.27      0.00
   -3    4    4      0.37      0.00
   -3    4    3      0.27      0.00
   -3    4    2      0.11      0.00
   -3    4    1      0.05      0.00
   -3    4    0      0.13      0.00
    3   -4    1      0.21      0.00
    3   -4    2      0.20      0.00
    3   -4    3      0.21      0.00
    3   -4    4      0.38      0.00
    3   -4    5      0.60      0.00
    3   -4    6      0.69      0.00
    3   -4    7      0.69      0.00
    3   -4    8      0.74      0.00
    3   -4    9      0.72      0.00
    3   -4   10      0.48      0.00
    3   -4   11      0.22      0.00
    3   -4   12      0.16      0.00
   -3    3   13     -0.32      0.00
   -3    3   12     -0.27      0.00
   -3    3   11     -0.20      0.00
   -3    3   10     -0.20      0.00
   -3    3    9     -0.11      0.00
   -3    3    8      0.09      0.00
   -3    3    7      0.16      0.00
   -3    3    6      0.00      0.00
   -3    3    5     -0.20      0.00
   -3    3    4     -0.23      0.00
   -3    3    3     -0.13      0.00
   -3    3    2      0.00      0.00
   -3    3    1      0.08      0.00
   -3    3    0      0.06      0.00
    3   -3    1      0.01      0.00
    3   -3    2      0.08      0.00
    3   -3    3      0.19      0.00
    3   -3    4      0.04      0.00
    3   -3    5     -0.39      0.00
    3   -3    6     -0.72      0.00
    3   -3    7     -0.71      0.00
    3   -3    8     -0.54      0.00
    3   -3    9     -0.40      0.00
    3   -3   10     -0.23      0.00
    3   -3   11     -0.07      0.00
    3   -3   12     -0.06      0.00
    3   -3   13     -0.17      0.00
   -3    2   13      0.24      0.00
   -3    2   12      0.30      0.00
   -3    2   11      0.36      0.00
   -3    2   10      0.33      0.00
   -3    2    9      0.10      0.00
   -3    2    8     -0.14      0.00
   -3    2    7     -0.09      0.00
   -3    2    6      0.14      0.00
   -3    2    5      0.15      0.00
   -3    2    4     -0.11      0.00
   -3    2    3     -0.26      0.00
   -3    2    2     -0.15      0.00
   -3    2    1     -0.06      0.00
   -3    2    0     -0.10      0.00
    3   -2    1     -0.13      0.00
    3   -2    2     -0.14      0.00
    3   -2    3     -0.24      0.00
    3   -2    4     -0.27      0.00
    3   -2    5      0.01      0.00
    3   -2    6      0.41      0.00
    3   -2    7      0.49      0.00
    3   -2    8      0.22      0.00
    3   -2    9     -0.03      0.00
    3   -2   10     -0.13      0.00
    3   -2   11     -0.20      0.00
    3   -2   12     -0.20      0.00
    3   -2   13     -0.08      0.00
    3   -2   14      0.01      0.00
   -3    1   13     -0.21      0.00
   -3    1   12     -0.29      0.00
   -3    1   11     -0.47      0.00
   -3    1   10     -0.53      0.00
   -3    1    9     -0.28      0.00
   -3    1    8      0.00      0.00
   -3    1    7     -0.12      0.00
   -3    1    6     -0.45      0.00
   -3    1    5     -0.35      0.00
   -3    1    4      0.25      0.00
   -3    1    3      0.59      0.00
   -3    1    2      0.27      0.00
   -3    1    1     -0.13      0.00
   -3    1    0     -0.04      0.00
    3   -1    1      0.21      0.00
    3   -1    2      0.15      0.00
    3   -1    3     -0.03      0.00
    3   -1    4     -0.01      0.00
    3   -1    5      0.02      0.00
    3   -1    6     -0.17      0.00
    3   -1    7     -0.31      0.00
    3   -1    8     -0.15      0.00
    3   -1    9      0.10      0.00
    3   -1   10      0.18      0.00
    3   -1   11      0.22      0.00
    3   -1   12      0.31      0.00
    3   -1   13      0.29      0.00
    3   -1   14      0.10      0.00
    3   -1   15     -0.02      0.00
   -3    0   13      0.26      0.00
   -3    0   12      0.32      0.00
   -3    0   11      0.51      0.00
   -3    0   10      0.60      0.00
   -3    0    9      0.40      0.00
   -3    0    8      0.11      0.00
   -3    0    7      0.21      0.00
   -3    0    6      0.61      0.00
   -3    0    5      0.61      0.00
   -3    0    4     -0.07      0.00
   -3    0    3     -0.60      0.00
   -3    0    2     -0.25      0.00
   -3    0    1      0.37      0.00
    3    0    0      0.30      0.00
    3    0    1     -0.28      0.00
    3    0    2     -0.41      0.00
    3    0    3      0.01      0.00
    3    0    4      0.27      0.00
    3    0    5      0.14      0.00
    3    0    6      0.05      0.00
    3    0    7      0.17      0.00
    3    0    8      0.23      0.00
    3    0    9      0.13      0.00
    3    0   10      0.09      0.00
    3    0   11      0.05      0.00
    3    0   12     -0.17      0.00
    3    0   13     -0.33      0.00
    3    0   14     -0.12      0.00
    3    0   15      0.22      0.00
   -3   -1   12     -0.25      0.00
   -3   -1   11     -0.37      0.00
   -3   -1   10     -0.39      0.00
   -3   -1    9     -0.24      0.00
   -3   -1    8     -0.05      0.00
   -3   -1    7     -0.12      0.00
   -3   -1    6     -0.45      0.00
   -3   -1    5     -0.54      0.00
   -3   -1    4     -0.03      0.00
   -3   -1    3      0.53      0.00
   -3   -1    2      0.36      0.00
   -3   -1    1     -0.29      0.00
    3    1    0     -0.38      0.00
    3    1    1      0.26      0.00
    3    1    2      0.69      0.00
    3    1    3      0.36      0.00
    3    1    4     -0.08      0.00
    3    1    5     -0.03      0.00
    3    1    6      0.17      0.00
    3    1    7      0.07      0.00
    3    1    8     -0.14      0.00
    3    1    9     -0.19      0.00
    3    1   10     -0.17      0.00
    3    1   11     -0.14      0.00
    3    1   12      0.07      0.00
    3    1   13      0.35      0.00
    3    1   14      0.27      0.00
    3    1   15     -0.18      0.00
   -3   -2   12      0.03      0.00
   -3   -2   11      0.11      0.00
   -3   -2   10      0.03      0.00
   -3   -2    9     -0.09      0.00
   -3   -2    8     -0.06      0.00
   -3   -2    7      0.11      0.00
   -3   -2    6      0.29      0.00
   -3   -2    5      0.27      0.00
   -3   -2    4     -0.09      0.00
   -3   -2    3     -0.59      0.00
   -3   -2    2     -0.69      0.00
   -3   -2    1     -0.30      0.00
    3    2    0     -0.01      0.00
    3    2    1     -0.27      0.00
    3    2    2     -0.61      0.00
    3    2    3     -0.50      0.00
    3    2    4     -0.20      0.00
    3    2    5     -0.20      0.00
    3    2    6     -0.36      0.00
    3    2    7     -0.24      0.00
    3    2    8      0.01      0.00
    3    2    9      0.03      0.00
    3    2   10     -0.12      0.00
    3    2   11     -0.17      0.00
    3    2   12     -0.22      0.00
    3    2   13     -0.39      0.00
    3    2   14     -0.43      0.00
    3    2   15     -0.14      0.00
   -3   -3   12      0.11      0.00
   -3   -3   11      0.02      0.00
   -3   -3   10      0.17      0.00
   -3   -3    9      0.31      0.00
   -3   -3    8      0.06      0.00
   -3   -3    7     -0.39      0.00
   -3   -3    6     -0.56      0.00
   -3   -3    5     -0.33      0.00
   -3   -3    4      0.07      0.00
   -3   -3    3      0.47      0.00
   -3   -3    2      0.75      0.00
   -3   -3    1      0.76      0.00
    3    3    0      0.54      0.00
    3    3    1      0.34      0.00
    3    3    2      0.25      0.00
    3    3    3      0.17      0.00
    3    3    4      0.15      0.00
    3    3    5      0.27      0.00
    3    3    6      0.34      0.00
    3    3    7      0.11      0.00
    3    3    8     -0.19      0.00
    3    3    9     -0.09      0.00
    3    3   10      0.29      0.00
    3    3   11      0.46      0.00
    3    3   12      0.30      0.00
    3    3   13      0.16      0.00
    3    3   14      0.18      0.00
    3    3   15      0.17      0.00
    3    3   16      0.11      0.00
   -3   -4   11      0.07      0.00
   -3   -4   10     -0.10      0.00
   -3   -4    9     -0.35      0.00
   -3   -4    8     -0.10      0.00
   -3   -4    7      0.58      0.00
   -3   -4    6      0.96      0.00
   -3   -4    5      0.71      0.00
   -3   -4    4      0.26      0.00
   -3   -4    3     -0.02      0.00
   -3   -4    2     -0.22      0.00
   -3   -4    1     -0.43      0.00
    3    4    0     -0.46      0.00
    3    4    1     -0.20      0.00
    3    4    2      0.13      0.00
    3    4    3      0.23      0.00
    3    4    4      0.03      0.00
    3    4    5     -0.28      0.00
    3    4    6     -0.33      0.00
    3    4    7      0.02      0.00
    3    4    8      0.43      0.00
    3    4    9      0.38      0.00
    3    4   10     -0.07      0.00
    3    4   11     -0.32      0.00
    3    4   12     -0.08      0.00
    3    4   13      0.34      0.00
    3    4   14      0.49      0.00
    3    4   15      0.35      0.00
    3    4   16      0.12      0.00
   -3   -5   11     -0.19      0.00
   -3   -5   10     -0.01      0.00
   -3   -5    9      0.36      0.00
   -3   -5    8      0.36      0.00
   -3   -5    7     -0.24      0.00
   -3   -5    6     -0.83      0.00
   -3   -5    5     -0.83      0.00
   -3   -5    4     -0.47      0.00
   -3   -5    3     -0.28      0.00
   -3   -5    2     -0.29      0.00
   -3   -5    1     -0.22      0.00
    3    5    0     -0.10      0.00
    3    5    1     -0.16      0.00
    3    5    2     -0.34      0.00
    3    5    3     -0.31      0.00
    3    5    4      0.03      0.00
    3    5    5      0.41      0.00
    3    5    6      0.49      0.00
    3    5    7      0.17      0.00
    3    5    8     -0.24      0.00
    3    5    9     -0.32      0.00
    3    5   10     -0.09      0.00
    3    5   11      0.05      0.00
    3    5   12     -0.21      0.00
    3    5   13     -0.65      0.00
    3    5   14     -0.89      0.00
    3    5   15     -0.79      0.00
    3    5   16     -0.51      0.00
   -3   -6   10      0.00      0.00
   -3   -6    9     -0.35      0.00
   -3   -6    8     -0.60      0.00
   -3   -6    7     -0.35      0.00
   -3   -6    6      0.19      0.00
   -3   -6    5      0.47      0.00
   -3   -6    4      0.33      0.00
   -3   -6    3      0.14      0.00
   -3   -6    2      0.11      0.00
   -3   -6    1      0.15      0.00
    3    6    0      0.17      0.00
    3    6    1      0.21      0.00
    3    6    2      0.20      0.00
    3    6    3      0.03      0.00
    3    6    4     -0.27      0.00
    3    6    5     -0.48      0.00
    3    6    6     -0.49      0.00
    3    6    7     -0.34      0.00
    3    6    8     -0.19      0.00
    3    6    9     -0.16      0.00
    3    6   10     -0.17      0.00
    3    6   11     -0.07      0.00
    3    6   12      0.20      0.00
    3    6   13      0.47      0.00
    3    6   14      0.56      0.00
    3    6   16      0.41      0.00
   -3   -7    9      0.18      0.00
   -3   -7    8      0.39      0.00
   -3   -7    7      0.42      0.00
   -3   -7    6      0.14      0.00
   -3   -7    5     -0.20      0.00
   -3   -7    4     -0.25      0.00
   -3   -7    3      0.00      0.00
   -3   -7    2      0.32      0.00
   -3   -7    1      0.49      0.00
    3    7    0      0.44      0.00
    3    7    1      0.26      0.00
    3    7    2      0.20      0.00
    3    7    3      0.32      0.00
    3    7    4      0.41      0.00
    3    7    5      0.29      0.00
    3    7    6      0.08      0.00
    3    7    7      0.03      0.00
    3    7    8      0.22      0.00
    3    7    9      0.43      0.00
    3    7   10      0.46      0.00
    3    7   11      0.25      0.00
    3    7   12     -0.03      0.00
    3    7   13     -0.12      0.00
    3    7   14      0.02      0.00
   -3   -8    9      0.10      0.00
   -3   -8    8      0.15      0.00
   -3   -8    7      0.12      0.00
   -3   -8    6      0.20      0.00
   -3   -8    5      0.42      0.00
   -3   -8    4      0.53      0.00
   -3   -8    3      0.29      0.00
   -3   -8    2     -0.22      0.00
   -3   -8    1     -0.68      0.00
    3    8    0     -0.78      0.00
    3    8    1     -0.57      0.00
    3    8    2     -0.37      0.00
    3    8    3     -0.35      0.00
    3    8    4     -0.28      0.00
    3    8    5      0.03      0.00
    3    8    6      0.38      0.00
    3    8    7      0.41      0.00
    3    8    8      0.09      0.00
    3    8    9     -0.24      0.00
    3    8   10     -0.34      0.00
    3    8   11     -0.18      0.00
    3    8   12      0.04      0.00
    3    8   13      0.07      0.00
    3    8   14     -0.16      0.00
   -3   -9    8     -0.41      0.00
   -3   -9    7     -0.45      0.00
   -3   -9    6     -0.52      0.00
   -3   -9    5     -0.68      0.00
   -3   -9    4     -0.75      0.00
   -3   -9    3     -0.58      0.00
   -3   -9    2     -0.20      0.00
   -3   -9    1      0.18      0.00
    3    9    0      0.31      0.00
    3    9    1      0.19      0.00
    3    9    2      0.05      0.00
    3    9    3      0.04      0.00
    3    9    4     -0.01      0.00
    3    9    5     -0.23      0.00
    3    9    6     -0.45      0.00
    3    9    7     -0.38      0.00
    3    9    8     -0.09      0.00
    3    9    9      0.09      0.00
    3    9   10      0.06      0.00
    3    9   11     -0.06      0.00
    3    9   12     -0.15      0.00
    3    9   13     -0.19      0.00
    3    9   14     -0.09      0.00
   -3  -10    7      0.07      0.00
   -3  -10    6      0.14      0.00
   -3  -10    5      0.37      0.00
   -3  -10    4      0.47      0.00
   -3  -10    3      0.35      0.00
   -3  -10    2      0.19      0.00
   -3  -10    1      0.19      0.00
    3   10    0      0.31      0.00
    3   10    1      0.38      0.00
    3   10    2      0.29      0.00
    3   10    3      0.13      0.00
    3   10    4      0.08      0.00
    3   10    5      0.20      0.00
    3   10    6      0.24      0.00
    3   10    7      0.02      0.00
    3   10    8     -0.27      0.00
    3   10    9     -0.27      0.00
    3   10   10     -0.03      0.00
    3   10   11      0.13      0.00
    3   10   12      0.09      0.00
    3   10   13      0.07      0.00
    3   10   14      0.14      0.00
   -3  -11    6      0.53      0.00
   -3  -11    4      0.05      0.00
   -3  -11    3      0.14      0.00
   -3  -11    2      0.24      0.00
   -3  -11    1     -0.01      0.00
    3   11    0     -0.41      0.00
    3   11    1     -0.52      0.00
    3   11    2     -0.24      0.00
    3   11    3      0.10      0.00
    3   11    4      0.17      0.00
    3   11    5      0.00      0.00
    3   11    6     -0.10      0.00
    3   11    7      0.09      0.00
    3   11    8      0.37      0.00
    3   11    9      0.36      0.00
    3   11   11     -0.06      0.00
    3   11   12      0.09      0.00
    3   11   13      0.25      0.00
    3   11   14      0.16      0.00
   -3  -12    5     -0.46      0.00
   -3  -12    2     -0.40      0.00
   -3  -12    1     -0.21      0.00
    3   12    0      0.22      0.00
    3   12    1      0.38      0.00
    3   12    2      0.07      0.00
    3   12    3     -0.30      0.00
    3   12    4     -0.32      0.00
    3   12    5     -0.04      0.00
    3   12    6      0.18      0.00
    3   12    7      0.15      0.00
    3   12    8     -0.02      0.00
    3   12    9     -0.07      0.00
    3   12   11      0.11      0.00
    3   12   12     -0.10      0.00
    3   12   13     -0.35      0.00
    3   13    0     -0.20      0.00
    3   13    1     -0.32      0.00
    3   13    3      0.10      0.00
    3   13    4      0.02      0.00
    3   13    5     -0.25      0.00
    3   13    6     -0.38      0.00
    3   13    7     -0.33      0.00
    3   13    8     -0.25      0.00
    3   13    9     -0.23      0.00
    3   13   11     -0.20      0.00
    3   13   12     -0.05      0.00
   -3  -14    1      0.07      0.00
    3   14    4      0.32      0.00
    3   14    5      0.52      0.00
    3   14    6      0.41      0.00
    3   14    7      0.15      0.00
    3   14    8      0.05      0.00
    3   14    9      0.13      0.00
    3   14   10      0.20      0.00
    3   14   11      0.16      0.00
    3   15    4     -0.14      0.00
    3   15    5     -0.32      0.00
    3   15    6     -0.13      0.00
    3   15    7      0.25      0.00
    3   15    8      0.36      0.00
   -4   14    5      0.01      0.00
   -4   14    4     -0.16      0.00
   -4   14    3     -0.24      0.00
   -4   14    2     -0.23      0.00
   -4   14    1     -0.23      0.00
   -4   14    0     -0.28      0.00
    4  -14    1     -0.30      0.00
   -4   13    8      0.24      0.00
   -4   13    7      0.11      0.00
   -4   13    6      0.03      0.00
   -4   13    5      0.11      0.00
   -4   13    4      0.24      0.00
   -4   13    3      0.30      0.00
   -4   13    2      0.29      0.00
   -4   13    1      0.27      0.00
   -4   13    0      0.27      0.00
    4  -13    1      0.27      0.00
    4  -13    2      0.24      0.00
    4  -13    3      0.14      0.00
    4  -13    4      0.04      0.00
   -4   12    9      0.04      0.00
   -4   12    8     -0.07      0.00
   -4   12    7      0.01      0.00
   -4   12    6      0.08      0.00
   -4   12    5      0.01      0.00
   -4   12    4     -0.03      0.00
   -4   12    3      0.02      0.00
   -4   12    2      0.03      0.00
   -4   12    1     -0.06      0.00
   -4   12    0     -0.08      0.00
    4  -12    1     -0.03      0.00
    4  -12    2     -0.05      0.00
    4  -12    3     -0.19      0.00
    4  -12    4     -0.28      0.00
    4  -12    5     -0.20      0.00
    4  -12    6     -0.02      0.00
   -4   11   10     -0.50      0.00
   -4   11    9     -0.34      0.00
   -4   11    8     -0.18      0.00
   -4   11    7     -0.22      0.00
   -4   11    6     -0.27      0.00
   -4   11    5     -0.16      0.00
   -4   11    4     -0.10      0.00
   -4   11    3     -0.23      0.00
   -4   11    2     -0.31      0.00
   -4   11    1     -0.17      0.00
   -4   11    0     -0.06      0.00
    4  -11    1     -0.17      0.00
    4  -11    2     -0.25      0.00
    4  -11    3     -0.01      0.00
    4  -11    4      0.29      0.00
    4  -11    5      0.26      0.00
    4  -11    6     -0.07      0.00
    4  -11    7     -0.36      0.00
   -4   10   11      0.59      0.00
   -4   10   10      0.80      0.00
   -4   10    9      0.64      0.00
   -4   10    8      0.34      0.00
   -4   10    7      0.25      0.00
   -4   10    6      0.29      0.00
   -4   10    5      0.15      0.00
   -4   10    4     -0.01      0.00
   -4   10    3      0.08      0.00
   -4   10    2      0.28      0.00
   -4   10    1      0.22      0.00
   -4   10    0      0.04      0.00
    4  -10    1      0.10      0.00
    4  -10    2      0.25      0.00
    4  -10    3      0.10      0.00
    4  -10    4     -0.25      0.00
    4  -10    5     -0.29      0.00
    4  -10    6      0.07      0.00
    4  -10    7      0.41      0.00
    4  -10    8      0.42      0.00
   -4    9   11     -0.61      0.00
   -4    9   10     -0.98      0.00
   -4    9    9     -0.92      0.00
   -4    9    8     -0.47      0.00
   -4    9    7     -0.11      0.00
   -4    9    6     -0.02      0.00
   -4    9    5      0.06      0.00
   -4    9    4      0.24      0.00
   -4    9    3      0.24      0.00
   -4    9    2     -0.01      0.00
   -4    9    1     -0.14      0.00
   -4    9    0     -0.02      0.00
    4   -9    1      0.06      0.00
    4   -9    2      0.02      0.00
    4   -9    3      0.12      0.00
    4   -9    4      0.39      0.00
    4   -9    5      0.43      0.00
    4   -9    6      0.08      0.00
    4   -9    7     -0.26      0.00
    4   -9    8     -0.23      0.00
   -4    8   12      0.01      0.00
   -4    8   11      0.38      0.00
   -4    8   10      0.82      0.00
   -4    8    9      0.96      0.00
   -4    8    8      0.58      0.00
   -4    8    7     -0.01      0.00
   -4    8    6     -0.32      0.00
   -4    8    5     -0.35      0.00
   -4    8    4     -0.39      0.00
   -4    8    3     -0.43      0.00
   -4    8    2     -0.26      0.00
   -4    8    1      0.01      0.00
   -4    8    0      0.08      0.00
    4   -8    1     -0.03      0.00
    4   -8    2     -0.16      0.00
    4   -8    3     -0.32      0.00
    4   -8    4     -0.51      0.00
    4   -8    5     -0.51      0.00
    4   -8    6     -0.19      0.00
    4   -8    7      0.13      0.00
    4   -8    8      0.12      0.00
    4   -8    9     -0.06      0.00
    4   -8   10     -0.03      0.00
   -4    7   12     -0.05      0.00
   -4    7   11     -0.16      0.00
   -4    7   10     -0.36      0.00
   -4    7    9     -0.58      0.00
   -4    7    8     -0.48      0.00
   -4    7    7      0.01      0.00
   -4    7    6      0.42      0.00
   -4    7    5      0.44      0.00
   -4    7    4      0.31      0.00
   -4    7    3      0.32      0.00
   -4    7    2      0.32      0.00
   -4    7    1      0.14      0.00
   -4    7    0     -0.06      0.00
    4   -7    1     -0.07      0.00
    4   -7    2      0.09      0.00
    4   -7    3      0.27      0.00
    4   -7    4      0.37      0.00
    4   -7    5      0.30      0.00
    4   -7    6      0.06      0.00
    4   -7    7     -0.18      0.00
    4   -7    8     -0.21      0.00
    4   -7    9     -0.11      0.00
    4   -7   11     -0.17      0.00
   -4    6   12      0.29      0.00
   -4    6   11      0.20      0.00
   -4    6   10     -0.03      0.00
   -4    6    9     -0.03      0.00
   -4    6    8      0.09      0.00
   -4    6    7     -0.01      0.00
   -4    6    6     -0.21      0.00
   -4    6    5     -0.19      0.00
   -4    6    4      0.01      0.00
   -4    6    3      0.04      0.00
   -4    6    2     -0.10      0.00
   -4    6    1     -0.15      0.00
   -4    6    0     -0.03      0.00
    4   -6    1      0.04      0.00
    4   -6    2     -0.06      0.00
    4   -6    3     -0.18      0.00
    4   -6    4     -0.17      0.00
    4   -6    5     -0.05      0.00
    4   -6    6      0.12      0.00
    4   -6    7      0.23      0.00
    4   -6    8      0.26      0.00
    4   -6    9      0.28      0.00
    4   -6   10      0.31      0.00
    4   -6   11      0.27      0.00
   -4    5   12     -0.40      0.00
   -4    5   11     -0.37      0.00
   -4    5   10      0.06      0.00
   -4    5    9      0.39      0.00
   -4    5    8      0.31      0.00
   -4    5    7      0.07      0.00
   -4    5    6     -0.08      0.00
   -4    5    5     -0.20      0.00
   -4    5    4     -0.31      0.00
   -4    5    3     -0.27      0.00
   -4    5    2     -0.08      0.00
   -4    5    1      0.05      0.00
   -4    5    0      0.05      0.00
    4   -5    1      0.06      0.00
    4   -5    2      0.15      0.00
    4   -5    3      0.21      0.00
    4   -5    4      0.16      0.00
    4   -5    5      0.06      0.00
    4   -5    6      0.01      0.00
    4   -5    7      0.03      0.00
    4   -5    8      0.04      0.00
    4   -5    9     -0.05      0.00
    4   -5   10     -0.20      0.00
    4   -5   11     -0.20      0.00
    4   -5   12     -0.04      0.00
   -4    4   13     -0.12      0.00
   -4    4   12      0.18      0.00
   -4    4   11      0.33      0.00
   -4    4   10      0.07      0.00
   -4    4    9     -0.30      0.00
   -4    4    8     -0.36      0.00
   -4    4    7     -0.09      0.00
   -4    4    6      0.24      0.00
   -4    4    5      0.40      0.00
   -4    4    4      0.32      0.00
   -4    4    3      0.06      0.00
   -4    4    2     -0.15      0.00
   -4    4    1     -0.16      0.00
   -4    4    0     -0.07      0.00
    4   -4    1     -0.11      0.00
    4   -4    2     -0.24      0.00
    4   -4    3     -0.25      0.00
    4   -4    4     -0.16      0.00
    4   -4    5     -0.18      0.00
    4   -4    6     -0.34      0.00
    4   -4    7     -0.50      0.00
    4   -4    8     -0.54      0.00
    4   -4    9     -0.45      0.00
    4   -4   10     -0.29      0.00
    4   -4   11     -0.17      0.00
    4   -4   12     -0.15      0.00
    4   -4   13     -0.10      0.00
   -4    3   13      0.24      0.00
   -4    3   12      0.14      0.00
   -4    3   11     -0.01      0.00
   -4    3   10     -0.04      0.00
   -4    3    9      0.04      0.00
   -4    3    8      0.07      0.00
   -4    3    7     -0.06      0.00
   -4    3    6     -0.26      0.00
   -4    3    5     -0.34      0.00
   -4    3    4     -0.13      0.00
   -4    3    3      0.32      0.00
   -4    3    2      0.61      0.00
   -4    3    1      0.49      0.00
   -4    3    0      0.19      0.00
    4   -3    1      0.15      0.00
    4   -3    2      0.30      0.00
    4   -3    3      0.25      0.00
    4   -3    4      0.02      0.00
    4   -3    5      0.04      0.00
    4   -3    6      0.39      0.00
    4   -3    7      0.67      0.00
    4   -3    8      0.68      0.00
    4   -3    9      0.61      0.00
    4   -3   10      0.56      0.00
    4   -3   11      0.47      0.00
    4   -3   12      0.29      0.00
    4   -3   13      0.11      0.00
    4   -3   14     -0.06      0.00
   -4    2   12     -0.30      0.00
   -4    2   11     -0.31      0.00
   -4    2   10     -0.20      0.00
   -4    2    9      0.01      0.00
   -4    2    8      0.18      0.00
   -4    2    7      0.22      0.00
   -4    2    6      0.16      0.00
   -4    2    5      0.09      0.00
   -4    2    4     -0.05      0.00
   -4    2    3     -0.38      0.00
   -4    2    2     -0.66      0.00
   -4    2    1     -0.55      0.00
   -4    2    0     -0.18      0.00
    4   -2    1     -0.07      0.00
    4   -2    2     -0.27      0.00
    4   -2    3     -0.25      0.00
    4   -2    4      0.10      0.00
    4   -2    5      0.23      0.00
    4   -2    6     -0.11      0.00
    4   -2    7     -0.43      0.00
    4   -2    8     -0.34      0.00
    4   -2    9     -0.17      0.00
    4   -2   10     -0.23      0.00
    4   -2   11     -0.29      0.00
    4   -2   12     -0.09      0.00
    4   -2   13      0.16      0.00
    4   -2   14      0.18      0.00
   -4    1   12      0.26      0.00
   -4    1   11      0.42      0.00
   -4    1   10      0.44      0.00
   -4    1    9      0.20      0.00
   -4    1    8     -0.12      0.00
   -4    1    7     -0.19      0.00
   -4    1    6      0.04      0.00
   -4    1    5      0.27      0.00
   -4    1    4      0.25      0.00
   -4    1    3      0.17      0.00
   -4    1    2      0.19      0.00
   -4    1    1      0.14      0.00
   -4    1    0     -0.09      0.00
    4   -1    1     -0.19      0.00
    4   -1    2      0.04      0.00
    4   -1    3      0.19      0.00
    4   -1    4     -0.03      0.00
    4   -1    5     -0.24      0.00
    4   -1    6     -0.05      0.00
    4   -1    7      0.18      0.00
    4   -1    8     -0.01      0.00
    4   -1    9     -0.32      0.00
    4   -1   10     -0.26      0.00
    4   -1   11     -0.07      0.00
    4   -1   12     -0.24      0.00
    4   -1   13     -0.56      0.00
    4   -1   14     -0.46      0.00
    4   -1   15      0.00      0.00
   -4    0   12     -0.17      0.00
   -4    0   11     -0.36      0.00
   -4    0   10     -0.47      0.00
   -4    0    9     -0.36      0.00
   -4    0    8     -0.11      0.00
   -4    0    7      0.01      0.00
   -4    0    6     -0.22      0.00
   -4    0    5     -0.56      0.00
   -4    0    4     -0.52      0.00
   -4    0    3     -0.11      0.00
   -4    0    2      0.21      0.00
   -4    0    1      0.23      0.00
    4    0    0      0.20      0.00
    4    0    1      0.24      0.00
    4    0    2      0.17      0.00
    4    0    3     -0.02      0.00
    4    0    4     -0.07      0.00
    4    0    5     -0.02      0.00
    4    0    6     -0.10      0.00
    4    0    7     -0.18      0.00
    4    0    8      0.05      0.00
    4    0    9      0.38      0.00
    4    0   10      0.32      0.00
    4    0   11      0.06      0.00
    4    0   12      0.21      0.00
    4    0   13      0.64      0.00
    4    0   14      0.62      0.00
    4    0   15      0.02      0.00
   -4   -1   12      0.13      0.00
   -4   -1   11      0.27      0.00
   -4   -1   10      0.29      0.00
   -4   -1    9      0.22      0.00
   -4   -1    8      0.14      0.00
   -4   -1    7      0.10      0.00
   -4   -1    6      0.24      0.00
   -4   -1    5      0.54      0.00
   -4   -1    4      0.63      0.00
   -4   -1    3      0.25      0.00
   -4   -1    2     -0.22      0.00
   -4   -1    1     -0.23      0.00
    4    1    0      0.07      0.00
    4    1    1      0.18      0.00
    4    1    2      0.03      0.00
    4    1    3     -0.03      0.00
    4    1    4      0.12      0.00
    4    1    5      0.26      0.00
    4    1    6      0.28      0.00
    4    1    7      0.19      0.00
    4    1    8     -0.04      0.00
    4    1    9     -0.23      0.00
    4    1   10     -0.08      0.00
    4    1   11      0.25      0.00
    4    1   12      0.18      0.00
    4    1   13     -0.33      0.00
    4    1   14     -0.52      0.00
    4    1   15     -0.05      0.00
   -4   -2   12     -0.11      0.00
   -4   -2   11     -0.24      0.00
   -4   -2   10     -0.09      0.00
   -4   -2    9      0.10      0.00
   -4   -2    8      0.07      0.00
   -4   -2    7     -0.08      0.00
   -4   -2    6     -0.16      0.00
   -4   -2    5     -0.28      0.00
   -4   -2    4     -0.40      0.00
   -4   -2    3     -0.26      0.00
   -4   -2    2      0.10      0.00
   -4   -2    1      0.14      0.00
    4    2    0     -0.27      0.00
    4    2    1     -0.57      0.00
    4    2    2     -0.40      0.00
    4    2    3     -0.12      0.00
    4    2    4     -0.15      0.00
    4    2    5     -0.33      0.00
    4    2    6     -0.31      0.00
    4    2    7     -0.04      0.00
    4    2    8      0.22      0.00
    4    2    9      0.27      0.00
    4    2   10      0.03      0.00
    4    2   11     -0.31      0.00
    4    2   12     -0.34      0.00
    4    2   13      0.04      0.00
    4    2   14      0.35      0.00
    4    2   15      0.17      0.00
    4    2   16     -0.17      0.00
   -4   -3   11      0.19      0.00
   -4   -3   10      0.01      0.00
   -4   -3    9     -0.27      0.00
   -4   -3    8     -0.19      0.00
   -4   -3    7      0.17      0.00
   -4   -3    6      0.33      0.00
   -4   -3    5      0.20      0.00
   -4   -3    4      0.09      0.00
   -4   -3    3      0.05      0.00
   -4   -3    2     -0.10      0.00
   -4   -3    1     -0.18      0.00
    4    3    0      0.07      0.00
    4    3    1      0.41      0.00
    4    3    2      0.39      0.00
    4    3    3      0.14      0.00
    4    3    4      0.11      0.00
    4    3    5      0.26      0.00
    4    3    6      0.19      0.00
    4    3    7     -0.16      0.00
    4    3    8     -0.41      0.00
    4    3    9     -0.35      0.00
    4    3   10     -0.13      0.00
    4    3   11      0.04      0.00
    4    3   12      0.04      0.00
    4    3   13     -0.12      0.00
    4    3   14     -0.26      0.00
    4    3   15     -0.25      0.00
    4    3   16     -0.17      0.00
   -4   -4   11     -0.05      0.00
   -4   -4   10      0.02      0.00
   -4   -4    9      0.22      0.00
   -4   -4    8      0.09      0.00
   -4   -4    7     -0.42      0.00
   -4   -4    6     -0.74      0.00
   -4   -4    5     -0.49      0.00
   -4   -4    4     -0.05      0.00
   -4   -4    3      0.13      0.00
   -4   -4    2      0.12      0.00
   -4   -4    1      0.12      0.00
    4    4    0      0.06      0.00
    4    4    1     -0.08      0.00
    4    4    2     -0.10      0.00
    4    4    3      0.02      0.00
    4    4    4      0.03      0.00
    4    4    5     -0.08      0.00
    4    4    6      0.01      0.00
    4    4    7      0.30      0.00
    4    4    8      0.40      0.00
    4    4    9      0.16      0.00
    4    4   10     -0.04      0.00
    4    4   11      0.06      0.00
    4    4   12      0.28      0.00
    4    4   13      0.33      0.00
    4    4   14      0.19      0.00
    4    4   15      0.08      0.00
    4    4   16      0.15      0.00
   -4   -5   10     -0.13      0.00
   -4   -5    9     -0.18      0.00
   -4   -5    8     -0.03      0.00
   -4   -5    7      0.45      0.00
   -4   -5    6      0.87      0.00
   -4   -5    5      0.72      0.00
   -4   -5    4      0.16      0.00
   -4   -5    3     -0.20      0.00
   -4   -5    2     -0.13      0.00
   -4   -5    1      0.10      0.00
    4    5    0      0.22      0.00
    4    5    1      0.22      0.00
    4    5    2      0.11      0.00
    4    5    3     -0.05      0.00
    4    5    4     -0.12      0.00
    4    5    5     -0.12      0.00
    4    5    6     -0.24      0.00
    4    5    7     -0.43      0.00
    4    5    8     -0.33      0.00
    4    5    9      0.10      0.00
    4    5   10      0.40      0.00
    4    5   11      0.19      0.00
    4    5   12     -0.23      0.00
    4    5   13     -0.34      0.00
    4    5   14     -0.07      0.00
    4    5   15      0.20      0.00
    4    5   16      0.18      0.00
   -4   -6   10      0.24      0.00
   -4   -6    9      0.26      0.00
   -4   -6    8      0.20      0.00
   -4   -6    7     -0.06      0.00
   -4   -6    6     -0.38      0.00
   -4   -6    5     -0.40      0.00
   -4   -6    4     -0.03      0.00
   -4   -6    3      0.34      0.00
   -4   -6    2      0.31      0.00
   -4   -6    1     -0.06      0.00
    4    6    0     -0.42      0.00
    4    6    1     -0.52      0.00
    4    6    2     -0.37      0.00
    4    6    3     -0.11      0.00
    4    6    4      0.09      0.00
    4    6    5      0.20      0.00
    4    6    6      0.34      0.00
    4    6    7      0.45      0.00
    4    6    8      0.30      0.00
    4    6    9     -0.14      0.00
    4    6   10     -0.46      0.00
    4    6   11     -0.32      0.00
    4    6   12      0.06      0.00
    4    6   13      0.22      0.00
    4    6   14      0.04      0.00
    4    6   16     -0.27      0.00
   -4   -7    9     -0.33      0.00
   -4   -7    8     -0.35      0.00
   -4   -7    7     -0.33      0.00
   -4   -7    6     -0.25      0.00
   -4   -7    5     -0.18      0.00
   -4   -7    4     -0.29      0.00
   -4   -7    3     -0.50      0.00
   -4   -7    2     -0.55      0.00
   -4   -7    1     -0.31      0.00
    4    7    0      0.05      0.00
    4    7    1      0.29      0.00
    4    7    2      0.29      0.00
    4    7    3      0.10      0.00
    4    7    4     -0.11      0.00
    4    7    5     -0.21      0.00
    4    7    6     -0.25      0.00
    4    7    7     -0.26      0.00
    4    7    8     -0.14      0.00
    4    7    9      0.07      0.00
    4    7   10      0.17      0.00
    4    7   11      0.02      0.00
    4    7   12     -0.18      0.00
    4    7   13     -0.21      0.00
    4    7   14     -0.15      0.00
    4    7   15     -0.12      0.00
    4    7   16     -0.10      0.00
   -4   -8    8      0.25      0.00
   -4   -8    7      0.25      0.00
   -4   -8    6      0.27      0.00
   -4   -8    5      0.25      0.00
   -4   -8    4      0.25      0.00
   -4   -8    3      0.35      0.00
   -4   -8    2      0.49      0.00
   -4   -8    1      0.52      0.00
    4    8    0      0.43      0.00
    4    8    1      0.27      0.00
    4    8    2      0.16      0.00
    4    8    3      0.15      0.00
    4    8    4      0.18      0.00
    4    8    5      0.15      0.00
    4    8    6      0.05      0.00
    4    8    7     -0.08      0.00
    4    8    8     -0.17      0.00
    4    8    9     -0.15      0.00
    4    8   10      0.06      0.00
    4    8   11      0.35      0.00
    4    8   12      0.43      0.00
    4    8   13      0.27      0.00
    4    8   14      0.17      0.00
    4    8   15      0.31      0.00
   -4   -9    7      0.07      0.00
   -4   -9    6      0.18      0.00
   -4   -9    5      0.25      0.00
   -4   -9    4      0.24      0.00
   -4   -9    3      0.10      0.00
   -4   -9    2     -0.11      0.00
   -4   -9    1     -0.28      0.00
    4    9    0     -0.39      0.00
    4    9    1     -0.42      0.00
    4    9    2     -0.36      0.00
    4    9    3     -0.22      0.00
    4    9    4     -0.07      0.00
    4    9    5      0.09      0.00
    4    9    6      0.23      0.00
    4    9    7      0.35      0.00
    4    9    8      0.36      0.00
    4    9    9      0.23      0.00
    4    9   10     -0.07      0.00
    4    9   11     -0.37      0.00
    4    9   12     -0.40      0.00
    4    9   13     -0.13      0.00
    4    9   14      0.07      0.00
   -4  -10    6     -0.32      0.00
   -4  -10    5     -0.53      0.00
   -4  -10    4     -0.58      0.00
   -4  -10    3     -0.39      0.00
   -4  -10    2     -0.16      0.00
   -4  -10    1     -0.05      0.00
    4   10    0     -0.02      0.00
    4   10    1      0.05      0.00
    4   10    2      0.11      0.00
    4   10    3      0.04      0.00
    4   10    4     -0.14      0.00
    4   10    5     -0.32      0.00
    4   10    6     -0.44      0.00
    4   10    7     -0.42      0.00
    4   10    8     -0.28      0.00
    4   10    9     -0.07      0.00
    4   10   10      0.09      0.00
    4   10   11      0.16      0.00
    4   10   12      0.07      0.00
    4   10   13     -0.19      0.00
    4   10   14     -0.40      0.00
   -4  -11    4      0.29      0.00
   -4  -11    3      0.22      0.00
   -4  -11    2      0.06      0.00
   -4  -11    1      0.09      0.00
    4   11    0      0.27      0.00
    4   11    1      0.32      0.00
    4   11    2      0.17      0.00
    4   11    3      0.04      0.00
    4   11    4      0.07      0.00
    4   11    5      0.21      0.00
    4   11    6      0.32      0.00
    4   11    7      0.30      0.00
    4   11    8      0.09      0.00
    4   11    9     -0.16      0.00
    4   11   10     -0.22      0.00
    4   11   11     -0.04      0.00
    4   11   12      0.22      0.00
    4   11   13      0.41      0.00
    4   11   14      0.47      0.00
   -4  -12    3      0.10      0.00
   -4  -12    2      0.10      0.00
   -4  -12    1     -0.02      0.00
    4   12    0     -0.28      0.00
    4   12    1     -0.40      0.00
    4   12    2     -0.22      0.00
    4   12    3      0.05      0.00
    4   12    4      0.18      0.00
    4   12    6     -0.01      0.00
    4   12    7     -0.12      0.00
    4   12    8     -0.07      0.00
    4   12    9      0.13      0.00
    4   12   10      0.21      0.00
    4   12   11      0.00      0.00
    4   12   12     -0.29      0.00
    4   12   13     -0.37      0.00
   -4  -13    2      0.01      0.00
   -4  -13    1      0.16      0.00
    4   13    0      0.33      0.00
    4   13    1      0.38      0.00
    4   13    2      0.19      0.00
    4   13    6     -0.03      0.00
    4   13    7      0.15      0.00
    4   13    8      0.28      0.00
    4   13    9      0.22      0.00
    4   13   10      0.08      0.00
    4   13   11      0.09      0.00
    4   13   12      0.22      0.00
    4   14    0     -0.39      0.00
    4   14    1     -0.32      0.00
    4   14    5     -0.13      0.00
    4   14    6     -0.25      0.00
    4   14    7     -0.35      0.00
    4   14    8     -0.47      0.00
    4   14    9     -0.50      0.00
    4   14   10     -0.36      0.00
    4   14   11     -0.20      0.00
    4   15    3     -0.17      0.00
    4   15    4     -0.07      0.00
    4   15    5      0.17      0.00
    4   15    6      0.33      0.00
    4   15    7      0.34      0.00
    4   15    8      0.34      0.00
   -5   14    3      0.27      0.00
   -5   14    2      0.12      0.00
   -5   14    1      0.00      0.00
   -5   13    6     -0.10      0.00
   -5   13    5     -0.33      0.00
   -5   13    4     -0.52      0.00
   -5   13    3     -0.49      0.00
   -5   13    2     -0.36      0.00
   -5   13    1     -0.26      0.00
   -5   13    0     -0.19      0.00
    5  -13    1     -0.20      0.00
    5  -13    2     -0.34      0.00
    5  -13    3     -0.45      0.00
   -5   12    8      0.07      0.00
   -5   12    7     -0.09      0.00
   -5   12    5      0.14      0.00
   -5   12    4      0.30      0.00
   -5   12    3      0.20      0.00
   -5   12    2      0.09      0.00
   -5   12    1      0.15      0.00
   -5   12    0      0.20      0.00
    5  -12    1      0.17      0.00
    5  -12    2      0.21      0.00
    5  -12    3      0.36      0.00
    5  -12    4      0.35      0.00
    5  -12    5      0.06      0.00
   -5   11    9      0.22      0.00
   -5   11    8      0.27      0.00
   -5   11    7      0.46      0.00
   -5   11    6      0.53      0.00
   -5   11    5      0.34      0.00
   -5   11    4      0.17      0.00
   -5   11    3      0.25      0.00
   -5   11    2      0.33      0.00
   -5   11    1      0.12      0.00
   -5   11    0     -0.16      0.00
    5  -11    1     -0.18      0.00
    5  -11    2     -0.04      0.00
    5  -11    3     -0.03      0.00
    5  -11    4     -0.07      0.00
    5  -11    5      0.10      0.00
    5  -11    6      0.35      0.00
    5  -11    7      0.36      0.00
   -5   10   10     -0.38      0.00
   -5   10    9     -0.30      0.00
   -5   10    8     -0.27      0.00
   -5   10    7     -0.38      0.00
   -5   10    6     -0.53      0.00
   -5   10    5     -0.51      0.00
   -5   10    4     -0.38      0.00
   -5   10    3     -0.36      0.00
   -5   10    2     -0.38      0.00
   -5   10    1     -0.14      0.00
   -5   10    0      0.28      0.00
    5  -10    1      0.43      0.00
    5  -10    2      0.18      0.00
    5  -10    3     -0.08      0.00
    5  -10    4     -0.13      0.00
    5  -10    5     -0.18      0.00
    5  -10    6     -0.32      0.00
    5  -10    7     -0.34      0.00
    5  -10    8     -0.17      0.00
   -5    9   10      0.18      0.00
   -5    9    9      0.19      0.00
   -5    9    8      0.03      0.00
   -5    9    7     -0.17      0.00
   -5    9    6     -0.15      0.00
   -5    9    5      0.04      0.00
   -5    9    4      0.16      0.00
   -5    9    3      0.17      0.00
   -5    9    2      0.12      0.00
   -5    9    1     -0.06      0.00
   -5    9    0     -0.41      0.00
    5   -9    1     -0.62      0.00
    5   -9    2     -0.45      0.00
    5   -9    3     -0.12      0.00
    5   -9    4      0.00      0.00
    5   -9    5     -0.05      0.00
    5   -9    6     -0.06      0.00
    5   -9    7     -0.06      0.00
    5   -9    8     -0.18      0.00
    5   -9    9     -0.26      0.00
   -5    8   11      0.12      0.00
   -5    8   10      0.05      0.00
   -5    8    9     -0.11      0.00
   -5    8    8      0.02      0.00
   -5    8    7      0.51      0.00
   -5    8    6      0.84      0.00
   -5    8    5      0.62      0.00
   -5    8    4      0.17      0.00
   -5    8    3     -0.02      0.00
   -5    8    2      0.04      0.00
   -5    8    1      0.16      0.00
   -5    8    0      0.31      0.00
    5   -8    1      0.44      0.00
    5   -8    2      0.40      0.00
    5   -8    3      0.24      0.00
    5   -8    4      0.21      0.00
    5   -8    5      0.36      0.00
    5   -8    6      0.48      0.00
    5   -8    7      0.48      0.00
    5   -8    8      0.49      0.00
    5   -8    9      0.52      0.00
    5   -8   10      0.41      0.00
   -5    7   11     -0.04      0.00
   -5    7   10     -0.09      0.00
   -5    7    9      0.12      0.00
   -5    7    8      0.19      0.00
   -5    7    7     -0.27      0.00
   -5    7    6     -0.82      0.00
   -5    7    5     -0.78      0.00
   -5    7    4     -0.25      0.00
   -5    7    3      0.11      0.00
   -5    7    2      0.06      0.00
   -5    7    1     -0.10      0.00
   -5    7    0     -0.13      0.00
    5   -7    1     -0.11      0.00
    5   -7    2     -0.10      0.00
    5   -7    3     -0.11      0.00
    5   -7    4     -0.20      0.00
    5   -7    5     -0.40      0.00
    5   -7    6     -0.54      0.00
    5   -7    7     -0.47      0.00
    5   -7    8     -0.32      0.00
    5   -7    9     -0.27      0.00
    5   -7   10     -0.26      0.00
    5   -7   11     -0.15      0.00
   -5    6   12     -0.30      0.00
   -5    6   11     -0.27      0.00
   -5    6   10     -0.10      0.00
   -5    6    9     -0.12      0.00
   -5    6    8     -0.26      0.00
   -5    6    7     -0.12      0.00
   -5    6    6      0.25      0.00
   -5    6    5      0.34      0.00
   -5    6    4      0.00      0.00
   -5    6    3     -0.29      0.00
   -5    6    2     -0.20      0.00
   -5    6    1      0.02      0.00
   -5    6    0      0.08      0.00
    5   -6    1      0.02      0.00
    5   -6    2      0.00      0.00
    5   -6    3      0.05      0.00
    5   -6    4      0.15      0.00
    5   -6    5      0.28      0.00
    5   -6    6      0.32      0.00
    5   -6    7      0.15      0.00
    5   -6    8     -0.15      0.00
    5   -6    9     -0.31      0.00
    5   -6   10     -0.28      0.00
    5   -6   11     -0.16      0.00
   -5    5   12      0.18      0.00
   -5    5   11      0.39      0.00
   -5    5   10      0.29      0.00
   -5    5    9      0.06      0.00
   -5    5    8      0.01      0.00
   -5    5    7      0.10      0.00
   -5    5    6      0.17      0.00
   -5    5    5      0.23      0.00
   -5    5    4      0.33      0.00
   -5    5    3      0.32      0.00
   -5    5    2      0.13      0.00
   -5    5    1     -0.07      0.00
   -5    5    0     -0.12      0.00
    5   -5    1     -0.11      0.00
    5   -5    2     -0.14      0.00
    5   -5    3     -0.20      0.00
    5   -5    4     -0.25      0.00
    5   -5    5     -0.30      0.00
    5   -5    6     -0.27      0.00
    5   -5    7     -0.05      0.00
    5   -5    8      0.28      0.00
    5   -5    9      0.53      0.00
    5   -5   10      0.58      0.00
    5   -5   11      0.48      0.00
    5   -5   12      0.31      0.00
    5   -5   13      0.15      0.00
   -5    4   12      0.17      0.00
   -5    4   11     -0.16      0.00
   -5    4   10     -0.29      0.00
   -5    4    9     -0.04      0.00
   -5    4    8      0.28      0.00
   -5    4    7      0.25      0.00
   -5    4    6     -0.12      0.00
   -5    4    5     -0.46      0.00
   -5    4    4     -0.49      0.00
   -5    4    3     -0.19      0.00
   -5    4    2      0.14      0.00
   -5    4    1      0.23      0.00
   -5    4    0      0.12      0.00
    5   -4    1      0.07      0.00
    5   -4    2      0.17      0.00
    5   -4    3      0.26      0.00
    5   -4    4      0.29      0.00
    5   -4    5      0.35      0.00
    5   -4    6      0.41      0.00
    5   -4    7      0.31      0.00
    5   -4    8      0.07      0.00
    5   -4    9     -0.13      0.00
    5   -4   10     -0.26      0.00
    5   -4   11     -0.36      0.00
    5   -4   12     -0.35      0.00
    5   -4   13     -0.18      0.00
   -5    3   12     -0.26      0.00
   -5    3   11     -0.08      0.00
   -5    3   10      0.15      0.00
   -5    3    9      0.06      0.00
   -5    3    8     -0.27      0.00
   -5    3    7     -0.37      0.00
   -5    3    6     -0.05      0.00
   -5    3    5      0.39      0.00
   -5    3    4      0.47      0.00
   -5    3    3      0.11      0.00
   -5    3    2     -0.30      0.00
   -5    3    1     -0.33      0.00
   -5    3    0     -0.05      0.00
    5   -3    1      0.12      0.00
    5   -3    2      0.05      0.00
    5   -3    3     -0.04      0.00
    5   -3    4     -0.02      0.00
    5   -3    5     -0.09      0.00
    5   -3    6     -0.32      0.00
    5   -3    7     -0.45      0.00
    5   -3    8     -0.38      0.00
    5   -3    9     -0.30      0.00
    5   -3   10     -0.24      0.00
    5   -3   11     -0.08      0.00
    5   -3   12      0.12      0.00
    5   -3   13      0.08      0.00
    5   -3   14     -0.13      0.00
   -5    2   12      0.00      0.00
   -5    2   11      0.06      0.00
   -5    2   10     -0.02      0.00
   -5    2    9     -0.03      0.00
   -5    2    8      0.07      0.00
   -5    2    7      0.10      0.00
   -5    2    6     -0.08      0.00
   -5    2    5     -0.33      0.00
   -5    2    4     -0.40      0.00
   -5    2    3     -0.18      0.00
   -5    2    2      0.13      0.00
   -5    2    1      0.19      0.00
   -5    2    0     -0.06      0.00
    5   -2    1     -0.29      0.00
    5   -2    2     -0.29      0.00
    5   -2    3     -0.27      0.00
    5   -2    4     -0.36      0.00
    5   -2    5     -0.35      0.00
    5   -2    6     -0.08      0.00
    5   -2    7      0.20      0.00
    5   -2    8      0.22      0.00
    5   -2    9      0.17      0.00
    5   -2   10      0.25      0.00
    5   -2   11      0.28      0.00
    5   -2   12      0.11      0.00
    5   -2   13      0.04      0.00
    5   -2   14      0.24      0.00
   -5    1   12      0.23      0.00
   -5    1   11      0.09      0.00
   -5    1   10     -0.06      0.00
   -5    1    9     -0.15      0.00
   -5    1    8     -0.08      0.00
   -5    1    7      0.17      0.00
   -5    1    6      0.40      0.00
   -5    1    5      0.41      0.00
   -5    1    4      0.29      0.00
   -5    1    3      0.21      0.00
   -5    1    2      0.15      0.00
   -5    1    1      0.10      0.00
   -5    1    0      0.13      0.00
    5   -1    1      0.27      0.00
    5   -1    2      0.37      0.00
    5   -1    3      0.42      0.00
    5   -1    4      0.51      0.00
    5   -1    5      0.54      0.00
    5   -1    6      0.34      0.00
    5   -1    7      0.10      0.00
    5   -1    8      0.12      0.00
    5   -1    9      0.27      0.00
    5   -1   10      0.17      0.00
    5   -1   11     -0.07      0.00
    5   -1   12     -0.12      0.00
    5   -1   13     -0.03      0.00
    5   -1   14     -0.14      0.00
    5   -1   15     -0.36      0.00
   -5    0   11     -0.08      0.00
   -5    0   10      0.14      0.00
   -5    0    9      0.39      0.00
   -5    0    8      0.36      0.00
   -5    0    7     -0.09      0.00
   -5    0    6     -0.54      0.00
   -5    0    5     -0.49      0.00
   -5    0    4     -0.13      0.00
   -5    0    3     -0.01      0.00
   -5    0    2     -0.17      0.00
   -5    0    1     -0.19      0.00
    5    0    0     -0.01      0.00
    5    0    1      0.02      0.00
    5    0    2     -0.19      0.00
    5    0    3     -0.36      0.00
    5    0    4     -0.37      0.00
    5    0    5     -0.29      0.00
    5    0    6     -0.16      0.00
    5    0    7     -0.06      0.00
    5    0    8     -0.15      0.00
    5    0    9     -0.37      0.00
    5    0   10     -0.37      0.00
    5    0   11     -0.08      0.00
    5    0   12      0.11      0.00
    5    0   13      0.00      0.00
    5    0   14     -0.09      0.00
    5    0   15      0.06      0.00
   -5   -1   11     -0.10      0.00
   -5   -1   10     -0.24      0.00
   -5   -1    9     -0.47      0.00
   -5   -1    8     -0.53      0.00
   -5   -1    7     -0.12      0.00
   -5   -1    6      0.45      0.00
   -5   -1    5      0.51      0.00
   -5   -1    4      0.03      0.00
   -5   -1    3     -0.28      0.00
   -5   -1    2     -0.12      0.00
   -5   -1    1      0.00      0.00
    5    1    0     -0.24      0.00
    5    1    1     -0.42      0.00
    5    1    2     -0.18      0.00
    5    1    3      0.12      0.00
    5    1    4      0.08      0.00
    5    1    5     -0.15      0.00
    5    1    6     -0.24      0.00
    5    1    7     -0.15      0.00
    5    1    8     -0.01      0.00
    5    1    9      0.12      0.00
    5    1   10      0.11      0.00
    5    1   11     -0.11      0.00
    5    1   12     -0.30      0.00
    5    1   13     -0.13      0.00
    5    1   14      0.19      0.00
    5    1   15      0.24      0.00
   -5   -2   11      0.32      0.00
   -5   -2   10      0.38      0.00
   -5   -2    9      0.42      0.00
   -5   -2    8      0.40      0.00
   -5   -2    7      0.11      0.00
   -5   -2    6     -0.37      0.00
   -5   -2    5     -0.53      0.00
   -5   -2    4     -0.12      0.00
   -5   -2    3      0.35      0.00
   -5   -2    2      0.34      0.00
   -5   -2    1      0.15      0.00
    5    2    0      0.26      0.00
    5    2    1      0.47      0.00
    5    2    2      0.32      0.00
    5    2    3      0.06      0.00
    5    2    4      0.16      0.00
    5    2    5      0.48      0.00
    5    2    6      0.47      0.00
    5    2    7      0.14      0.00
    5    2    8     -0.07      0.00
    5    2    9      0.00      0.00
    5    2   10      0.16      0.00
    5    2   11      0.34      0.00
    5    2   12      0.44      0.00
    5    2   13      0.30      0.00
    5    2   14     -0.07      0.00
    5    2   15     -0.31      0.00
    5    2   16     -0.19      0.00
   -5   -3   11     -0.41      0.00
   -5   -3   10     -0.52      0.00
   -5   -3    9     -0.43      0.00
   -5   -3    8     -0.23      0.00
   -5   -3    7      0.03      0.00
   -5   -3    6      0.33      0.00
   -5   -3    5      0.50      0.00
   -5   -3    4      0.29      0.00
   -5   -3    3     -0.11      0.00
   -5   -3    2     -0.24      0.00
   -5   -3    1     -0.05      0.00
    5    3    0      0.08      0.00
    5    3    1      0.05      0.00
    5    3    2      0.09      0.00
    5    3    3      0.13      0.00
    5    3    4     -0.13      0.00
    5    3    5     -0.49      0.00
    5    3    6     -0.40      0.00
    5    3    7      0.12      0.00
    5    3    8      0.43      0.00
    5    3    9      0.21      0.00
    5    3   10     -0.13      0.00
    5    3   11     -0.25      0.00
    5    3   12     -0.24      0.00
    5    3   13     -0.18      0.00
    5    3   14     -0.02      0.00
    5    3   15      0.17      0.00
    5    3   16      0.19      0.00
   -5   -4   10      0.48      0.00
   -5   -4    9      0.52      0.00
   -5   -4    8      0.30      0.00
   -5   -4    7      0.06      0.00
   -5   -4    6     -0.09      0.00
   -5   -4    5     -0.22      0.00
   -5   -4    4     -0.27      0.00
   -5   -4    3     -0.15      0.00
   -5   -4    2     -0.02      0.00
   -5   -4    1     -0.12      0.00
    5    4    0     -0.39      0.00
    5    4    1     -0.59      0.00
    5    4    2     -0.65      0.00
    5    4    3     -0.49      0.00
    5    4    4     -0.08      0.00
    5    4    5      0.30      0.00
    5    4    6      0.18      0.00
    5    4    7     -0.37      0.00
    5    4    8     -0.66      0.00
    5    4    9     -0.36      0.00
    5    4   10      0.07      0.00
    5    4   11      0.09      0.00
    5    4   12     -0.13      0.00
    5    4   13     -0.18      0.00
    5    4   14     -0.07      0.00
    5    4   15      0.00      0.00
    5    4   16     -0.04      0.00
   -5   -5   10     -0.18      0.00
   -5   -5    9     -0.44      0.00
   -5   -5    8     -0.44      0.00
   -5   -5    7     -0.30      0.00
   -5   -5    6     -0.27      0.00
   -5   -5    5     -0.24      0.00
   -5   -5    4     -0.05      0.00
   -5   -5    3      0.16      0.00
   -5   -5    2      0.17      0.00
   -5   -5    1      0.12      0.00
    5    5    0      0.26      0.00
    5    5    1      0.50      0.00
    5    5    2      0.60      0.00
    5    5    3      0.41      0.00
    5    5    4      0.02      0.00
    5    5    5     -0.24      0.00
    5    5    6     -0.08      0.00
    5    5    7      0.35      0.00
    5    5    8      0.50      0.00
    5    5    9      0.14      0.00
    5    5   10     -0.26      0.00
    5    5   11     -0.19      0.00
    5    5   12      0.20      0.00
    5    5   13      0.37      0.00
    5    5   14      0.18      0.00
    5    5   15     -0.07      0.00
    5    5   16     -0.14      0.00
   -5   -6    9      0.14      0.00
   -5   -6    8      0.32      0.00
   -5   -6    7      0.31      0.00
   -5   -6    6      0.34      0.00
   -5   -6    5      0.41      0.00
   -5   -6    4      0.26      0.00
   -5   -6    3     -0.03      0.00
   -5   -6    2     -0.14      0.00
   -5   -6    1     -0.01      0.00
    5    6    0      0.10      0.00
    5    6    1      0.05      0.00
    5    6    2      0.01      0.00
    5    6    3      0.15      0.00
    5    6    4      0.35      0.00
    5    6    5      0.35      0.00
    5    6    6      0.11      0.00
    5    6    7     -0.15      0.00
    5    6    8     -0.12      0.00
    5    6    9      0.23      0.00
    5    6   10      0.50      0.00
    5    6   11      0.37      0.00
    5    6   12      0.01      0.00
    5    6   13     -0.18      0.00
    5    6   14     -0.10      0.00
    5    6   15      0.08      0.00
    5    6   16      0.15      0.00
   -5   -7    8     -0.06      0.00
   -5   -7    7     -0.07      0.00
   -5   -7    6     -0.05      0.00
   -5   -7    5     -0.09      0.00
   -5   -7    4     -0.06      0.00
   -5   -7    3      0.08      0.00
   -5   -7    2      0.14      0.00
   -5   -7    1     -0.03      0.00
    5    7    0     -0.24      0.00
    5    7    1     -0.34      0.00
    5    7    2     -0.41      0.00
    5    7    3     -0.53      0.00
    5    7    4     -0.54      0.00
    5    7    5     -0.31      0.00
    5    7    6      0.01      0.00
    5    7    7      0.13      0.00
    5    7    8     -0.05      0.00
    5    7    9     -0.33      0.00
    5    7   10     -0.39      0.00
    5    7   11     -0.20      0.00
    5    7   12     -0.02      0.00
    5    7   13     -0.03      0.00
    5    7   14     -0.10      0.00
    5    7   15     -0.06      0.00
    5    7   16      0.02      0.00
   -5   -8    8     -0.06      0.00
   -5   -8    7     -0.06      0.00
   -5   -8    6     -0.16      0.00
   -5   -8    5     -0.22      0.00
   -5   -8    4     -0.24      0.00
   -5   -8    3     -0.25      0.00
   -5   -8    2     -0.20      0.00
   -5   -8    1     -0.06      0.00
    5    8    0      0.07      0.00
    5    8    1      0.12      0.00
    5    8    2      0.20      0.00
    5    8    3      0.33      0.00
    5    8    4      0.29      0.00
    5    8    5      0.00      0.00
    5    8    6     -0.31      0.00
    5    8    7     -0.33      0.00
    5    8    8     -0.08      0.00
    5    8    9      0.11      0.00
    5    8   10      0.00      0.00
    5    8   11     -0.27      0.00
    5    8   12     -0.32      0.00
    5    8   13     -0.06      0.00
    5    8   14      0.14      0.00
    5    8   15      0.03      0.00
   -5   -9    7     -0.06      0.00
   -5   -9    6     -0.03      0.00
   -5   -9    5      0.05      0.00
   -5   -9    4      0.14      0.00
   -5   -9    3      0.20      0.00
   -5   -9    2      0.20      0.00
   -5   -9    1      0.14      0.00
    5    9    0      0.13      0.00
    5    9    1      0.19      0.00
    5    9    2      0.16      0.00
    5    9    3      0.02      0.00
    5    9    4     -0.01      0.00
    5    9    5      0.17      0.00
    5    9    6      0.37      0.00
    5    9    7      0.34      0.00
    5    9    8      0.13      0.00
    5    9    9      0.06      0.00
    5    9   10      0.24      0.00
    5    9   11      0.50      0.00
    5    9   12      0.51      0.00
    5    9   13      0.22      0.00
    5    9   14     -0.07      0.00
    5    9   15     -0.03      0.00
   -5  -10    6      0.29      0.00
   -5  -10    5      0.31      0.00
   -5  -10    4      0.26      0.00
   -5  -10    3      0.12      0.00
   -5  -10    2     -0.05      0.00
   -5  -10    1     -0.15      0.00
    5   10    0     -0.20      0.00
    5   10    1     -0.23      0.00
    5   10    2     -0.19      0.00
    5   10    3     -0.06      0.00
    5   10    4      0.04      0.00
    5   10    5      0.01      0.00
    5   10    6     -0.01      0.00
    5   10    7      0.09      0.00
    5   10    8      0.18      0.00
    5   10    9      0.09      0.00
    5   10   10     -0.11      0.00
    5   10   11     -0.23      0.00
    5   10   12     -0.19      0.00
    5   10   13     -0.03      0.00
    5   10   14      0.11      0.00
    5   10   15      0.11      0.00
   -5  -11    5     -0.32      0.00
   -5  -11    4     -0.37      0.00
   -5  -11    3     -0.30      0.00
   -5  -11    2     -0.07      0.00
   -5  -11    1      0.13      0.00
    5   11    0      0.17      0.00
    5   11    1      0.09      0.00
    5   11    2     -0.01      0.00
    5   11    3     -0.08      0.00
    5   11    4     -0.10      0.00
    5   11    5     -0.11      0.00
    5   11    6     -0.24      0.00
    5   11    7     -0.45      0.00
    5   11    8     -0.52      0.00
    5   11    9     -0.32      0.00
    5   11   10     -0.11      0.00
    5   11   11     -0.15      0.00
    5   11   12     -0.33      0.00
    5   11   13     -0.39      0.00
    5   11   14     -0.29      0.00
   -5  -12    3      0.15      0.00
   -5  -12    2      0.07      0.00
   -5  -12    1     -0.08      0.00
    5   12    0     -0.09      0.00
    5   12    1      0.05      0.00
    5   12    2      0.15      0.00
    5   12    3      0.08      0.00
    5   12    4     -0.09      0.00
    5   12    5     -0.18      0.00
    5   12    6     -0.04      0.00
    5   12    7      0.26      0.00
    5   12    8      0.41      0.00
    5   12    9      0.25      0.00
    5   12   10      0.04      0.00
    5   12   11      0.13      0.00
    5   12   12      0.43      0.00
    5   12   13      0.52      0.00
   -5  -13    2     -0.09      0.00
   -5  -13    1     -0.08      0.00
    5   13    0     -0.09      0.00
    5   13    1     -0.19      0.00
    5   13    2     -0.19      0.00
    5   13    3      0.02      0.00
    5   13    4      0.31      0.00
    5   13    5      0.45      0.00
    5   13    6      0.32      0.00
    5   13    7      0.05      0.00
    5   13    8     -0.12      0.00
    5   13    9     -0.02      0.00
    5   13   10      0.17      0.00
    5   13   11      0.16      0.00
    5   13   12     -0.06      0.00
    5   14    0      0.29      0.00
    5   14    1      0.32      0.00
    5   14    2      0.22      0.00
    5   14    3     -0.06      0.00
    5   14    4     -0.31      0.00
    5   14    5     -0.29      0.00
    5   14    6     -0.05      0.00
    5   14    7      0.16      0.00
    5   14    8      0.19      0.00
    5   14    9      0.06      0.00
    5   14   10     -0.12      0.00
    5   14   11     -0.22      0.00
    5   15    4      0.21      0.00
    5   15    5     -0.01      0.00
    5   15    6     -0.43      0.00
    5   15    7     -0.64      0.00
    5   15    8     -0.51      0.00
   -6   13    4      0.05      0.00
   -6   13    3      0.13      0.00
   -6   13    2      0.14      0.00
   -6   13    1      0.09      0.00
   -6   13    0     -0.04      0.00
    6  -13    1     -0.12      0.00
    6  -13    2     -0.03      0.00
   -6   12    7      0.27      0.00
   -6   12    6      0.25      0.00
   -6   12    4     -0.27      0.00
   -6   12    3     -0.40      0.00
   -6   12    2     -0.39      0.00
   -6   12    1     -0.32      0.00
   -6   12    0     -0.18      0.00
    6  -12    1      0.01      0.00
    6  -12    2      0.08      0.00
    6  -12    3     -0.04      0.00
    6  -12    4     -0.11      0.00
    6  -12    5      0.00      0.00
   -6   11    8     -0.20      0.00
   -6   11    7     -0.33      0.00
   -6   11    6     -0.34      0.00
   -6   11    5     -0.13      0.00
   -6   11    4      0.20      0.00
   -6   11    3      0.39      0.00
   -6   11    2      0.34      0.00
   -6   11    1      0.23      0.00
   -6   11    0      0.18      0.00
    6  -11    1      0.09      0.00
    6  -11    2     -0.03      0.00
    6  -11    3     -0.03      0.00
    6  -11    4      0.09      0.00
    6  -11    5      0.16      0.00
    6  -11    6      0.13      0.00
    6  -11    7      0.14      0.00
   -6   10    9      0.02      0.00
   -6   10    8      0.14      0.00
   -6   10    7      0.17      0.00
   -6   10    6      0.24      0.00
   -6   10    5      0.26      0.00
   -6   10    4      0.08      0.00
   -6   10    3     -0.16      0.00
   -6   10    2     -0.17      0.00
   -6   10    1     -0.06      0.00
   -6   10    0     -0.09      0.00
    6  -10    1     -0.21      0.00
    6  -10    2     -0.18      0.00
    6  -10    3     -0.04      0.00
    6  -10    4     -0.04      0.00
    6  -10    5     -0.14      0.00
    6  -10    6     -0.16      0.00
    6  -10    7     -0.08      0.00
    6  -10    8      0.01      0.00
   -6    9   10      0.29      0.00
   -6    9    9      0.07      0.00
   -6    9    8     -0.01      0.00
   -6    9    7      0.16      0.00
   -6    9    6      0.18      0.00
   -6    9    5     -0.08      0.00
   -6    9    4     -0.24      0.00
   -6    9    3     -0.11      0.00
   -6    9    2      0.05      0.00
   -6    9    1      0.04      0.00
   -6    9    0      0.10      0.00
    6   -9    1      0.33      0.00
    6   -9    2      0.43      0.00
    6   -9    3      0.24      0.00
    6   -9    4      0.05      0.00
    6   -9    5      0.04      0.00
    6   -9    6      0.06      0.00
    6   -9    7     -0.03      0.00
    6   -9    8     -0.13      0.00
    6   -9    9     -0.12      0.00
   -6    8   10     -0.45      0.00
   -6    8    9     -0.14      0.00
   -6    8    8      0.01      0.00
   -6    8    7     -0.26      0.00
   -6    8    6     -0.53      0.00
   -6    8    5     -0.31      0.00
   -6    8    4      0.14      0.00
   -6    8    3      0.28      0.00
   -6    8    2      0.10      0.00
   -6    8    1     -0.03      0.00
   -6    8    0     -0.12      0.00
    6   -8    1     -0.31      0.00
    6   -8    2     -0.46      0.00
    6   -8    3     -0.33      0.00
    6   -8    4     -0.08      0.00
    6   -8    5      0.00      0.00
    6   -8    6     -0.03      0.00
    6   -8    7      0.02      0.00
    6   -8    8      0.06      0.00
    6   -8    9     -0.09      0.00
    6   -8   10     -0.29      0.00
   -6    7   10      0.31      0.00
   -6    7    9      0.07      0.00
   -6    7    8     -0.16      0.00
   -6    7    7      0.02      0.00
   -6    7    6      0.44      0.00
   -6    7    5      0.48      0.00
   -6    7    4      0.05      0.00
   -6    7    3     -0.33      0.00
   -6    7    2     -0.32      0.00
   -6    7    1     -0.14      0.00
   -6    7    0     -0.01      0.00
    6   -7    1      0.12      0.00
    6   -7    2      0.25      0.00
    6   -7    3      0.21      0.00
    6   -7    4      0.05      0.00
    6   -7    5      0.00      0.00
    6   -7    6      0.06      0.00
    6   -7    7      0.07      0.00
    6   -7    8      0.08      0.00
    6   -7    9      0.28      0.00
    6   -7   10      0.56      0.00
    6   -7   11      0.54      0.00
   -6    6   11      0.16      0.00
   -6    6   10      0.18      0.00
   -6    6    9      0.19      0.00
   -6    6    8      0.26      0.00
   -6    6    7      0.22      0.00
   -6    6    6     -0.05      0.00
   -6    6    5     -0.25      0.00
   -6    6    4     -0.09      0.00
   -6    6    3      0.25      0.00
   -6    6    2      0.42      0.00
   -6    6    1      0.34      0.00
   -6    6    0      0.21      0.00
    6   -6    1      0.07      0.00
    6   -6    2     -0.08      0.00
    6   -6    3     -0.13      0.00
    6   -6    4     -0.08      0.00
    6   -6    5     -0.05      0.00
    6   -6    6     -0.08      0.00
    6   -6    7     -0.10      0.00
    6   -6    8     -0.10      0.00
    6   -6    9     -0.23      0.00
    6   -6   10     -0.43      0.00
    6   -6   11     -0.43      0.00
    6   -6   12     -0.13      0.00
   -6    5   11     -0.34      0.00
   -6    5   10     -0.57      0.00
   -6    5    9     -0.42      0.00
   -6    5    8     -0.17      0.00
   -6    5    7     -0.09      0.00
   -6    5    6     -0.11      0.00
   -6    5    5     -0.07      0.00
   -6    5    4     -0.03      0.00
   -6    5    3     -0.11      0.00
   -6    5    2     -0.22      0.00
   -6    5    1     -0.27      0.00
   -6    5    0     -0.25      0.00
    6   -5    1     -0.13      0.00
    6   -5    2      0.06      0.00
    6   -5    3      0.23      0.00
    6   -5    4      0.25      0.00
    6   -5    5      0.19      0.00
    6   -5    6      0.11      0.00
    6   -5    7      0.05      0.00
    6   -5    8      0.02      0.00
    6   -5    9      0.07      0.00
    6   -5   10      0.12      0.00
    6   -5   11      0.06      0.00
    6   -5   12     -0.07      0.00
    6   -5   13     -0.10      0.00
   -6    4   11     -0.04      0.00
   -6    4   10      0.40      0.00
   -6    4    9      0.35      0.00
   -6    4    8     -0.07      0.00
   -6    4    7     -0.29      0.00
   -6    4    6     -0.11      0.00
   -6    4    5      0.15      0.00
   -6    4    4      0.19      0.00
   -6    4    3      0.06      0.00
   -6    4    2     -0.05      0.00
   -6    4    1     -0.02      0.00
   -6    4    0      0.10      0.00
    6   -4    1      0.12      0.00
    6   -4    2     -0.05      0.00
    6   -4    3     -0.29      0.00
    6   -4    4     -0.39      0.00
    6   -4    5     -0.32      0.00
    6   -4    6     -0.16      0.00
    6   -4    7     -0.05      0.00
    6   -4    8     -0.02      0.00
    6   -4    9     -0.05      0.00
    6   -4   10     -0.01      0.00
    6   -4   11      0.16      0.00
    6   -4   12      0.22      0.00
    6   -4   13     -0.01      0.00
   -6    3   11      0.47      0.00
   -6    3   10      0.10      0.00
   -6    3    9     -0.03      0.00
   -6    3    8      0.22      0.00
   -6    3    7      0.45      0.00
   -6    3    6      0.32      0.00
   -6    3    5     -0.03      0.00
   -6    3    4     -0.25      0.00
   -6    3    3     -0.18      0.00
   -6    3    2      0.03      0.00
   -6    3    1      0.13      0.00
   -6    3    0      0.00      0.00
    6   -3    1     -0.17      0.00
    6   -3    2     -0.11      0.00
    6   -3    3      0.14      0.00
    6   -3    4      0.31      0.00
    6   -3    5      0.28      0.00
    6   -3    6      0.17      0.00
    6   -3    7      0.11      0.00
    6   -3    8      0.13      0.00
    6   -3    9      0.19      0.00
    6   -3   10      0.16      0.00
    6   -3   11      0.00      0.00
    6   -3   12     -0.11      0.00
    6   -3   13      0.12      0.00
    6   -3   14      0.52      0.00
   -6    2   11     -0.41      0.00
   -6    2   10     -0.30      0.00
   -6    2    9     -0.19      0.00
   -6    2    8     -0.18      0.00
   -6    2    7     -0.18      0.00
   -6    2    6     -0.10      0.00
   -6    2    5      0.05      0.00
   -6    2    4      0.20      0.00
   -6    2    3      0.27      0.00
   -6    2    2      0.20      0.00
   -6    2    1      0.08      0.00
   -6    2    0      0.12      0.00
    6   -2    1      0.30      0.00
    6   -2    2      0.35      0.00
    6   -2    3      0.13      0.00
    6   -2    4     -0.08      0.00
    6   -2    5     -0.12      0.00
    6   -2    6     -0.11      0.00
    6   -2    7     -0.20      0.00
    6   -2    8     -0.28      0.00
    6   -2    9     -0.26      0.00
    6   -2   10     -0.22      0.00
    6   -2   11     -0.20      0.00
    6   -2   12     -0.19      0.00
    6   -2   13     -0.30      0.00
    6   -2   14     -0.50      0.00
   -6    1   11     -0.02      0.00
   -6    1   10      0.07      0.00
   -6    1    9      0.16      0.00
   -6    1    8      0.09      0.00
   -6    1    7     -0.17      0.00
   -6    1    6     -0.38      0.00
   -6    1    5     -0.32      0.00
   -6    1    4     -0.15      0.00
   -6    1    3     -0.15      0.00
   -6    1    2     -0.26      0.00
   -6    1    1     -0.28      0.00
   -6    1    0     -0.25      0.00
    6   -1    1     -0.34      0.00
    6   -1    2     -0.43      0.00
    6   -1    3     -0.30      0.00
    6   -1    4     -0.09      0.00
    6   -1    5     -0.01      0.00
    6   -1    6      0.06      0.00
    6   -1    7      0.27      0.00
    6   -1    8      0.41      0.00
    6   -1    9      0.24      0.00
    6   -1   10      0.02      0.00
    6   -1   11      0.09      0.00
    6   -1   12      0.34      0.00
    6   -1   13      0.47      0.00
    6   -1   14      0.41      0.00
    6   -1   15      0.26      0.00
   -6    0   11      0.28      0.00
   -6    0   10      0.21      0.00
   -6    0    9     -0.06      0.00
   -6    0    8     -0.17      0.00
   -6    0    7      0.14      0.00
   -6    0    6      0.57      0.00
   -6    0    5      0.59      0.00
   -6    0    4      0.21      0.00
   -6    0    3     -0.05      0.00
   -6    0    2      0.05      0.00
   -6    0    1      0.19      0.00
    6    0    0      0.15      0.00
    6    0    1      0.13      0.00
    6    0    2      0.23      0.00
    6    0    3      0.24      0.00
    6    0    4      0.14      0.00
    6    0    5      0.08      0.00
    6    0    6     -0.01      0.00
    6    0    7     -0.29      0.00
    6    0    8     -0.51      0.00
    6    0    9     -0.25      0.00
    6    0   10      0.22      0.00
    6    0   11      0.24      0.00
    6    0   12     -0.22      0.00
    6    0   13     -0.52      0.00
    6    0   14     -0.33      0.00
    6    0   15      0.00      0.00
   -6   -1   10     -0.21      0.00
   -6   -1    9      0.10      0.00
   -6   -1    8      0.37      0.00
   -6   -1    7      0.23      0.00
   -6   -1    6     -0.27      0.00
   -6   -1    5     -0.56      0.00
   -6   -1    4     -0.31      0.00
   -6   -1    3      0.08      0.00
   -6   -1    2      0.15      0.00
   -6   -1    1      0.01      0.00
    6    1    0      0.04      0.00
    6    1    1      0.16      0.00
    6    1    2      0.12      0.00
    6    1    3     -0.03      0.00
    6    1    4     -0.10      0.00
    6    1    5     -0.11      0.00
    6    1    6     -0.06      0.00
    6    1    7      0.20      0.00
    6    1    8      0.49      0.00
    6    1    9      0.33      0.00
    6    1   10     -0.23      0.00
    6    1   11     -0.43      0.00
    6    1   12      0.02      0.00
    6    1   13      0.45      0.00
    6    1   14      0.26      0.00
    6    1   15     -0.19      0.00
   -6   -2   10     -0.03      0.00
   -6   -2    9     -0.30      0.00
   -6   -2    8     -0.49      0.00
   -6   -2    7     -0.43      0.00
   -6   -2    6     -0.06      0.00
   -6   -2    5      0.35      0.00
   -6   -2    4      0.38      0.00
   -6   -2    3      0.07      0.00
   -6   -2    2     -0.13      0.00
   -6   -2    1     -0.07      0.00
    6    2    0     -0.04      0.00
    6    2    1     -0.19      0.00
    6    2    2     -0.24      0.00
    6    2    3     -0.08      0.00
    6    2    4      0.08      0.00
    6    2    5      0.13      0.00
    6    2    6      0.10      0.00
    6    2    7     -0.04      0.00
    6    2    8     -0.28      0.00
    6    2    9     -0.27      0.00
    6    2   10      0.11      0.00
    6    2   11      0.36      0.00
    6    2   12      0.06      0.00
    6    2   13     -0.36      0.00
    6    2   14     -0.23      0.00
    6    2   15      0.23      0.00
    6    2   16      0.30      0.00
   -6   -3   10      0.25      0.00
   -6   -3    9      0.57      0.00
   -6   -3    8      0.54      0.00
   -6   -3    7      0.30      0.00
   -6   -3    6      0.02      0.00
   -6   -3    5     -0.28      0.00
   -6   -3    4     -0.41      0.00
   -6   -3    3     -0.23      0.00
   -6   -3    2      0.01      0.00
   -6   -3    1      0.02      0.00
    6    3    0     -0.11      0.00
    6    3    1     -0.11      0.00
    6    3    2     -0.04      0.00
    6    3    3     -0.08      0.00
    6    3    4     -0.18      0.00
    6    3    5     -0.18      0.00
    6    3    6     -0.13      0.00
    6    3    7     -0.09      0.00
    6    3    8     -0.05      0.00
    6    3    9     -0.04      0.00
    6    3   10     -0.16      0.00
    6    3   11     -0.26      0.00
    6    3   12     -0.07      0.00
    6    3   13      0.23      0.00
    6    3   14      0.19      0.00
    6    3   15     -0.14      0.00
    6    3   16     -0.22      0.00
   -6   -4    9     -0.71      0.00
   -6   -4    8     -0.59      0.00
   -6   -4    7     -0.14      0.00
   -6   -4    6      0.19      0.00
   -6   -4    5      0.31      0.00
   -6   -4    4      0.36      0.00
   -6   -4    3      0.26      0.00
   -6   -4    2      0.03      0.00
   -6   -4    1     -0.06      0.00
    6    4    0      0.14      0.00
    6    4    1      0.35      0.00
    6    4    2      0.38      0.00
    6    4    3      0.34      0.00
    6    4    4      0.31      0.00
    6    4    5      0.23      0.00
    6    4    6      0.11      0.00
    6    4    7      0.13      0.00
    6    4    8      0.28      0.00
    6    4    9      0.40      0.00
    6    4   10      0.38      0.00
    6    4   11      0.28      0.00
    6    4   12      0.12      0.00
    6    4   13     -0.03      0.00
    6    4   14     -0.03      0.00
    6    4   15      0.09      0.00
    6    4   16      0.09      0.00
   -6   -5    9      0.53      0.00
   -6   -5    8      0.55      0.00
   -6   -5    7      0.13      0.00
   -6   -5    6     -0.18      0.00
   -6   -5    5     -0.18      0.00
   -6   -5    4     -0.11      0.00
   -6   -5    3     -0.07      0.00
   -6   -5    2      0.05      0.00
   -6   -5    1      0.14      0.00
    6    5    0     -0.02      0.00
    6    5    1     -0.32      0.00
    6    5    2     -0.44      0.00
    6    5    3     -0.34      0.00
    6    5    4     -0.21      0.00
    6    5    5     -0.09      0.00
    6    5    6      0.04      0.00
    6    5    7      0.02      0.00
    6    5    8     -0.22      0.00
    6    5    9     -0.47      0.00
    6    5   10     -0.49      0.00
    6    5   11     -0.29      0.00
    6    5   12     -0.13      0.00
    6    5   13     -0.13      0.00
    6    5   14     -0.21      0.00
    6    5   15     -0.23      0.00
    6    5   16     -0.09      0.00
   -6   -6    8     -0.32      0.00
   -6   -6    7     -0.14      0.00
   -6   -6    6      0.02      0.00
   -6   -6    5     -0.08      0.00
   -6   -6    4     -0.23      0.00
   -6   -6    3     -0.22      0.00
   -6   -6    2     -0.19      0.00
   -6   -6    1     -0.20      0.00
    6    6    0     -0.08      0.00
    6    6    1      0.17      0.00
    6    6    2      0.27      0.00
    6    6    3      0.10      0.00
    6    6    4     -0.12      0.00
    6    6    5     -0.24      0.00
    6    6    6     -0.30      0.00
    6    6    7     -0.27      0.00
    6    6    8     -0.08      0.00
    6    6    9      0.19      0.00
    6    6   10      0.27      0.00
    6    6   11      0.12      0.00
    6    6   12     -0.02      0.00
    6    6   13      0.07      0.00
    6    6   14      0.28      0.00
    6    6   15      0.36      0.00
    6    6   16      0.23      0.00
   -6   -7    8      0.11      0.00
   -6   -7    7      0.08      0.00
   -6   -7    6      0.05      0.00
   -6   -7    5      0.19      0.00
   -6   -7    4      0.36      0.00
   -6   -7    3      0.37      0.00
   -6   -7    2      0.29      0.00
   -6   -7    1      0.24      0.00
    6    7    0      0.13      0.00
    6    7    1     -0.06      0.00
    6    7    2     -0.14      0.00
    6    7    3      0.06      0.00
    6    7    4      0.33      0.00
    6    7    5      0.42      0.00
    6    7    6      0.36      0.00
    6    7    7      0.28      0.00
    6    7    8      0.20      0.00
    6    7    9      0.08      0.00
    6    7   10      0.02      0.00
    6    7   11      0.09      0.00
    6    7   12      0.16      0.00
    6    7   13      0.09      0.00
    6    7   14     -0.11      0.00
    6    7   15     -0.27      0.00
    6    7   16     -0.28      0.00
   -6   -8    7     -0.07      0.00
   -6   -8    6     -0.04      0.00
   -6   -8    5     -0.09      0.00
   -6   -8    4     -0.20      0.00
   -6   -8    3     -0.26      0.00
   -6   -8    2     -0.27      0.00
   -6   -8    1     -0.28      0.00
    6    8    0     -0.21      0.00
    6    8    1     -0.04      0.00
    6    8    2      0.07      0.00
    6    8    3     -0.05      0.00
    6    8    4     -0.25      0.00
    6    8    5     -0.26      0.00
    6    8    6     -0.07      0.00
    6    8    7      0.10      0.00
    6    8    8      0.13      0.00
    6    8    9      0.07      0.00
    6    8   10      0.00      0.00
    6    8   11     -0.03      0.00
    6    8   12     -0.01      0.00
    6    8   13      0.01      0.00
    6    8   14      0.02      0.00
    6    8   15      0.08      0.00
   -6   -9    6      0.06      0.00
   -6   -9    5      0.01      0.00
   -6   -9    4      0.02      0.00
   -6   -9    3      0.09      0.00
   -6   -9    2      0.19      0.00
   -6   -9    1      0.29      0.00
    6    9    0      0.31      0.00
    6    9    1      0.18      0.00
    6    9    2      0.04      0.00
    6    9    3      0.06      0.00
    6    9    4      0.16      0.00
    6    9    5      0.10      0.00
    6    9    6     -0.16      0.00
    6    9    7     -0.41      0.00
    6    9    8     -0.48      0.00
    6    9    9     -0.37      0.00
    6    9   10     -0.24      0.00
    6    9   11     -0.23      0.00
    6    9   12     -0.34      0.00
    6    9   13     -0.40      0.00
    6    9   14     -0.27      0.00
    6    9   15     -0.10      0.00
   -6  -10    5     -0.02      0.00
   -6  -10    4      0.01      0.00
   -6  -10    3     -0.04      0.00
   -6  -10    2     -0.13      0.00
   -6  -10    1     -0.23      0.00
    6   10    0     -0.27      0.00
    6   10    1     -0.23      0.00
    6   10    2     -0.17      0.00
    6   10    3     -0.19      0.00
    6   10    4     -0.27      0.00
    6   10    5     -0.24      0.00
    6   10    6     -0.05      0.00
    6   10    7      0.16      0.00
    6   10    8      0.25      0.00
    6   10    9      0.23      0.00
    6   10   10      0.18      0.00
    6   10   11      0.24      0.00
    6   10   12      0.45      0.00
    6   10   13      0.63      0.00
    6   10   14      0.58      0.00
    6   10   15      0.34      0.00
   -6  -11    4     -0.02      0.00
   -6  -11    3      0.02      0.00
   -6  -11    2      0.06      0.00
   -6  -11    1      0.05      0.00
    6   11    0      0.04      0.00
    6   11    1      0.07      0.00
    6   11    2      0.14      0.00
    6   11    3      0.26      0.00
    6   11    4      0.38      0.00
    6   11    5      0.43      0.00
    6   11    6      0.37      0.00
    6   11    7      0.32      0.00
    6   11    8      0.33      0.00
    6   11    9      0.33      0.00
    6   11   10      0.24      0.00
    6   11   11      0.08      0.00
    6   11   12     -0.14      0.00
    6   11   13     -0.38      0.00
    6   11   14     -0.48      0.00
   -6  -12    2      0.09      0.00
   -6  -12    1      0.17      0.00
    6   12    0      0.23      0.00
    6   12    1      0.17      0.00
    6   12    2      0.01      0.00
    6   12    3     -0.15      0.00
    6   12    4     -0.27      0.00
    6   12    5     -0.32      0.00
    6   12    6     -0.29      0.00
    6   12    7     -0.29      0.00
    6   12    8     -0.40      0.00
    6   12    9     -0.49      0.00
    6   12   10     -0.43      0.00
    6   12   11     -0.26      0.00
    6   12   12     -0.13      0.00
    6   12   13     -0.04      0.00
   -6  -13    1     -0.23      0.00
    6   13    0     -0.28      0.00
    6   13    1     -0.20      0.00
    6   13    2     -0.05      0.00
    6   13    3      0.04      0.00
    6   13    4      0.07      0.00
    6   13    5      0.04      0.00
    6   13    6     -0.06      0.00
    6   13    7     -0.18      0.00
    6   13    8     -0.14      0.00
    6   13    9      0.01      0.00
    6   13   10      0.08      0.00
    6   13   11      0.01      0.00
    6   13   12      0.00      0.00
    6   14    1     -0.07      0.00
    6   14    2     -0.18      0.00
    6   14    3     -0.14      0.00
    6   14    4     -0.03      0.00
    6   14    5      0.03      0.00
    6   14    6      0.13      0.00
    6   14    7      0.33      0.00
    6   14    8      0.48      0.00
    6   14    9      0.42      0.00
    6   14   10      0.26      0.00
    6   15    6      0.15      0.00
   -7   12    5     -0.03      0.00
   -7   12    3      0.38      0.00
   -7   12    2      0.37      0.00
   -7   12    1      0.22      0.00
   -7   12    0      0.09      0.00
    7  -12    1     -0.01      0.00
    7  -12    2     -0.09      0.00
    7  -12    3     -0.07      0.00
    7  -12    4     -0.01      0.00
   -7   11    6     -0.04      0.00
   -7   11    5     -0.07      0.00
   -7   11    4     -0.33      0.00
   -7   11    3     -0.58      0.00
   -7   11    2     -0.51      0.00
   -7   11    1     -0.22      0.00
   -7   11    0     -0.08      0.00
    7  -11    1     -0.11      0.00
    7  -11    2     -0.10      0.00
    7  -11    3     -0.04      0.00
    7  -11    4     -0.08      0.00
    7  -11    5     -0.16      0.00
    7  -11    6     -0.11      0.00
   -7   10    8      0.03      0.00
   -7   10    7      0.20      0.00
   -7   10    6      0.21      0.00
   -7   10    4      0.23      0.00
   -7   10    3      0.46      0.00
   -7   10    2      0.36      0.00
   -7   10    1     -0.05      0.00
   -7   10    0     -0.26      0.00
    7  -10    1     -0.08      0.00
    7  -10    2      0.12      0.00
    7  -10    3      0.12      0.00
    7  -10    4      0.12      0.00
    7  -10    5      0.24      0.00
    7  -10    6      0.29      0.00
    7  -10    7      0.17      0.00
    7  -10    8      0.07      0.00
   -7    9    8      0.10      0.00
   -7    9    7     -0.14      0.00
   -7    9    6     -0.26      0.00
   -7    9    5     -0.15      0.00
   -7    9    4     -0.09      0.00
   -7    9    3     -0.20      0.00
   -7    9    2     -0.16      0.00
   -7    9    1      0.19      0.00
   -7    9    0      0.46      0.00
    7   -9    1      0.28      0.00
    7   -9    2     -0.06      0.00
    7   -9    3     -0.13      0.00
    7   -9    4     -0.03      0.00
    7   -9    5     -0.03      0.00
    7   -9    6     -0.07      0.00
    7   -9    7      0.02      0.00
    7   -9    8      0.12      0.00
    7   -9    9      0.05      0.00
   -7    8    9     -0.15      0.00
   -7    8    8     -0.26      0.00
   -7    8    7     -0.17      0.00
   -7    8    6      0.05      0.00
   -7    8    5      0.15      0.00
   -7    8    4      0.10      0.00
   -7    8    3      0.08      0.00
   -7    8    2      0.08      0.00
   -7    8    1     -0.05      0.00
   -7    8    0     -0.20      0.00
    7   -8    1     -0.08      0.00
    7   -8    2      0.18      0.00
    7   -8    3      0.19      0.00
    7   -8    4     -0.07      0.00
    7   -8    5     -0.26      0.00
    7   -8    6     -0.30      0.00
    7   -8    7     -0.36      0.00
    7   -8    8     -0.40      0.00
    7   -8    9     -0.24      0.00
    7   -8   10      0.01      0.00
   -7    7    9     -0.04      0.00
   -7    7    8      0.20      0.00
   -7    7    7      0.42      0.00
   -7    7    6      0.30      0.00
   -7    7    5     -0.03      0.00
   -7    7    4     -0.19      0.00
   -7    7    3     -0.11      0.00
   -7    7    2     -0.02      0.00
   -7    7    1     -0.03      0.00
   -7    7    0     -0.11      0.00
    7   -7    1     -0.29      0.00
    7   -7    2     -0.46      0.00
    7   -7    3     -0.37      0.00
    7   -7    4      0.00      0.00
    7   -7    5      0.33      0.00
    7   -7    6      0.42      0.00
    7   -7    7      0.39      0.00
    7   -7    8      0.34      0.00
    7   -7    9      0.17      0.00
    7   -7   10     -0.10      0.00
    7   -7   11     -0.20      0.00
   -7    6   10     -0.03      0.00
   -7    6    9      0.06      0.00
   -7    6    8     -0.06      0.00
   -7    6    7     -0.40      0.00
   -7    6    6     -0.49      0.00
   -7    6    5     -0.15      0.00
   -7    6    4      0.19      0.00
   -7    6    3      0.15      0.00
   -7    6    2     -0.10      0.00
   -7    6    1     -0.19      0.00
   -7    6    0      0.00      0.00
    7   -6    1      0.31      0.00
    7   -6    2      0.54      0.00
    7   -6    3      0.50      0.00
    7   -6    4      0.18      0.00
    7   -6    5     -0.15      0.00
    7   -6    6     -0.23      0.00
    7   -6    7     -0.09      0.00
    7   -6    8      0.07      0.00
    7   -6    9      0.21      0.00
    7   -6   10      0.34      0.00
    7   -6   11      0.35      0.00
    7   -6   12      0.14      0.00
   -7    5   10      0.37      0.00
   -7    5    9      0.28      0.00
   -7    5    8      0.15      0.00
   -7    5    7      0.27      0.00
   -7    5    6      0.42      0.00
   -7    5    5      0.25      0.00
   -7    5    4     -0.07      0.00
   -7    5    3     -0.09      0.00
   -7    5    2      0.20      0.00
   -7    5    1      0.42      0.00
   -7    5    0      0.35      0.00
    7   -5    1      0.05      0.00
    7   -5    2     -0.26      0.00
    7   -5    3     -0.39      0.00
    7   -5    4     -0.26      0.00
    7   -5    5     -0.03      0.00
    7   -5    6      0.04      0.00
    7   -5    7     -0.12      0.00
    7   -5    8     -0.37      0.00
    7   -5    9     -0.53      0.00
    7   -5   10     -0.55      0.00
    7   -5   11     -0.44      0.00
    7   -5   12     -0.23      0.00
    7   -5   13     -0.04      0.00
   -7    4   10     -0.45      0.00
   -7    4    9     -0.57      0.00
   -7    4    8     -0.41      0.00
   -7    4    7     -0.23      0.00
   -7    4    6     -0.20      0.00
   -7    4    5     -0.17      0.00
   -7    4    4     -0.09      0.00
   -7    4    3     -0.10      0.00
   -7    4    2     -0.24      0.00
   -7    4    1     -0.37      0.00
   -7    4    0     -0.37      0.00
    7   -4    1     -0.23      0.00
    7   -4    2     -0.02      0.00
    7   -4    3      0.17      0.00
    7   -4    4      0.19      0.00
    7   -4    5      0.03      0.00
    7   -4    6     -0.11      0.00
    7   -4    7     -0.03      0.00
    7   -4    8      0.21      0.00
    7   -4    9      0.45      0.00
    7   -4   10      0.54      0.00
    7   -4   11      0.43      0.00
    7   -4   12      0.22      0.00
    7   -4   13      0.10      0.00
   -7    3   10      0.10      0.00
   -7    3    9      0.40      0.00
   -7    3    8      0.48      0.00
   -7    3    7      0.27      0.00
   -7    3    6      0.03      0.00
   -7    3    5     -0.04      0.00
   -7    3    4      0.08      0.00
   -7    3    3      0.25      0.00
   -7    3    2      0.31      0.00
   -7    3    1      0.19      0.00
   -7    3    0      0.03      0.00
    7   -3    1     -0.03      0.00
    7   -3    2     -0.08      0.00
    7   -3    3     -0.16      0.00
    7   -3    4     -0.15      0.00
    7   -3    5      0.04      0.00
    7   -3    6      0.27      0.00
    7   -3    7      0.32      0.00
    7   -3    8      0.17      0.00
    7   -3    9     -0.09      0.00
    7   -3   10     -0.32      0.00
    7   -3   11     -0.37      0.00
    7   -3   12     -0.19      0.00
    7   -3   13      0.00      0.00
    7   -3   14      0.00      0.00
   -7    2   10      0.22      0.00
   -7    2    9     -0.01      0.00
   -7    2    8     -0.28      0.00
   -7    2    7     -0.29      0.00
   -7    2    6     -0.05      0.00
   -7    2    5      0.17      0.00
   -7    2    4      0.12      0.00
   -7    2    3     -0.16      0.00
   -7    2    2     -0.31      0.00
   -7    2    1     -0.13      0.00
   -7    2    0      0.18      0.00
    7   -2    1      0.35      0.00
    7   -2    2      0.36      0.00
    7   -2    3      0.36      0.00
    7   -2    4      0.28      0.00
    7   -2    5      0.03      0.00
    7   -2    6     -0.24      0.00
    7   -2    7     -0.31      0.00
    7   -2    8     -0.23      0.00
    7   -2    9     -0.12      0.00
    7   -2   10      0.06      0.00
    7   -2   11      0.26      0.00
    7   -2   12      0.23      0.00
    7   -2   13     -0.06      0.00
    7   -2   14     -0.27      0.00
   -7    1   10     -0.14      0.00
   -7    1    9     -0.11      0.00
   -7    1    8      0.09      0.00
   -7    1    7      0.25      0.00
   -7    1    6      0.19      0.00
   -7    1    5     -0.05      0.00
   -7    1    4     -0.21      0.00
   -7    1    3     -0.12      0.00
   -7    1    2      0.09      0.00
   -7    1    1      0.11      0.00
   -7    1    0     -0.11      0.00
    7   -1    1     -0.33      0.00
    7   -1    2     -0.42      0.00
    7   -1    3     -0.45      0.00
    7   -1    4     -0.37      0.00
    7   -1    5     -0.15      0.00
    7   -1    6      0.03      0.00
    7   -1    7     -0.02      0.00
    7   -1    8     -0.14      0.00
    7   -1    9     -0.05      0.00
    7   -1   10      0.08      0.00
    7   -1   11     -0.05      0.00
    7   -1   12     -0.24      0.00
    7   -1   13     -0.08      0.00
    7   -1   14      0.29      0.00
    7   -1   15      0.36      0.00
   -7    0   10     -0.12      0.00
   -7    0    9     -0.09      0.00
   -7    0    8     -0.06      0.00
   -7    0    7     -0.10      0.00
   -7    0    6     -0.19      0.00
   -7    0    5     -0.17      0.00
   -7    0    4      0.02      0.00
   -7    0    3      0.22      0.00
   -7    0    2      0.19      0.00
   -7    0    1      0.04      0.00
    7    0    0      0.02      0.00
    7    0    1      0.14      0.00
    7    0    2      0.26      0.00
    7    0    3      0.29      0.00
    7    0    4      0.22      0.00
    7    0    5      0.07      0.00
    7    0    6      0.03      0.00
    7    0    7      0.28      0.00
    7    0    8      0.53      0.00
    7    0    9      0.35      0.00
    7    0   10     -0.13      0.00
    7    0   11     -0.26      0.00
    7    0   12      0.08      0.00
    7    0   13      0.29      0.00
    7    0   14      0.06      0.00
    7    0   15     -0.17      0.00
   -7   -1   10      0.20      0.00
   -7   -1    9      0.23      0.00
   -7   -1    8      0.10      0.00
   -7   -1    7     -0.10      0.00
   -7   -1    6     -0.10      0.00
   -7   -1    5      0.12      0.00
   -7   -1    4      0.21      0.00
   -7   -1    3     -0.01      0.00
   -7   -1    2     -0.23      0.00
   -7   -1    1     -0.19      0.00
    7    1    0     -0.07      0.00
    7    1    1     -0.10      0.00
    7    1    2     -0.18      0.00
    7    1    3     -0.12      0.00
    7    1    4      0.07      0.00
    7    1    5      0.20      0.00
    7    1    6      0.11      0.00
    7    1    7     -0.25      0.00
    7    1    8     -0.60      0.00
    7    1    9     -0.46      0.00
    7    1   10      0.14      0.00
    7    1   11      0.51      0.00
    7    1   12      0.20      0.00
    7    1   13     -0.34      0.00
    7    1   14     -0.43      0.00
    7    1   15     -0.21      0.00
   -7   -2    9     -0.07      0.00
   -7   -2    8     -0.02      0.00
   -7   -2    7      0.23      0.00
   -7   -2    6      0.39      0.00
   -7   -2    5      0.16      0.00
   -7   -2    4     -0.19      0.00
   -7   -2    3     -0.19      0.00
   -7   -2    2      0.09      0.00
   -7   -2    1      0.22      0.00
    7    2    0      0.15      0.00
    7    2    1      0.17      0.00
    7    2    2      0.26      0.00
    7    2    3      0.13      0.00
    7    2    4     -0.21      0.00
    7    2    5     -0.37      0.00
    7    2    6     -0.17      0.00
    7    2    7      0.22      0.00
    7    2    8      0.50      0.00
    7    2    9      0.38      0.00
    7    2   10     -0.10      0.00
    7    2   11     -0.48      0.00
    7    2   12     -0.30      0.00
    7    2   13      0.25      0.00
    7    2   14      0.54      0.00
    7    2   15      0.40      0.00
    7    2   16      0.25      0.00
   -7   -3    9     -0.25      0.00
   -7   -3    8     -0.21      0.00
   -7   -3    7     -0.22      0.00
   -7   -3    6     -0.34      0.00
   -7   -3    5     -0.26      0.00
   -7   -3    4      0.05      0.00
   -7   -3    3      0.17      0.00
   -7   -3    2     -0.04      0.00
   -7   -3    1     -0.22      0.00
    7    3    0     -0.21      0.00
    7    3    1     -0.23      0.00
    7    3    2     -0.33      0.00
    7    3    3     -0.22      0.00
    7    3    4      0.15      0.00
    7    3    5      0.31      0.00
    7    3    6      0.00      0.00
    7    3    7     -0.40      0.00
    7    3    8     -0.49      0.00
    7    3    9     -0.25      0.00
    7    3   10      0.06      0.00
    7    3   11      0.23      0.00
    7    3   12      0.11      0.00
    7    3   13     -0.20      0.00
    7    3   14     -0.40      0.00
    7    3   15     -0.32      0.00
    7    3   16     -0.16      0.00
   -7   -4    9      0.36      0.00
   -7   -4    8      0.38      0.00
   -7   -4    7      0.15      0.00
   -7   -4    6      0.03      0.00
   -7   -4    5      0.00      0.00
   -7   -4    4     -0.08      0.00
   -7   -4    3     -0.11      0.00
   -7   -4    2      0.08      0.00
   -7   -4    1      0.28      0.00
    7    4    0      0.26      0.00
    7    4    1      0.22      0.00
    7    4    2      0.28      0.00
    7    4    3      0.23      0.00
    7    4    4     -0.06      0.00
    7    4    5     -0.17      0.00
    7    4    6      0.18      0.00
    7    4    7      0.58      0.00
    7    4    8      0.49      0.00
    7    4    9      0.05      0.00
    7    4   10     -0.22      0.00
    7    4   11     -0.12      0.00
    7    4   12      0.09      0.00
    7    4   13      0.20      0.00
    7    4   14      0.21      0.00
    7    4   15      0.14      0.00
    7    4   16      0.08      0.00
   -7   -5    8     -0.25      0.00
   -7   -5    7     -0.05      0.00
   -7   -5    6      0.22      0.00
   -7   -5    5      0.29      0.00
   -7   -5    4      0.24      0.00
   -7   -5    3      0.14      0.00
   -7   -5    2     -0.04      0.00
   -7   -5    1     -0.22      0.00
    7    5    0     -0.22      0.00
    7    5    1     -0.11      0.00
    7    5    2     -0.10      0.00
    7    5    3     -0.11      0.00
    7    5    4      0.02      0.00
    7    5    5      0.08      0.00
    7    5    6     -0.19      0.00
    7    5    7     -0.50      0.00
    7    5    8     -0.32      0.00
    7    5    9      0.25      0.00
    7    5   10      0.56      0.00
    7    5   11      0.33      0.00
    7    5   12     -0.03      0.00
    7    5   13     -0.12      0.00
    7    5   14     -0.01      0.00
    7    5   15      0.03      0.00
    7    5   16     -0.04      0.00
   -7   -6    7     -0.12      0.00
   -7   -6    6     -0.29      0.00
   -7   -6    5     -0.35      0.00
   -7   -6    4     -0.26      0.00
   -7   -6    3     -0.16      0.00
   -7   -6    2     -0.07      0.00
   -7   -6    1      0.02      0.00
    7    6    0      0.03      0.00
    7    6    1     -0.09      0.00
    7    6    2     -0.16      0.00
    7    6    3     -0.12      0.00
    7    6    4     -0.08      0.00
    7    6    5     -0.04      0.00
    7    6    6      0.12      0.00
    7    6    7      0.27      0.00
    7    6    8      0.08      0.00
    7    6    9     -0.41      0.00
    7    6   10     -0.70      0.00
    7    6   11     -0.51      0.00
    7    6   12     -0.15      0.00
    7    6   13     -0.02      0.00
    7    6   14     -0.10      0.00
    7    6   15     -0.14      0.00
    7    6   16     -0.04      0.00
   -7   -7    7      0.23      0.00
   -7   -7    6      0.26      0.00
   -7   -7    5      0.24      0.00
   -7   -7    4      0.13      0.00
   -7   -7    3      0.06      0.00
   -7   -7    2      0.07      0.00
   -7   -7    1      0.09      0.00
    7    7    0      0.10      0.00
    7    7    1      0.19      0.00
    7    7    2      0.32      0.00
    7    7    3      0.31      0.00
    7    7    4      0.17      0.00
    7    7    5      0.02      0.00
    7    7    6     -0.07      0.00
    7    7    7     -0.07      0.00
    7    7    8      0.05      0.00
    7    7    9      0.27      0.00
    7    7   10      0.38      0.00
    7    7   11      0.27      0.00
    7    7   12      0.10      0.00
    7    7   13      0.03      0.00
    7    7   14      0.06      0.00
    7    7   15      0.09      0.00
    7    7   16      0.10      0.00
   -7   -8    6     -0.13      0.00
   -7   -8    5     -0.12      0.00
   -7   -8    4     -0.02      0.00
   -7   -8    3      0.07      0.00
   -7   -8    2      0.07      0.00
   -7   -8    1      0.04      0.00
    7    8    0      0.04      0.00
    7    8    1     -0.03      0.00
    7    8    2     -0.20      0.00
    7    8    3     -0.28      0.00
    7    8    4     -0.16      0.00
    7    8    5      0.02      0.00
    7    8    6      0.06      0.00
    7    8    7     -0.04      0.00
    7    8    8     -0.12      0.00
    7    8    9     -0.08      0.00
    7    8   10      0.05      0.00
    7    8   11      0.14      0.00
    7    8   12      0.10      0.00
    7    8   13      0.01      0.00
    7    8   14      0.02      0.00
    7    8   15      0.04      0.00
   -7   -9    5      0.09      0.00
   -7   -9    4      0.04      0.00
   -7   -9    3     -0.13      0.00
   -7   -9    2     -0.25      0.00
   -7   -9    1     -0.31      0.00
    7    9    0     -0.32      0.00
    7    9    1     -0.25      0.00
    7    9    2     -0.07      0.00
    7    9    3      0.05      0.00
    7    9    4     -0.01      0.00
    7    9    5     -0.14      0.00
    7    9    6     -0.10      0.00
    7    9    7      0.10      0.00
    7    9    8      0.23      0.00
    7    9    9      0.12      0.00
    7    9   10     -0.10      0.00
    7    9   11     -0.18      0.00
    7    9   12     -0.02      0.00
    7    9   13      0.17      0.00
    7    9   14      0.15      0.00
    7    9   15      0.02      0.00
   -7  -10    4     -0.17      0.00
   -7  -10    3      0.07      0.00
   -7  -10    2      0.35      0.00
   -7  -10    1      0.49      0.00
    7   10    0      0.49      0.00
    7   10    1      0.36      0.00
    7   10    2      0.19      0.00
    7   10    3      0.10      0.00
    7   10    4      0.19      0.00
    7   10    5      0.28      0.00
    7   10    6      0.18      0.00
    7   10    7     -0.08      0.00
    7   10    8     -0.25      0.00
    7   10    9     -0.21      0.00
    7   10   10     -0.10      0.00
    7   10   11     -0.13      0.00
    7   10   12     -0.34      0.00
    7   10   13     -0.52      0.00
    7   10   14     -0.49      0.00
   -7  -11    3      0.08      0.00
   -7  -11    2     -0.26      0.00
   -7  -11    1     -0.44      0.00
    7   11    0     -0.39      0.00
    7   11    1     -0.20      0.00
    7   11    2     -0.05      0.00
    7   11    3     -0.07      0.00
    7   11    4     -0.25      0.00
    7   11    5     -0.37      0.00
    7   11    6     -0.22      0.00
    7   11    7      0.04      0.00
    7   11    8      0.14      0.00
    7   11    9      0.07      0.00
    7   11   10      0.08      0.00
    7   11   11      0.26      0.00
    7   11   12      0.49      0.00
    7   11   13      0.59      0.00
    7   11   14      0.55      0.00
   -7  -12    1      0.16      0.00
    7   12    0      0.07      0.00
    7   12    1     -0.09      0.00
    7   12    2     -0.15      0.00
    7   12    3      0.00      0.00
    7   12    4      0.26      0.00
    7   12    5      0.39      0.00
    7   12    6      0.20      0.00
    7   12    7     -0.10      0.00
    7   12    8     -0.13      0.00
    7   12    9      0.08      0.00
    7   12   10      0.16      0.00
    7   12   11     -0.05      0.00
    7   12   12     -0.26      0.00
    7   12   13     -0.24      0.00
    7   13    0      0.24      0.00
    7   13    1      0.31      0.00
    7   13    2      0.22      0.00
    7   13    3     -0.02      0.00
    7   13    4     -0.27      0.00
    7   13    5     -0.35      0.00
    7   13    6     -0.11      0.00
    7   13    7      0.24      0.00
    7   13    8      0.31      0.00
    7   13    9      0.03      0.00
    7   13   10     -0.20      0.00
    7   13   11     -0.12      0.00
    7   13   12      0.02      0.00
    7   14    3      0.14      0.00
    7   14    4      0.27      0.00
    7   14    5      0.21      0.00
    7   14    6     -0.03      0.00
    7   14    7     -0.34      0.00
    7   14    8     -0.44      0.00
    7   14    9     -0.24      0.00
    7   14   10      0.02      0.00
   -8   12    2      0.10      0.00
   -8   12    1      0.16      0.00
   -8   12    0      0.06      0.00
    8  -12    1     -0.04      0.00
    8  -12    2      0.04      0.00
   -8   11    5     -0.20      0.00
   -8   11    4     -0.24      0.00
   -8   11    3     -0.16      0.00
   -8   11    2     -0.15      0.00
   -8   11    1     -0.14      0.00
   -8   11    0      0.05      0.00
    8  -11    1      0.29      0.00
    8  -11    2      0.26      0.00
    8  -11    3      0.00      0.00
    8  -11    4     -0.14      0.00
    8  -11    5     -0.10      0.00
   -8   10    6      0.05      0.00
   -8   10    5      0.29      0.00
   -8   10    4      0.43      0.00
   -8   10    3      0.36      0.00
   -8   10    2      0.29      0.00
   -8   10    1      0.29      0.00
   -8   10    0      0.16      0.00
    8  -10    1     -0.13      0.00
    8  -10    2     -0.27      0.00
    8  -10    3     -0.11      0.00
    8  -10    4      0.07      0.00
    8  -10    5      0.02      0.00
    8  -10    6     -0.06      0.00
    8  -10    7     -0.04      0.00
   -8    9    7     -0.05      0.00
   -8    9    6     -0.06      0.00
   -8    9    5     -0.13      0.00
   -8    9    4     -0.24      0.00
   -8    9    3     -0.28      0.00
   -8    9    2     -0.27      0.00
   -8    9    0     -0.39      0.00
    8   -9    1     -0.27      0.00
    8   -9    2     -0.06      0.00
    8   -9    3      0.00      0.00
    8   -9    4     -0.03      0.00
    8   -9    5      0.07      0.00
    8   -9    6      0.26      0.00
    8   -9    7      0.31      0.00
    8   -9    8      0.28      0.00
   -8    8    8      0.13      0.00
   -8    8    7      0.35      0.00
   -8    8    6      0.28      0.00
   -8    8    5      0.01      0.00
   -8    8    3     -0.09      0.00
   -8    8    2     -0.02      0.00
   -8    8    1      0.05      0.00
   -8    8    0      0.18      0.00
    8   -8    1      0.26      0.00
    8   -8    2      0.20      0.00
    8   -8    3      0.12      0.00
    8   -8    4      0.09      0.00
    8   -8    5     -0.02      0.00
    8   -8    6     -0.22      0.00
    8   -8    7     -0.31      0.00
    8   -8    8     -0.21      0.00
    8   -8    9     -0.11      0.00
    8   -8   10     -0.10      0.00
   -8    7    8     -0.07      0.00
   -8    7    7     -0.54      0.00
   -8    7    6     -0.61      0.00
   -8    7    5     -0.16      0.00
   -8    7    4      0.30      0.00
   -8    7    3      0.38      0.00
   -8    7    2      0.28      0.00
   -8    7    1      0.27      0.00
   -8    7    0      0.29      0.00
    8   -7    1      0.23      0.00
    8   -7    2      0.15      0.00
    8   -7    3      0.07      0.00
    8   -7    4     -0.02      0.00
    8   -7    5     -0.05      0.00
    8   -7    6      0.05      0.00
    8   -7    7      0.14      0.00
    8   -7    8      0.04      0.00
    8   -7    9     -0.14      0.00
    8   -7   10     -0.18      0.00
    8   -7   11     -0.08      0.00
   -8    6    9     -0.31      0.00
   -8    6    8     -0.06      0.00
   -8    6    7      0.46      0.00
   -8    6    6      0.72      0.00
   -8    6    5      0.37      0.00
   -8    6    4     -0.18      0.00
   -8    6    3     -0.38      0.00
   -8    6    2     -0.27      0.00
   -8    6    1     -0.25      0.00
   -8    6    0     -0.40      0.00
    8   -6    1     -0.52      0.00
    8   -6    2     -0.51      0.00
    8   -6    3     -0.39      0.00
    8   -6    4     -0.22      0.00
    8   -6    5     -0.07      0.00
    8   -6    6     -0.06      0.00
    8   -6    7     -0.15      0.00
    8   -6    8     -0.12      0.00
    8   -6    9      0.04      0.00
    8   -6   10      0.14      0.00
    8   -6   11      0.05      0.00
    8   -6   12     -0.07      0.00
   -8    5    9      0.05      0.00
   -8    5    8     -0.15      0.00
   -8    5    7     -0.39      0.00
   -8    5    6     -0.54      0.00
   -8    5    5     -0.36      0.00
   -8    5    4      0.01      0.00
   -8    5    3      0.17      0.00
   -8    5    2      0.06      0.00
   -8    5    1     -0.02      0.00
   -8    5    0      0.11      0.00
    8   -5    1      0.28      0.00
    8   -5    2      0.36      0.00
    8   -5    3      0.38      0.00
    8   -5    4      0.35      0.00
    8   -5    5      0.29      0.00
    8   -5    6      0.28      0.00
    8   -5    7      0.35      0.00
    8   -5    8      0.39      0.00
    8   -5    9      0.33      0.00
    8   -5   10      0.24      0.00
    8   -5   11      0.21      0.00
    8   -5   12      0.20      0.00
   -8    4    9      0.35      0.00
   -8    4    8      0.60      0.00
   -8    4    7      0.53      0.00
   -8    4    6      0.32      0.00
   -8    4    5      0.14      0.00
   -8    4    4      0.05      0.00
   -8    4    3      0.08      0.00
   -8    4    2      0.18      0.00
   -8    4    1      0.19      0.00
   -8    4    0      0.11      0.00
    8   -4    1      0.03      0.00
    8   -4    2      0.01      0.00
    8   -4    3     -0.05      0.00
    8   -4    4     -0.19      0.00
    8   -4    5     -0.33      0.00
    8   -4    6     -0.40      0.00
    8   -4    7     -0.42      0.00
    8   -4    8     -0.43      0.00
    8   -4    9     -0.46      0.00
    8   -4   10     -0.50      0.00
    8   -4   11     -0.45      0.00
    8   -4   12     -0.24      0.00
    8   -4   13      0.02      0.00
   -8    3    9     -0.40      0.00
   -8    3    8     -0.72      0.00
   -8    3    7     -0.58      0.00
   -8    3    6     -0.14      0.00
   -8    3    5      0.11      0.00
   -8    3    4      0.01      0.00
   -8    3    3     -0.26      0.00
   -8    3    2     -0.40      0.00
   -8    3    1     -0.29      0.00
   -8    3    0     -0.06      0.00
    8   -3    1      0.04      0.00
    8   -3    2     -0.03      0.00
    8   -3    3     -0.10      0.00
    8   -3    4     -0.01      0.00
    8   -3    5      0.13      0.00
    8   -3    6      0.18      0.00
    8   -3    7      0.12      0.00
    8   -3    8      0.03      0.00
    8   -3    9      0.08      0.00
    8   -3   10      0.31      0.00
    8   -3   11      0.44      0.00
    8   -3   12      0.19      0.00
    8   -3   13     -0.25      0.00
    8   -3   14     -0.39      0.00
   -8    2    9      0.08      0.00
   -8    2    8      0.30      0.00
   -8    2    7      0.27      0.00
   -8    2    6     -0.04      0.00
   -8    2    5     -0.25      0.00
   -8    2    4     -0.12      0.00
   -8    2    3      0.24      0.00
   -8    2    2      0.50      0.00
   -8    2    1      0.43      0.00
   -8    2    0      0.08      0.00
    8   -2    1     -0.21      0.00
    8   -2    2     -0.25      0.00
    8   -2    3     -0.13      0.00
    8   -2    4     -0.02      0.00
    8   -2    5      0.05      0.00
    8   -2    6      0.16      0.00
    8   -2    7      0.33      0.00
    8   -2    8      0.46      0.00
    8   -2    9      0.41      0.00
    8   -2   10      0.09      0.00
    8   -2   11     -0.26      0.00
    8   -2   12     -0.19      0.00
    8   -2   13      0.30      0.00
    8   -2   14      0.59      0.00
   -8    1    9      0.18      0.00
   -8    1    8      0.18      0.00
   -8    1    7      0.16      0.00
   -8    1    6      0.18      0.00
   -8    1    5      0.16      0.00
   -8    1    4      0.05      0.00
   -8    1    3     -0.14      0.00
   -8    1    2     -0.37      0.00
   -8    1    1     -0.48      0.00
   -8    1    0     -0.31      0.00
    8   -1    1      0.04      0.00
    8   -1    2      0.29      0.00
    8   -1    3      0.31      0.00
    8   -1    4      0.17      0.00
    8   -1    5     -0.07      0.00
    8   -1    6     -0.34      0.00
    8   -1    7     -0.54      0.00
    8   -1    8     -0.58      0.00
    8   -1    9     -0.47      0.00
    8   -1   10     -0.19      0.00
    8   -1   11      0.18      0.00
    8   -1   12      0.30      0.00
    8   -1   13      0.00      0.00
    8   -1   14     -0.37      0.00
    8   -1   15     -0.32      0.00
   -8    0    9     -0.13      0.00
   -8    0    8     -0.21      0.00
   -8    0    7     -0.27      0.00
   -8    0    6     -0.17      0.00
   -8    0    5      0.08      0.00
   -8    0    4      0.24      0.00
   -8    0    3      0.20      0.00
   -8    0    2      0.19      0.00
   -8    0    1      0.36      0.00
    8    0    0      0.47      0.00
    8    0    1      0.31      0.00
    8    0    2      0.00      0.00
    8    0    3     -0.18      0.00
    8    0    4     -0.14      0.00
    8    0    5      0.06      0.00
    8    0    6      0.32      0.00
    8    0    7      0.46      0.00
    8    0    8      0.34      0.00
    8    0    9      0.09      0.00
    8    0   10     -0.10      0.00
    8    0   11     -0.23      0.00
    8    0   12     -0.35      0.00
    8    0   13     -0.33      0.00
    8    0   14     -0.15      0.00
    8    0   15     -0.04      0.00
   -8   -1    9     -0.07      0.00
   -8   -1    8     -0.16      0.00
   -8   -1    7     -0.04      0.00
   -8   -1    6      0.03      0.00
   -8   -1    5     -0.19      0.00
   -8   -1    4     -0.46      0.00
   -8   -1    3     -0.41      0.00
   -8   -1    2     -0.20      0.00
   -8   -1    1     -0.23      0.00
    8    1    0     -0.43      0.00
    8    1    1     -0.44      0.00
    8    1    2     -0.22      0.00
    8    1    3     -0.05      0.00
    8    1    4     -0.04      0.00
    8    1    5     -0.10      0.00
    8    1    6     -0.20      0.00
    8    1    7     -0.24      0.00
    8    1    8     -0.06      0.00
    8    1    9      0.26      0.00
    8    1   10      0.39      0.00
    8    1   11      0.25      0.00
    8    1   12      0.15      0.00
    8    1   13      0.31      0.00
    8    1   14      0.49      0.00
    8    1   15      0.47      0.00
   -8   -2    7      0.45      0.00
   -8   -2    6      0.18      0.00
   -8   -2    5      0.09      0.00
   -8   -2    4      0.29      0.00
   -8   -2    3      0.39      0.00
   -8   -2    2      0.27      0.00
   -8   -2    1      0.21      0.00
    8    2    0      0.31      0.00
    8    2    1      0.32      0.00
    8    2    2      0.14      0.00
    8    2    3      0.04      0.00
    8    2    4      0.11      0.00
    8    2    5      0.14      0.00
    8    2    6      0.04      0.00
    8    2    7     -0.05      0.00
    8    2    8     -0.15      0.00
    8    2    9     -0.35      0.00
    8    2   10     -0.44      0.00
    8    2   11     -0.19      0.00
    8    2   12      0.12      0.00
    8    2   13      0.01      0.00
    8    2   14     -0.38      0.00
    8    2   15     -0.56      0.00
   -8   -3    8     -0.40      0.00
   -8   -3    7     -0.57      0.00
   -8   -3    6     -0.35      0.00
   -8   -3    5     -0.02      0.00
   -8   -3    4      0.03      0.00
   -8   -3    3     -0.10      0.00
   -8   -3    2     -0.16      0.00
   -8   -3    1     -0.16      0.00
    8    3    0     -0.20      0.00
    8    3    1     -0.13      0.00
    8    3    2      0.09      0.00
    8    3    3      0.18      0.00
    8    3    4      0.01      0.00
    8    3    5     -0.08      0.00
    8    3    6      0.13      0.00
    8    3    7      0.37      0.00
    8    3    8      0.40      0.00
    8    3    9      0.36      0.00
    8    3   10      0.35      0.00
    8    3   11      0.18      0.00
    8    3   12     -0.11      0.00
    8    3   13     -0.14      0.00
    8    3   14      0.17      0.00
    8    3   15      0.41      0.00
    8    3   16      0.24      0.00
   -8   -4    8      0.10      0.00
   -8   -4    7      0.29      0.00
   -8   -4    6      0.32      0.00
   -8   -4    5      0.09      0.00
   -8   -4    4     -0.10      0.00
   -8   -4    3     -0.09      0.00
   -8   -4    2      0.00      0.00
   -8   -4    1      0.05      0.00
    8    4    0      0.07      0.00
    8    4    1      0.00      0.00
    8    4    2     -0.21      0.00
    8    4    3     -0.34      0.00
    8    4    4     -0.20      0.00
    8    4    5     -0.04      0.00
    8    4    6     -0.22      0.00
    8    4    7     -0.56      0.00
    8    4    8     -0.61      0.00
    8    4    9     -0.39      0.00
    8    4   10     -0.23      0.00
    8    4   11     -0.20      0.00
    8    4   12     -0.15      0.00
    8    4   13     -0.14      0.00
    8    4   14     -0.27      0.00
    8    4   15     -0.37      0.00
    8    4   16     -0.21      0.00
   -8   -5    7      0.07      0.00
   -8   -5    6     -0.09      0.00
   -8   -5    5     -0.13      0.00
   -8   -5    4     -0.03      0.00
   -8   -5    3      0.02      0.00
   -8   -5    2      0.00      0.00
   -8   -5    1     -0.01      0.00
    8    5    0      0.01      0.00
    8    5    1      0.03      0.00
    8    5    2      0.13      0.00
    8    5    3      0.25      0.00
    8    5    4      0.22      0.00
    8    5    5      0.10      0.00
    8    5    6      0.18      0.00
    8    5    8      0.57      0.00
    8    5    9      0.30      0.00
    8    5   10      0.00      0.00
    8    5   11      0.00      0.00
    8    5   12      0.22      0.00
    8    5   13      0.43      0.00
    8    5   14      0.56      0.00
    8    5   15      0.54      0.00
    8    5   16      0.36      0.00
   -8   -6    7     -0.15      0.00
   -8   -6    6     -0.08      0.00
   -8   -6    5      0.07      0.00
   -8   -6    4      0.09      0.00
   -8   -6    3      0.08      0.00
   -8   -6    2      0.10      0.00
   -8   -6    1      0.07      0.00
    8    6    0     -0.01      0.00
    8    6    1     -0.03      0.00
    8    6    2      0.04      0.00
    8    6    3      0.05      0.00
    8    6    4      0.02      0.00
    8    6    5      0.03      0.00
    8    6    6     -0.01      0.00
    8    6    7     -0.16      0.00
    8    6    8     -0.25      0.00
    8    6    9     -0.05      0.00
    8    6   10      0.28      0.00
    8    6   11      0.37      0.00
    8    6   12      0.08      0.00
    8    6   14     -0.61      0.00
    8    6   15     -0.61      0.00
    8    6   16     -0.45      0.00
   -8   -7    6      0.05      0.00
   -8   -7    5     -0.03      0.00
   -8   -7    4     -0.04      0.00
   -8   -7    3     -0.04      0.00
   -8   -7    2     -0.12      0.00
   -8   -7    1     -0.14      0.00
    8    7    0     -0.01      0.00
    8    7    1      0.08      0.00
    8    7    2     -0.04      0.00
    8    7    3     -0.24      0.00
    8    7    4     -0.30      0.00
    8    7    5     -0.24      0.00
    8    7    6     -0.19      0.00
    8    7    7     -0.13      0.00
    8    7    8     -0.09      0.00
    8    7    9     -0.17      0.00
    8    7   10     -0.39      0.00
    8    7   11     -0.52      0.00
    8    7   12     -0.34      0.00
    8    7   13      0.05      0.00
    8    7   14      0.37      0.00
    8    7   15      0.43      0.00
   -8   -8    5      0.06      0.00
   -8   -8    4      0.02      0.00
   -8   -8    3     -0.02      0.00
   -8   -8    2      0.08      0.00
   -8   -8    1      0.19      0.00
    8    8    0      0.07      0.00
    8    8    1     -0.14      0.00
    8    8    2     -0.14      0.00
    8    8    3      0.10      0.00
    8    8    4      0.27      0.00
    8    8    5      0.25      0.00
    8    8    6      0.20      0.00
    8    8    7      0.20      0.00
    8    8    8      0.21      0.00
    8    8    9      0.22      0.00
    8    8   10      0.27      0.00
    8    8   11      0.31      0.00
    8    8   12      0.24      0.00
    8    8   13      0.05      0.00
    8    8   14     -0.13      0.00
    8    8   15     -0.16      0.00
   -8   -9    4     -0.06      0.00
   -8   -9    3      0.01      0.00
   -8   -9    2     -0.07      0.00
   -8   -9    1     -0.23      0.00
    8    9    0     -0.20      0.00
    8    9    1      0.04      0.00
    8    9    2      0.21      0.00
    8    9    3      0.13      0.00
    8    9    4      0.00      0.00
    8    9    5     -0.02      0.00
    8    9    6      0.00      0.00
    8    9    7     -0.04      0.00
    8    9    8     -0.12      0.00
    8    9    9     -0.16      0.00
    8    9   10     -0.14      0.00
    8    9   11     -0.09      0.00
    8    9   12     -0.01      0.00
    8    9   13      0.04      0.00
    8    9   14      0.03      0.00
    8    9   15     -0.05      0.00
   -8  -10    3      0.05      0.00
   -8  -10    2      0.04      0.00
   -8  -10    1      0.15      0.00
    8   10    0      0.22      0.00
    8   10    1      0.12      0.00
    8   10    2     -0.03      0.00
    8   10    3     -0.09      0.00
    8   10    4     -0.10      0.00
    8   10    5     -0.13      0.00
    8   10    6     -0.13      0.00
    8   10    7     -0.05      0.00
    8   10    8      0.05      0.00
    8   10    9      0.13      0.00
    8   10   10      0.17      0.00
    8   10   11      0.13      0.00
    8   10   12      0.02      0.00
    8   10   13     -0.02      0.00
    8   10   14      0.07      0.00
   -8  -11    2      0.00      0.00
   -8  -11    1      0.03      0.00
    8   11    0     -0.03      0.00
    8   11    1     -0.08      0.00
    8   11    2     -0.11      0.00
    8   11    3     -0.11      0.00
    8   11    4     -0.05      0.00
    8   11    5      0.03      0.00
    8   11    6      0.02      0.00
    8   11    7     -0.09      0.00
    8   11    8     -0.18      0.00
    8   11    9     -0.21      0.00
    8   11   10     -0.24      0.00
    8   11   11     -0.26      0.00
    8   11   12     -0.20      0.00
    8   11   13     -0.11      0.00
    8   12    0     -0.15      0.00
    8   12    1     -0.10      0.00
    8   12    2      0.01      0.00
    8   12    3      0.11      0.00
    8   12    4      0.12      0.00
    8   12    5      0.05      0.00
    8   12    6      0.08      0.00
    8   12    7      0.23      0.00
    8   12    8      0.33      0.00
    8   12    9      0.27      0.00
    8   12   10      0.19      0.00
    8   12   11      0.20      0.00
    8   12   12      0.21      0.00
    8   13    2      0.08      0.00
    8   13    3      0.02      0.00
    8   13    4      0.00      0.00
    8   13    5      0.05      0.00
    8   13    6      0.07      0.00
    8   13    7     -0.04      0.00
    8   13    8     -0.17      0.00
    8   13    9     -0.14      0.00
    8   13   10     -0.02      0.00
    8   13   11      0.01      0.00
    8   14    5     -0.06      0.00
    8   14    6     -0.17      0.00
    8   14    7     -0.23      0.00
    8   14    8     -0.18      0.00
   -9   11    2     -0.03      0.00
   -9   11    1     -0.13      0.00
   -9   11    0     -0.16      0.00
    9  -11    1     -0.11      0.00
    9  -11    2      0.08      0.00
    9  -11    3      0.31      0.00
   -9   10    4     -0.36      0.00
   -9   10    3     -0.29      0.00
   -9   10    2     -0.05      0.00
   -9   10    1      0.16      0.00
   -9   10    0      0.22      0.00
    9  -10    2      0.17      0.00
    9  -10    3      0.01      0.00
    9  -10    4     -0.15      0.00
    9  -10    5     -0.16      0.00
    9  -10    6     -0.09      0.00
   -9    9    6      0.34      0.00
   -9    9    5      0.19      0.00
   -9    9    4      0.19      0.00
   -9    9    3      0.22      0.00
   -9    9    2      0.09      0.00
   -9    9    1     -0.07      0.00
   -9    9    0     -0.06      0.00
    9   -9    1      0.01      0.00
    9   -9    2     -0.04      0.00
    9   -9    3     -0.10      0.00
    9   -9    4     -0.07      0.00
    9   -9    5     -0.03      0.00
    9   -9    6     -0.07      0.00
    9   -9    7     -0.05      0.00
    9   -9    8      0.07      0.00
   -9    8    6     -0.40      0.00
   -9    8    5     -0.05      0.00
   -9    8    4      0.13      0.00
   -9    8    3      0.07      0.00
   -9    8    2      0.04      0.00
   -9    8    1      0.07      0.00
   -9    8    0     -0.03      0.00
    9   -8    1     -0.23      0.00
    9   -8    2     -0.27      0.00
    9   -8    3     -0.11      0.00
    9   -8    4      0.03      0.00
    9   -8    5      0.09      0.00
    9   -8    6      0.15      0.00
    9   -8    7      0.17      0.00
    9   -8    8     -0.01      0.00
    9   -8    9     -0.24      0.00
   -9    7    7      0.42      0.00
   -9    7    6      0.39      0.00
   -9    7    5      0.08      0.00
   -9    7    4     -0.21      0.00
   -9    7    3     -0.23      0.00
   -9    7    2     -0.13      0.00
   -9    7    1     -0.12      0.00
   -9    7    0     -0.07      0.00
    9   -7    1      0.12      0.00
    9   -7    2      0.28      0.00
    9   -7    3      0.23      0.00
    9   -7    4      0.12      0.00
    9   -7    5      0.06      0.00
    9   -7    6      0.00      0.00
    9   -7    7     -0.05      0.00
    9   -7    8      0.07      0.00
    9   -7    9      0.34      0.00
    9   -7   10      0.45      0.00
   -9    6    8     -0.16      0.00
   -9    6    7     -0.14      0.00
   -9    6    6     -0.19      0.00
   -9    6    5     -0.13      0.00
   -9    6    4      0.03      0.00
   -9    6    3      0.09      0.00
   -9    6    2      0.03      0.00
   -9    6    1      0.03      0.00
   -9    6    0      0.11      0.00
    9   -6    1      0.09      0.00
    9   -6    2     -0.01      0.00
    9   -6    3     -0.07      0.00
    9   -6    4     -0.09      0.00
    9   -6    5     -0.14      0.00
    9   -6    6     -0.18      0.00
    9   -6    7     -0.15      0.00
    9   -6    8     -0.17      0.00
    9   -6    9     -0.32      0.00
    9   -6   10     -0.40      0.00
    9   -6   11     -0.24      0.00
   -9    5    8      0.23      0.00
   -9    5    7      0.05      0.00
   -9    5    6     -0.01      0.00
   -9    5    5      0.07      0.00
   -9    5    4      0.12      0.00
   -9    5    3      0.10      0.00
   -9    5    2      0.10      0.00
   -9    5    1      0.07      0.00
   -9    5    0     -0.05      0.00
    9   -5    1     -0.14      0.00
    9   -5    2     -0.12      0.00
    9   -5    3     -0.07      0.00
    9   -5    4     -0.04      0.00
    9   -5    5      0.00      0.00
    9   -5    6      0.08      0.00
    9   -5    7      0.12      0.00
    9   -5    8      0.12      0.00
    9   -5    9      0.14      0.00
    9   -5   10      0.14      0.00
    9   -5   11      0.06      0.00
    9   -5   12     -0.07      0.00
   -9    4    8     -0.45      0.00
   -9    4    7     -0.29      0.00
   -9    4    6     -0.06      0.00
   -9    4    5     -0.05      0.00
   -9    4    4     -0.17      0.00
   -9    4    3     -0.22      0.00
   -9    4    2     -0.17      0.00
   -9    4    1     -0.07      0.00
   -9    4    0      0.07      0.00
    9   -4    1      0.14      0.00
    9   -4    2      0.07      0.00
    9   -4    3     -0.02      0.00
    9   -4    4      0.02      0.00
    9   -4    5      0.16      0.00
    9   -4    6      0.24      0.00
    9   -4    7      0.19      0.00
    9   -4    8      0.09      0.00
    9   -4    9      0.03      0.00
    9   -4   10      0.04      0.00
    9   -4   11      0.06      0.00
    9   -4   12      0.00      0.00
    9   -4   13     -0.05      0.00
   -9    3    8      0.42      0.00
   -9    3    7      0.45      0.00
   -9    3    6      0.24      0.00
   -9    3    5      0.13      0.00
   -9    3    4      0.19      0.00
   -9    3    3      0.27      0.00
   -9    3    2      0.24      0.00
   -9    3    1      0.10      0.00
   -9    3    0     -0.10      0.00
    9   -3    1     -0.20      0.00
    9   -3    2     -0.09      0.00
    9   -3    3      0.11      0.00
    9   -3    4      0.11      0.00
    9   -3    5     -0.14      0.00
    9   -3    6     -0.40      0.00
    9   -3    7     -0.43      0.00
    9   -3    8     -0.23      0.00
    9   -3    9     -0.02      0.00
    9   -3   10      0.04      0.00
    9   -3   11      0.05      0.00
    9   -3   12      0.16      0.00
    9   -3   13      0.32      0.00
   -9    2    8     -0.05      0.00
   -9    2    7     -0.18      0.00
   -9    2    6     -0.17      0.00
   -9    2    5     -0.12      0.00
   -9    2    4     -0.14      0.00
   -9    2    3     -0.20      0.00
   -9    2    2     -0.26      0.00
   -9    2    1     -0.23      0.00
   -9    2    0     -0.05      0.00
    9   -2    1      0.17      0.00
    9   -2    2      0.17      0.00
    9   -2    3     -0.03      0.00
    9   -2    4     -0.15      0.00
    9   -2    5     -0.01      0.00
    9   -2    6      0.22      0.00
    9   -2    7      0.29      0.00
    9   -2    8      0.13      0.00
    9   -2    9     -0.09      0.00
    9   -2   10     -0.21      0.00
    9   -2   11     -0.20      0.00
    9   -2   12     -0.22      0.00
    9   -2   13     -0.33      0.00
    9   -2   14     -0.33      0.00
   -9    1    8     -0.26      0.00
   -9    1    7     -0.25      0.00
   -9    1    6     -0.16      0.00
   -9    1    5     -0.03      0.00
   -9    1    4      0.02      0.00
   -9    1    3      0.02      0.00
   -9    1    2      0.09      0.00
   -9    1    1      0.22      0.00
   -9    1    0      0.23      0.00
    9   -1    1      0.04      0.00
    9   -1    2     -0.12      0.00
    9   -1    3     -0.08      0.00
    9   -1    4      0.04      0.00
    9   -1    5      0.07      0.00
    9   -1    6      0.07      0.00
    9   -1    7      0.09      0.00
    9   -1    8      0.10      0.00
    9   -1    9      0.09      0.00
    9   -1   10      0.09      0.00
    9   -1   11      0.06      0.00
    9   -1   12      0.00      0.00
    9   -1   13     -0.02      0.00
    9   -1   14      0.01      0.00
   -9    0    6      0.36      0.00
   -9    0    5      0.19      0.00
   -9    0    4      0.04      0.00
   -9    0    3      0.05      0.00
   -9    0    2      0.09      0.00
   -9    0    1     -0.02      0.00
    9    0    0     -0.18      0.00
    9    0    1     -0.16      0.00
    9    0    2     -0.01      0.00
    9    0    3      0.10      0.00
    9    0    4      0.10      0.00
    9    0    5      0.04      0.00
    9    0    6     -0.13      0.00
    9    0    7     -0.31      0.00
    9    0    8     -0.24      0.00
    9    0    9      0.09      0.00
    9    0   10      0.34      0.00
    9    0   11      0.35      0.00
    9    0   12      0.33      0.00
    9    0   13      0.41      0.00
    9    0   14      0.44      0.00
    9    0   15      0.31      0.00
   -9   -1    8      0.11      0.00
   -9   -1    6     -0.24      0.00
   -9   -1    5     -0.28      0.00
   -9   -1    4     -0.11      0.00
   -9   -1    3      0.01      0.00
   -9   -1    2     -0.02      0.00
   -9   -1    1     -0.04      0.00
    9    1    0      0.05      0.00
    9    1    1      0.10      0.00
    9    1    2      0.01      0.00
    9    1    3     -0.11      0.00
    9    1    4     -0.19      0.00
    9    1    5     -0.20      0.00
    9    1    6     -0.05      0.00
    9    1    7      0.20      0.00
    9    1    8      0.18      0.00
    9    1    9     -0.25      0.00
    9    1   10     -0.65      0.00
    9    1   11     -0.61      0.00
    9    1   12     -0.35      0.00
    9    1   13     -0.34      0.00
    9    1   14     -0.50      0.00
    9    1   15     -0.44      0.00
   -9   -2    7     -0.39      0.00
   -9   -2    6     -0.10      0.00
   -9   -2    5      0.25      0.00
   -9   -2    4      0.27      0.00
   -9   -2    3      0.01      0.00
   -9   -2    2     -0.17      0.00
   -9   -2    1     -0.15      0.00
    9    2    0     -0.08      0.00
    9    2    1     -0.03      0.00
    9    2    2      0.06      0.00
    9    2    3      0.14      0.00
    9    2    4      0.17      0.00
    9    2    5      0.18      0.00
    9    2    6      0.13      0.00
    9    2    7     -0.03      0.00
    9    2    8     -0.09      0.00
    9    2    9      0.17      0.00
    9    2   10      0.51      0.00
    9    2   11      0.43      0.00
    9    2   12      0.01      0.00
    9    2   13     -0.17      0.00
    9    2   14      0.04      0.00
    9    2   15      0.19      0.00
   -9   -3    7      0.51      0.00
   -9   -3    6      0.39      0.00
   -9   -3    5     -0.06      0.00
   -9   -3    4     -0.33      0.00
   -9   -3    3     -0.14      0.00
   -9   -3    2      0.19      0.00
   -9   -3    1      0.29      0.00
    9    3    0      0.20      0.00
    9    3    1      0.08      0.00
    9    3    2     -0.07      0.00
    9    3    3     -0.16      0.00
    9    3    4     -0.10      0.00
    9    3    5      0.05      0.00
    9    3    6      0.14      0.00
    9    3    7      0.15      0.00
    9    3    8      0.16      0.00
    9    3    9      0.09      0.00
    9    3   10     -0.06      0.00
    9    3   11     -0.02      0.00
    9    3   12      0.29      0.00
    9    3   13      0.50      0.00
    9    3   14      0.38      0.00
    9    3   15      0.16      0.00
   -9   -4    7     -0.26      0.00
   -9   -4    6     -0.40      0.00
   -9   -4    5     -0.20      0.00
   -9   -4    4      0.09      0.00
   -9   -4    3      0.09      0.00
   -9   -4    2     -0.13      0.00
   -9   -4    1     -0.23      0.00
    9    4    0     -0.17      0.00
    9    4    1     -0.11      0.00
    9    4    2     -0.01      0.00
    9    4    3      0.12      0.00
    9    4    4      0.10      0.00
    9    4    5     -0.18      0.00
    9    4    6     -0.44      0.00
    9    4    7     -0.44      0.00
    9    4    8     -0.32      0.00
    9    4    9     -0.27      0.00
    9    4   10     -0.27      0.00
    9    4   11     -0.23      0.00
    9    4   12     -0.21      0.00
    9    4   13     -0.22      0.00
    9    4   14     -0.20      0.00
    9    4   15     -0.18      0.00
   -9   -5    6      0.12      0.00
   -9   -5    5      0.26      0.00
   -9   -5    4      0.19      0.00
   -9   -5    3      0.13      0.00
   -9   -5    2      0.16      0.00
   -9   -5    1      0.12      0.00
    9    5    0      0.03      0.00
    9    5    1      0.07      0.00
    9    5    2      0.15      0.00
    9    5    3      0.04      0.00
    9    5    4     -0.11      0.00
    9    5    5      0.03      0.00
    9    5    6      0.36      0.00
    9    5    7      0.45      0.00
    9    5    8      0.28      0.00
    9    5    9      0.17      0.00
    9    5   10      0.24      0.00
    9    5   11      0.21      0.00
    9    5   12     -0.05      0.00
    9    5   13     -0.31      0.00
    9    5   14     -0.33      0.00
    9    5   15     -0.13      0.00
   -9   -6    6      0.10      0.00
   -9   -6    5     -0.10      0.00
   -9   -6    4     -0.18      0.00
   -9   -6    3     -0.16      0.00
   -9   -6    2     -0.14      0.00
   -9   -6    1     -0.05      0.00
    9    6    0      0.07      0.00
    9    6    1     -0.01      0.00
    9    6    2     -0.25      0.00
    9    6    3     -0.29      0.00
    9    6    4     -0.04      0.00
    9    6    5      0.12      0.00
    9    6    6     -0.01      0.00
    9    6    7     -0.12      0.00
    9    6    8      0.00      0.00
    9    6    9      0.10      0.00
    9    6   10     -0.02      0.00
    9    6   11     -0.11      0.00
    9    6   12      0.09      0.00
    9    6   13      0.43      0.00
    9    6   14      0.50      0.00
    9    6   15      0.25      0.00
   -9   -7    5      0.02      0.00
   -9   -7    4      0.00      0.00
   -9   -7    3     -0.04      0.00
   -9   -7    2     -0.01      0.00
   -9   -7    1      0.01      0.00
    9    7    0     -0.06      0.00
    9    7    1     -0.05      0.00
    9    7    2      0.18      0.00
    9    7    3      0.37      0.00
    9    7    4      0.26      0.00
    9    7    5     -0.01      0.00
    9    7    6     -0.12      0.00
    9    7    7     -0.10      0.00
    9    7    8     -0.14      0.00
    9    7    9     -0.19      0.00
    9    7   10     -0.05      0.00
    9    7   11      0.14      0.00
    9    7   12      0.12      0.00
    9    7   13     -0.06      0.00
    9    7   14     -0.10      0.00
    9    7   15      0.05      0.00
   -9   -8    4      0.03      0.00
   -9   -8    3      0.14      0.00
   -9   -8    2      0.06      0.00
   -9   -8    1     -0.11      0.00
    9    8    0     -0.12      0.00
    9    8    1      0.02      0.00
    9    8    2      0.06      0.00
    9    8    3     -0.08      0.00
    9    8    4     -0.17      0.00
    9    8    5     -0.10      0.00
    9    8    6     -0.01      0.00
    9    8    7      0.01      0.00
    9    8    8     -0.01      0.00
    9    8    9     -0.05      0.00
    9    8   10     -0.16      0.00
    9    8   11     -0.28      0.00
    9    8   12     -0.30      0.00
    9    8   13     -0.28      0.00
    9    8   14     -0.33      0.00
    9    8   15     -0.39      0.00
   -9   -9    3     -0.02      0.00
   -9   -9    2      0.12      0.00
   -9   -9    1      0.39      0.00
    9    9    0      0.47      0.00
    9    9    1      0.21      0.00
    9    9    2     -0.17      0.00
    9    9    3     -0.31      0.00
    9    9    4     -0.21      0.00
    9    9    5     -0.09      0.00
    9    9    6     -0.02      0.00
    9    9    7      0.04      0.00
    9    9    8      0.13      0.00
    9    9    9      0.26      0.00
    9    9   10      0.36      0.00
    9    9   11      0.36      0.00
    9    9   12      0.25      0.00
    9    9   13      0.22      0.00
   -9  -10    2     -0.32      0.00
   -9  -10    1     -0.57      0.00
    9   10    0     -0.66      0.00
    9   10    1     -0.41      0.00
    9   10    2      0.02      0.00
    9   10    3      0.33      0.00
    9   10    4      0.38      0.00
    9   10    5      0.30      0.00
    9   10    6      0.22      0.00
    9   10    7      0.13      0.00
    9   10    8      0.00      0.00
    9   10    9     -0.16      0.00
    9   10   10     -0.27      0.00
    9   10   11     -0.22      0.00
    9   10   12     -0.05      0.00
    9   10   13      0.05      0.00
   -9  -11    1      0.47      0.00
    9   11    0      0.44      0.00
    9   11    1      0.25      0.00
    9   11    2      0.02      0.00
    9   11    3     -0.10      0.00
    9   11    4     -0.12      0.00
    9   11    5     -0.16      0.00
    9   11    6     -0.22      0.00
    9   11    7     -0.21      0.00
    9   11    8     -0.11      0.00
    9   11    9     -0.01      0.00
    9   11   10      0.03      0.00
    9   11   11     -0.02      0.00
    9   11   12     -0.12      0.00
    9   11   13     -0.18      0.00
    9   12    1      0.17      0.00
    9   12    2      0.22      0.00
    9   12    3      0.04      0.00
    9   12    4     -0.15      0.00
    9   12    5     -0.12      0.00
    9   12    6      0.06      0.00
    9   12    7      0.12      0.00
    9   12    8      0.00      0.00
    9   12    9     -0.08      0.00
    9   12   10     -0.01      0.00
    9   12   11      0.10      0.00
    9   12   12      0.13      0.00
    9   13    3     -0.15      0.00
    9   13    4      0.13      0.00
    9   13    5      0.15      0.00
    9   13    6     -0.08      0.00
    9   13    7     -0.19      0.00
    9   13    8     -0.01      0.00
    9   13    9      0.19      0.00
    9   13   10      0.15      0.00
  -10   10    2     -0.41      0.00
  -10   10    1     -0.38      0.00
  -10   10    0     -0.21      0.00
   10  -10    1     -0.10      0.00
   10  -10    2     -0.15      0.00
   10  -10    3     -0.15      0.00
   10  -10    4     -0.01      0.00
  -10    9    4      0.31      0.00
  -10    9    3      0.30      0.00
  -10    9    2      0.30      0.00
  -10    9    1      0.27      0.00
  -10    9    0      0.14      0.00
   10   -9    1      0.05      0.00
   10   -9    2      0.17      0.00
   10   -9    3      0.31      0.00
   10   -9    4      0.20      0.00
   10   -9    5     -0.01      0.00
   10   -9    6     -0.06      0.00
  -10    8    5      0.01      0.00
  -10    8    4     -0.16      0.00
  -10    8    3     -0.19      0.00
  -10    8    2     -0.16      0.00
  -10    8    1     -0.10      0.00
  -10    8    0      0.02      0.00
   10   -8    1      0.16      0.00
   10   -8    2      0.13      0.00
   10   -8    3     -0.04      0.00
   10   -8    4     -0.08      0.00
   10   -8    5      0.03      0.00
   10   -8    6      0.09      0.00
   10   -8    7      0.04      0.00
   10   -8    8      0.10      0.00
  -10    7    6     -0.15      0.00
  -10    7    5     -0.19      0.00
  -10    7    4     -0.13      0.00
  -10    7    3     -0.06      0.00
  -10    7    2     -0.06      0.00
  -10    7    1     -0.09      0.00
  -10    7    0     -0.13      0.00
   10   -7    1     -0.23      0.00
   10   -7    2     -0.28      0.00
   10   -7    3     -0.21      0.00
   10   -7    4     -0.12      0.00
   10   -7    5     -0.11      0.00
   10   -7    6     -0.10      0.00
   10   -7    7     -0.03      0.00
   10   -7    8     -0.04      0.00
   10   -7    9     -0.22      0.00
  -10    6    6     -0.26      0.00
  -10    6    5      0.04      0.00
  -10    6    4      0.24      0.00
  -10    6    3      0.28      0.00
  -10    6    2      0.29      0.00
  -10    6    1      0.31      0.00
  -10    6    0      0.24      0.00
   10   -6    1      0.15      0.00
   10   -6    2      0.12      0.00
   10   -6    3      0.12      0.00
   10   -6    4      0.10      0.00
   10   -6    5      0.10      0.00
   10   -6    6      0.10      0.00
   10   -6    7      0.04      0.00
   10   -6    8     -0.01      0.00
   10   -6    9      0.05      0.00
   10   -6   10      0.18      0.00
  -10    5    7      0.42      0.00
  -10    5    6      0.55      0.00
  -10    5    5      0.27      0.00
  -10    5    4     -0.08      0.00
  -10    5    3     -0.24      0.00
  -10    5    2     -0.33      0.00
  -10    5    1     -0.38      0.00
  -10    5    0     -0.29      0.00
   10   -5    1     -0.05      0.00
   10   -5    2      0.10      0.00
   10   -5    3      0.07      0.00
   10   -5    4     -0.02      0.00
   10   -5    5     -0.09      0.00
   10   -5    6     -0.14      0.00
   10   -5    7     -0.14      0.00
   10   -5    8     -0.08      0.00
   10   -5    9     -0.01      0.00
   10   -5   10      0.01      0.00
   10   -5   11      0.04      0.00
  -10    4    7      0.00      0.00
  -10    4    6     -0.20      0.00
  -10    4    5     -0.17      0.00
  -10    4    4      0.00      0.00
  -10    4    3      0.11      0.00
  -10    4    2      0.18      0.00
  -10    4    1      0.22      0.00
  -10    4    0      0.13      0.00
   10   -4    1     -0.10      0.00
   10   -4    2     -0.21      0.00
   10   -4    3     -0.07      0.00
   10   -4    4      0.17      0.00
   10   -4    5      0.28      0.00
   10   -4    6      0.26      0.00
   10   -4    7      0.22      0.00
   10   -4    8      0.19      0.00
   10   -4    9      0.14      0.00
   10   -4   10      0.05      0.00
   10   -4   11     -0.06      0.00
   10   -4   12     -0.16      0.00
  -10    3    7     -0.48      0.00
  -10    3    6     -0.44      0.00
  -10    3    5     -0.30      0.00
  -10    3    4     -0.20      0.00
  -10    3    3     -0.13      0.00
  -10    3    2     -0.09      0.00
  -10    3    1     -0.05      0.00
  -10    3    0      0.09      0.00
   10   -3    1      0.29      0.00
   10   -3    2      0.29      0.00
   10   -3    3     -0.04      0.00
   10   -3    4     -0.45      0.00
   10   -3    5     -0.57      0.00
   10   -3    6     -0.37      0.00
   10   -3    7     -0.12      0.00
   10   -3    8     -0.07      0.00
   10   -3    9     -0.18      0.00
   10   -3   10     -0.29      0.00
   10   -3   11     -0.26      0.00
   10   -3   12     -0.12      0.00
   10   -3   13     -0.02      0.00
  -10    2    7      0.43      0.00
  -10    2    6      0.55      0.00
  -10    2    5      0.46      0.00
  -10    2    4      0.29      0.00
  -10    2    3      0.14      0.00
  -10    2    2      0.04      0.00
  -10    2    1     -0.05      0.00
  -10    2    0     -0.19      0.00
   10   -2    1     -0.34      0.00
   10   -2    2     -0.28      0.00
   10   -2    3      0.13      0.00
   10   -2    4      0.60      0.00
   10   -2    5      0.70      0.00
   10   -2    6      0.36      0.00
   10   -2    7     -0.10      0.00
   10   -2    8     -0.28      0.00
   10   -2    9     -0.05      0.00
   10   -2   10      0.37      0.00
   10   -2   11      0.60      0.00
   10   -2   12      0.51      0.00
   10   -2   13      0.33      0.00
  -10    1    7     -0.04      0.00
  -10    1    6     -0.07      0.00
  -10    1    5     -0.06      0.00
  -10    1    4     -0.03      0.00
  -10    1    3      0.04      0.00
  -10    1    2      0.16      0.00
  -10    1    1      0.27      0.00
  -10    1    0      0.33      0.00
   10   -1    1      0.32      0.00
   10   -1    2      0.15      0.00
   10   -1    3     -0.21      0.00
   10   -1    4     -0.56      0.00
   10   -1    5     -0.60      0.00
   10   -1    6     -0.27      0.00
   10   -1    7      0.20      0.00
   10   -1    8      0.47      0.00
   10   -1    9      0.30      0.00
   10   -1   10     -0.20      0.00
   10   -1   11     -0.63      0.00
   10   -1   12     -0.64      0.00
   10   -1   13     -0.39      0.00
   10   -1   14     -0.26      0.00
  -10    0    6     -0.37      0.00
  -10    0    5     -0.42      0.00
  -10    0    4     -0.28      0.00
  -10    0    3     -0.17      0.00
  -10    0    2     -0.31      0.00
  -10    0    1     -0.56      0.00
   10    0    0     -0.62      0.00
   10    0    1     -0.42      0.00
   10    0    2     -0.07      0.00
   10    0    3      0.27      0.00
   10    0    4      0.45      0.00
   10    0    5      0.39      0.00
   10    0    6      0.14      0.00
   10    0    7     -0.11      0.00
   10    0    8     -0.26      0.00
   10    0    9     -0.23      0.00
   10    0   10      0.03      0.00
   10    0   11      0.35      0.00
   10    0   12      0.41      0.00
   10    0   13      0.17      0.00
   10    0   14     -0.03      0.00
  -10   -1    7      0.04      0.00
  -10   -1    5      0.52      0.00
  -10   -1    4      0.33      0.00
  -10   -1    3      0.05      0.00
  -10   -1    2      0.12      0.00
  -10   -1    1      0.51      0.00
   10    1    0      0.74      0.00
   10    1    1      0.54      0.00
   10    1    2      0.12      0.00
   10    1    3     -0.21      0.00
   10    1    4     -0.31      0.00
   10    1    5     -0.19      0.00
   10    1    6     -0.02      0.00
   10    1    7      0.01      0.00
   10    1    8     -0.07      0.00
   10    1    9     -0.11      0.00
   10    1   10     -0.08      0.00
   10    1   11     -0.11      0.00
   10    1   12     -0.11      0.00
   10    1   13      0.05      0.00
   10    1   14      0.26      0.00
   10    1   15      0.28      0.00
  -10   -2    6     -0.12      0.00
  -10   -2    5     -0.33      0.00
  -10   -2    4     -0.25      0.00
  -10   -2    3      0.08      0.00
  -10   -2    2      0.19      0.00
  -10   -2    1     -0.12      0.00
   10    2    0     -0.45      0.00
   10    2    1     -0.39      0.00
   10    2    2     -0.10      0.00
   10    2    3      0.12      0.00
   10    2    4      0.18      0.00
   10    2    5      0.13      0.00
   10    2    6      0.04      0.00
   10    2    7      0.05      0.00
   10    2    8      0.20      0.00
   10    2    9      0.33      0.00
   10    2   10      0.24      0.00
   10    2   11      0.05      0.00
   10    2   12     -0.02      0.00
   10    2   13     -0.04      0.00
   10    2   14     -0.13      0.00
   10    2   15     -0.23      0.00
  -10   -3    6      0.00      0.00
  -10   -3    5      0.09      0.00
  -10   -3    4      0.16      0.00
  -10   -3    3     -0.01      0.00
  -10   -3    2     -0.19      0.00
  -10   -3    1     -0.10      0.00
   10    3    0      0.09      0.00
   10    3    1      0.07      0.00
   10    3    2     -0.05      0.00
   10    3    3     -0.06      0.00
   10    3    4     -0.06      0.00
   10    3    5     -0.20      0.00
   10    3    6     -0.33      0.00
   10    3    7     -0.32      0.00
   10    3    8     -0.31      0.00
   10    3    9     -0.37      0.00
   10    3   10     -0.33      0.00
   10    3   11     -0.10      0.00
   10    3   12      0.05      0.00
   10    3   13     -0.03      0.00
   10    3   14     -0.15      0.00
   10    3   15     -0.09      0.00
  -10   -4    6     -0.04      0.00
  -10   -4    5      0.08      0.00
  -10   -4    4      0.03      0.00
  -10   -4    3      0.01      0.00
  -10   -4    2      0.06      0.00
  -10   -4    1      0.03      0.00
   10    4    0     -0.01      0.00
   10    4    1      0.07      0.00
   10    4    2      0.15      0.00
   10    4    3      0.00      0.00
   10    4    4     -0.13      0.00
   10    4    5      0.13      0.00
   10    4    6      0.60      0.00
   10    4    7      0.78      0.00
   10    4    8      0.61      0.00
   10    4    9      0.45      0.00
   10    4   10      0.35      0.00
   10    4   11      0.14      0.00
   10    4   12     -0.10      0.00
   10    4   13     -0.07      0.00
   10    4   14      0.17      0.00
   10    4   15      0.29      0.00
  -10   -5    5     -0.16      0.00
  -10   -5    4     -0.28      0.00
  -10   -5    3     -0.25      0.00
  -10   -5    2     -0.17      0.00
  -10   -5    1     -0.05      0.00
   10    5    0      0.03      0.00
   10    5    1     -0.05      0.00
   10    5    2     -0.15      0.00
   10    5    3      0.04      0.00
   10    5    4      0.33      0.00
   10    5    5      0.18      0.00
   10    5    6     -0.45      0.00
   10    5    7     -0.92      0.00
   10    5    8     -0.84      0.00
   10    5    9     -0.53      0.00
   10    5   10     -0.31      0.00
   10    5   11     -0.11      0.00
   10    5   12      0.17      0.00
   10    5   13      0.27      0.00
   10    5   14      0.05      0.00
   10    5   15     -0.21      0.00
  -10   -6    4      0.37      0.00
  -10   -6    3      0.43      0.00
  -10   -6    2      0.38      0.00
  -10   -6    1      0.24      0.00
   10    6    0      0.08      0.00
   10    6    1      0.07      0.00
   10    6    2      0.17      0.00
   10    6    3      0.07      0.00
   10    6    4     -0.27      0.00
   10    6    5     -0.41      0.00
   10    6    6     -0.03      0.00
   10    6    7      0.49      0.00
   10    6    8      0.60      0.00
   10    6    9      0.34      0.00
   10    6   10      0.09      0.00
   10    6   11     -0.06      0.00
   10    6   12     -0.23      0.00
   10    6   13     -0.32      0.00
   10    6   14     -0.16      0.00
   10    6   15      0.11      0.00
  -10   -7    4     -0.26      0.00
  -10   -7    3     -0.30      0.00
  -10   -7    2     -0.27      0.00
  -10   -7    1     -0.23      0.00
   10    7    0     -0.15      0.00
   10    7    1     -0.09      0.00
   10    7    2     -0.15      0.00
   10    7    3     -0.19      0.00
   10    7    4     -0.01      0.00
   10    7    5      0.24      0.00
   10    7    6      0.23      0.00
   10    7    7     -0.02      0.00
   10    7    8     -0.13      0.00
   10    7    9      0.02      0.00
   10    7   10      0.22      0.00
   10    7   11      0.29      0.00
   10    7   12      0.27      0.00
   10    7   13      0.19      0.00
   10    7   14      0.00      0.00
   10    7   15     -0.20      0.00
  -10   -8    3      0.04      0.00
  -10   -8    2     -0.05      0.00
  -10   -8    1     -0.03      0.00
   10    8    0      0.02      0.00
   10    8    1      0.00      0.00
   10    8    2     -0.03      0.00
   10    8    3      0.02      0.00
   10    8    4      0.08      0.00
   10    8    5      0.03      0.00
   10    8    6     -0.05      0.00
   10    8    7     -0.04      0.00
   10    8    8     -0.04      0.00
   10    8    9     -0.14      0.00
   10    8   10     -0.28      0.00
   10    8   11     -0.32      0.00
   10    8   12     -0.25      0.00
   10    8   13     -0.08      0.00
   10    8   14      0.13      0.00
  -10   -9    2      0.20      0.00
  -10   -9    1      0.20      0.00
   10    9    0      0.08      0.00
   10    9    1      0.05      0.00
   10    9    2      0.16      0.00
   10    9    3      0.26      0.00
   10    9    4      0.20      0.00
   10    9    5      0.07      0.00
   10    9    6     -0.01      0.00
   10    9    7     -0.04      0.00
   10    9    8     -0.03      0.00
   10    9    9      0.03      0.00
   10    9   10      0.09      0.00
   10    9   11      0.13      0.00
   10    9   12      0.12      0.00
   10    9   13      0.08      0.00
   10    9   14     -0.01      0.00
  -10  -10    1     -0.11      0.00
   10   10    0     -0.03      0.00
   10   10    1      0.03      0.00
   10   10    2     -0.07      0.00
   10   10    3     -0.26      0.00
   10   10    4     -0.35      0.00
   10   10    5     -0.33      0.00
   10   10    6     -0.23      0.00
   10   10    7     -0.13      0.00
   10   10    8     -0.07      0.00
   10   10    9     -0.05      0.00
   10   10   10     -0.05      0.00
   10   10   11     -0.03      0.00
   10   10   12     -0.05      0.00
   10   10   13     -0.14      0.00
   10   11    1     -0.07      0.00
   10   11    2     -0.05      0.00
   10   11    3      0.01      0.00
   10   11    4      0.12      0.00
   10   11    5      0.26      0.00
   10   11    6      0.36      0.00
   10   11    7      0.35      0.00
   10   11    8      0.24      0.00
   10   11    9      0.19      0.00
   10   11   10      0.19      0.00
   10   11   11      0.17      0.00
   10   11   12      0.12      0.00
   10   12    3      0.06      0.00
   10   12    4      0.15      0.00
   10   12    5      0.06      0.00
   10   12    6     -0.17      0.00
   10   12    7     -0.27      0.00
   10   12    8     -0.16      0.00
   10   12    9     -0.06      0.00
   10   12   10     -0.11      0.00
   10   12   11     -0.18      0.00
  -11    9    1      0.24      0.00
  -11    9    0      0.21      0.00
   11   -9    1      0.07      0.00
   11   -9    2     -0.18      0.00
   11   -9    3     -0.37      0.00
   11   -9    4     -0.34      0.00
  -11    8    3      0.09      0.00
  -11    8    2      0.06      0.00
  -11    8    1     -0.04      0.00
  -11    8    0     -0.12      0.00
   11   -8    1     -0.16      0.00
   11   -8    2     -0.10      0.00
   11   -8    3      0.07      0.00
   11   -8    4      0.21      0.00
   11   -8    5      0.20      0.00
   11   -8    6      0.15      0.00
   11   -8    7      0.16      0.00
  -11    7    4      0.27      0.00
  -11    7    3      0.02      0.00
  -11    7    2     -0.14      0.00
  -11    7    1     -0.15      0.00
  -11    7    0     -0.08      0.00
   11   -7    1      0.04      0.00
   11   -7    2      0.17      0.00
   11   -7    3      0.15      0.00
   11   -7    4     -0.02      0.00
   11   -7    5     -0.17      0.00
   11   -7    6     -0.20      0.00
   11   -7    7     -0.20      0.00
   11   -7    8     -0.21      0.00
  -11    6    5     -0.15      0.00
  -11    6    4     -0.30      0.00
  -11    6    3     -0.16      0.00
  -11    6    2      0.01      0.00
  -11    6    1      0.06      0.00
  -11    6    0      0.06      0.00
   11   -6    1      0.06      0.00
   11   -6    2      0.00      0.00
   11   -6    3     -0.06      0.00
   11   -6    4      0.04      0.00
   11   -6    5      0.23      0.00
   11   -6    6      0.32      0.00
   11   -6    7      0.31      0.00
   11   -6    8      0.29      0.00
   11   -6    9      0.22      0.00
   11   -6   10      0.05      0.00
  -11    5    5     -0.33      0.00
  -11    5    4     -0.12      0.00
  -11    5    3     -0.04      0.00
  -11    5    2     -0.01      0.00
  -11    5    1      0.10      0.00
  -11    5    0      0.15      0.00
   11   -5    1      0.04      0.00
   11   -5    2     -0.08      0.00
   11   -5    3     -0.10      0.00
   11   -5    4     -0.11      0.00
   11   -5    5     -0.22      0.00
   11   -5    6     -0.31      0.00
   11   -5    7     -0.30      0.00
   11   -5    8     -0.26      0.00
   11   -5    9     -0.20      0.00
   11   -5   10     -0.11      0.00
   11   -5   11      0.02      0.00
  -11    4    5      0.47      0.00
  -11    4    4      0.47      0.00
  -11    4    3      0.38      0.00
  -11    4    2      0.23      0.00
  -11    4    1     -0.02      0.00
  -11    4    0     -0.20      0.00
   11   -4    1     -0.13      0.00
   11   -4    2      0.06      0.00
   11   -4    3      0.10      0.00
   11   -4    4     -0.01      0.00
   11   -4    5     -0.06      0.00
   11   -4    6      0.01      0.00
   11   -4    7      0.06      0.00
   11   -4    8      0.05      0.00
   11   -4    9      0.00      0.00
   11   -4   10      0.00      0.00
   11   -4   11      0.08      0.00
  -11    3    6      0.21      0.00
  -11    3    5     -0.08      0.00
  -11    3    4     -0.29      0.00
  -11    3    3     -0.35      0.00
  -11    3    2     -0.29      0.00
  -11    3    1     -0.13      0.00
  -11    3    0      0.04      0.00
   11   -3    1      0.03      0.00
   11   -3    2     -0.10      0.00
   11   -3    3     -0.08      0.00
   11   -3    4      0.17      0.00
   11   -3    5      0.38      0.00
   11   -3    6      0.34      0.00
   11   -3    7      0.15      0.00
   11   -3    8      0.07      0.00
   11   -3    9      0.15      0.00
   11   -3   10      0.21      0.00
   11   -3   11      0.08      0.00
   11   -3   12     -0.19      0.00
  -11    2    6     -0.27      0.00
  -11    2    5     -0.15      0.00
  -11    2    4     -0.05      0.00
  -11    2    3      0.01      0.00
  -11    2    2      0.08      0.00
  -11    2    1      0.11      0.00
  -11    2    0      0.06      0.00
   11   -2    1      0.05      0.00
   11   -2    2      0.11      0.00
   11   -2    3      0.06      0.00
   11   -2    4     -0.19      0.00
   11   -2    5     -0.43      0.00
   11   -2    6     -0.37      0.00
   11   -2    7     -0.06      0.00
   11   -2    8      0.15      0.00
   11   -2    9      0.04      0.00
   11   -2   10     -0.24      0.00
   11   -2   11     -0.31      0.00
   11   -2   12     -0.10      0.00
   11   -2   13      0.11      0.00
  -11    1    6     -0.22      0.00
  -11    1    5     -0.16      0.00
  -11    1    4      0.04      0.00
  -11    1    3      0.20      0.00
  -11    1    2      0.12      0.00
  -11    1    1     -0.07      0.00
  -11    1    0     -0.13      0.00
   11   -1    1     -0.05      0.00
   11   -1    2      0.02      0.00
   11   -1    3      0.08      0.00
   11   -1    4      0.21      0.00
   11   -1    5      0.31      0.00
   11   -1    6      0.16      0.00
   11   -1    7     -0.18      0.00
   11   -1    8     -0.41      0.00
   11   -1    9     -0.30      0.00
   11   -1   10      0.07      0.00
   11   -1   11      0.36      0.00
   11   -1   12      0.36      0.00
   11   -1   13      0.23      0.00
  -11    0    6      0.52      0.00
  -11    0    5      0.44      0.00
  -11    0    4      0.06      0.00
  -11    0    3     -0.30      0.00
  -11    0    2     -0.26      0.00
  -11    0    1      0.08      0.00
   11    0    0      0.28      0.00
   11    0    1      0.13      0.00
   11    0    2     -0.14      0.00
   11    0    3     -0.30      0.00
   11    0    4     -0.37      0.00
   11    0    5     -0.32      0.00
   11    0    6     -0.11      0.00
   11    0    7      0.14      0.00
   11    0    8      0.24      0.00
   11    0    9      0.11      0.00
   11    0   10     -0.13      0.00
   11    0   11     -0.31      0.00
   11    0   12     -0.36      0.00
   11    0   13     -0.32      0.00
   11    0   14     -0.32      0.00
  -11   -1    5     -0.14      0.00
  -11   -1    4      0.22      0.00
  -11   -1    3      0.60      0.00
  -11   -1    2      0.55      0.00
  -11   -1    1      0.09      0.00
   11    1    0     -0.28      0.00
   11    1    1     -0.21      0.00
   11    1    2      0.11      0.00
   11    1    3      0.37      0.00
   11    1    4      0.51      0.00
   11    1    5      0.50      0.00
   11    1    6      0.33      0.00
   11    1    7      0.16      0.00
   11    1    8      0.23      0.00
   11    1    9      0.44      0.00
   11    1   10      0.50      0.00
   11    1   11      0.36      0.00
   11    1   12      0.21      0.00
   11    1   13      0.16      0.00
   11    1   14      0.15      0.00
  -11   -2    5     -0.44      0.00
  -11   -2    4     -0.66      0.00
  -11   -2    3     -0.88      0.00
  -11   -2    2     -0.82      0.00
  -11   -2    1     -0.41      0.00
   11    2    0      0.00      0.00
   11    2    1      0.07      0.00
   11    2    2     -0.11      0.00
   11    2    3     -0.30      0.00
   11    2    4     -0.47      0.00
   11    2    5     -0.60      0.00
   11    2    6     -0.55      0.00
   11    2    7     -0.37      0.00
   11    2    8     -0.37      0.00
   11    2    9     -0.60      0.00
   11    2   10     -0.65      0.00
   11    2   11     -0.34      0.00
   11    2   12     -0.02      0.00
   11    2   13      0.05      0.00
   11    2   14      0.01      0.00
  -11   -3    5      0.64      0.00
  -11   -3    4      0.74      0.00
  -11   -3    3      0.72      0.00
  -11   -3    2      0.61      0.00
  -11   -3    1      0.39      0.00
   11    3    0      0.19      0.00
   11    3    1      0.14      0.00
   11    3    2      0.18      0.00
   11    3    3      0.18      0.00
   11    3    4      0.25      0.00
   11    3    5      0.48      0.00
   11    3    6      0.59      0.00
   11    3    7      0.36      0.00
   11    3    8      0.07      0.00
   11    3    9      0.06      0.00
   11    3   10      0.16      0.00
   11    3   11      0.03      0.00
   11    3   12     -0.20      0.00
   11    3   13     -0.17      0.00
   11    3   14     -0.01      0.00
  -11   -4    4     -0.39      0.00
  -11   -4    3     -0.25      0.00
  -11   -4    2     -0.10      0.00
  -11   -4    1     -0.03      0.00
   11    4    0     -0.02      0.00
   11    4    1     -0.07      0.00
   11    4    2     -0.10      0.00
   11    4    3      0.00      0.00
   11    4    4      0.07      0.00
   11    4    5     -0.13      0.00
   11    4    6     -0.41      0.00
   11    4    7     -0.31      0.00
   11    4    8      0.16      0.00
   11    4    9      0.48      0.00
   11    4   10      0.44      0.00
   11    4   11      0.33      0.00
   11    4   12      0.29      0.00
   11    4   13      0.17      0.00
   11    4   14     -0.03      0.00
  -11   -5    4      0.02      0.00
  -11   -5    3     -0.01      0.00
  -11   -5    2     -0.09      0.00
  -11   -5    1     -0.12      0.00
   11    5    0     -0.13      0.00
   11    5    1     -0.14      0.00
   11    5    2     -0.13      0.00
   11    5    3     -0.19      0.00
   11    5    4     -0.31      0.00
   11    5    5     -0.24      0.00
   11    5    6      0.09      0.00
   11    5    7      0.28      0.00
   11    5    8      0.03      0.00
   11    5    9     -0.36      0.00
   11    5   10     -0.45      0.00
   11    5   11     -0.26      0.00
   11    5   12     -0.10      0.00
   11    5   13     -0.02      0.00
   11    5   14      0.05      0.00
  -11   -6    3     -0.08      0.00
  -11   -6    2     -0.15      0.00
  -11   -6    1     -0.16      0.00
   11    6    0     -0.05      0.00
   11    6    1      0.16      0.00
   11    6    2      0.25      0.00
   11    6    3      0.24      0.00
   11    6    4      0.27      0.00
   11    6    5      0.32      0.00
   11    6    6      0.15      0.00
   11    6    7     -0.17      0.00
   11    6    8     -0.30      0.00
   11    6    9     -0.15      0.00
   11    6   10     -0.03      0.00
   11    6   11     -0.12      0.00
   11    6   12     -0.22      0.00
   11    6   13     -0.15      0.00
   11    6   14      0.01      0.00
  -11   -7    2      0.32      0.00
  -11   -7    1      0.33      0.00
   11    7    0      0.20      0.00
   11    7    1     -0.07      0.00
   11    7    2     -0.24      0.00
   11    7    3     -0.16      0.00
   11    7    4     -0.03      0.00
   11    7    5     -0.06      0.00
   11    7    6     -0.10      0.00
   11    7    7      0.08      0.00
   11    7    8      0.34      0.00
   11    7    9      0.42      0.00
   11    7   10      0.35      0.00
   11    7   11      0.31      0.00
   11    7   12      0.27      0.00
   11    7   13      0.09      0.00
   11    7   14     -0.16      0.00
  -11   -8    1      0.00      0.00
   11    8    0      0.08      0.00
   11    8    1      0.18      0.00
   11    8    2      0.27      0.00
   11    8    3      0.18      0.00
   11    8    4     -0.02      0.00
   11    8    5     -0.10      0.00
   11    8    6     -0.05      0.00
   11    8    7     -0.07      0.00
   11    8    8     -0.22      0.00
   11    8    9     -0.31      0.00
   11    8   10     -0.26      0.00
   11    8   11     -0.16      0.00
   11    8   12     -0.03      0.00
   11    8   14      0.39      0.00
   11    9    0     -0.50      0.00
   11    9    1     -0.37      0.00
   11    9    2     -0.26      0.00
   11    9    3     -0.22      0.00
   11    9    4     -0.16      0.00
   11    9    5     -0.11      0.00
   11    9    6     -0.09      0.00
   11    9    7     -0.03      0.00
   11    9    8      0.06      0.00
   11    9    9      0.09      0.00
   11    9   10      0.04      0.00
   11    9   11     -0.04      0.00
   11    9   12     -0.14      0.00
   11    9   13     -0.34      0.00
   11   10    1      0.31      0.00
   11   10    2      0.03      0.00
   11   10    3      0.00      0.00
   11   10    4      0.18      0.00
   11   10    5      0.36      0.00
   11   10    6      0.40      0.00
   11   10    7      0.27      0.00
   11   10    8      0.12      0.00
   11   10    9      0.09      0.00
   11   10   10      0.12      0.00
   11   10   11      0.10      0.00
   11   10   12      0.08      0.00
   11   11    3      0.31      0.00
   11   11    4      0.08      0.00
   11   11    5     -0.26      0.00
   11   11    6     -0.45      0.00
   11   11    7     -0.40      0.00
   11   11    8     -0.23      0.00
   11   11    9     -0.15      0.00
   11   11   10     -0.16      0.00
   11   11   11     -0.11      0.00
   11   12    6      0.20      0.00
   11   12    7      0.25      0.00
   11   12    8      0.14      0.00
   12   -8    1      0.11      0.00
   12   -8    2      0.04      0.00
   12   -8    3     -0.18      0.00
   12   -8    4     -0.41      0.00
  -12    7    1      0.48      0.00
  -12    7    0      0.41      0.00
   12   -7    1      0.25      0.00
   12   -7    2      0.09      0.00
   12   -7    3      0.07      0.00
   12   -7    4      0.23      0.00
   12   -7    5      0.30      0.00
   12   -7    6      0.11      0.00
   12   -7    7     -0.11      0.00
  -12    6    2     -0.38      0.00
  -12    6    1     -0.57      0.00
  -12    6    0     -0.57      0.00
   12   -6    1     -0.44      0.00
   12   -6    2     -0.24      0.00
   12   -6    3     -0.06      0.00
   12   -6    4     -0.04      0.00
   12   -6    5     -0.12      0.00
   12   -6    6     -0.09      0.00
   12   -6    7      0.03      0.00
   12   -6    8      0.07      0.00
  -12    5    3      0.03      0.00
  -12    5    2      0.22      0.00
  -12    5    1      0.30      0.00
  -12    5    0      0.20      0.00
   12   -5    1      0.08      0.00
   12   -5    2      0.02      0.00
   12   -5    3     -0.05      0.00
   12   -5    4     -0.09      0.00
   12   -5    5     -0.03      0.00
   12   -5    6      0.07      0.00
   12   -5    7      0.08      0.00
   12   -5    8      0.02      0.00
   12   -5    9     -0.04      0.00
  -12    4    4     -0.22      0.00
  -12    4    3     -0.24      0.00
  -12    4    2     -0.32      0.00
  -12    4    1     -0.22      0.00
  -12    4    0      0.12      0.00
   12   -4    1      0.38      0.00
   12   -4    2      0.35      0.00
   12   -4    3      0.19      0.00
   12   -4    4      0.11      0.00
   12   -4    5      0.08      0.00
   12   -4    6     -0.02      0.00
   12   -4    7     -0.11      0.00
   12   -4    8     -0.06      0.00
   12   -4    9      0.09      0.00
   12   -4   10      0.22      0.00
  -12    3    4      0.12      0.00
  -12    3    3      0.27      0.00
  -12    3    2      0.42      0.00
  -12    3    1      0.33      0.00
  -12    3    0     -0.09      0.00
   12   -3    1     -0.47      0.00
   12   -3    2     -0.41      0.00
   12   -3    3     -0.07      0.00
   12   -3    4      0.13      0.00
   12   -3    5      0.09      0.00
   12   -3    6      0.03      0.00
   12   -3    7      0.05      0.00
   12   -3    8      0.01      0.00
   12   -3    9     -0.14      0.00
   12   -3   10     -0.27      0.00
   12   -3   11     -0.23      0.00
  -12    2    4      0.20      0.00
  -12    2    3      0.04      0.00
  -12    2    2     -0.18      0.00
  -12    2    1     -0.23      0.00
  -12    2    0      0.06      0.00
   12   -2    1      0.36      0.00
   12   -2    2      0.24      0.00
   12   -2    3     -0.22      0.00
   12   -2    4     -0.51      0.00
   12   -2    5     -0.41      0.00
   12   -2    6     -0.17      0.00
   12   -2    7     -0.03      0.00
   12   -2    8      0.03      0.00
   12   -2    9      0.11      0.00
   12   -2   10      0.17      0.00
   12   -2   11      0.11      0.00
   12   -2   12     -0.07      0.00
  -12    1    4     -0.24      0.00
  -12    1    3     -0.25      0.00
  -12    1    2     -0.14      0.00
  -12    1    1     -0.06      0.00
  -12    1    0     -0.18      0.00
   12   -1    1     -0.32      0.00
   12   -1    2     -0.15      0.00
   12   -1    3      0.30      0.00
   12   -1    4      0.61      0.00
   12   -1    5      0.54      0.00
   12   -1    6      0.27      0.00
   12   -1    7      0.08      0.00
   12   -1    8      0.02      0.00
   12   -1    9      0.04      0.00
   12   -1   10      0.09      0.00
   12   -1   11      0.16      0.00
   12   -1   12      0.22      0.00
   12   -1   13      0.20      0.00
  -12    0    4     -0.02      0.00
  -12    0    3      0.14      0.00
  -12    0    2      0.22      0.00
  -12    0    1      0.21      0.00
   12    0    0      0.22      0.00
   12    0    1      0.23      0.00
   12    0    2      0.10      0.00
   12    0    3     -0.18      0.00
   12    0    4     -0.35      0.00
   12    0    5     -0.28      0.00
   12    0    6     -0.13      0.00
   12    0    7     -0.04      0.00
   12    0    8     -0.03      0.00
   12    0    9     -0.08      0.00
   12    0   10     -0.24      0.00
   12    0   11     -0.40      0.00
   12    0   12     -0.38      0.00
   12    0   13     -0.20      0.00
  -12   -1    4      0.13      0.00
  -12   -1    3     -0.01      0.00
  -12   -1    2     -0.19      0.00
  -12   -1    1     -0.24      0.00
   12    1    0     -0.14      0.00
   12    1    1     -0.01      0.00
   12    1    2      0.12      0.00
   12    1    3      0.18      0.00
   12    1    4      0.09      0.00
   12    1    5     -0.11      0.00
   12    1    6     -0.19      0.00
   12    1    7     -0.09      0.00
   12    1    8     -0.02      0.00
   12    1    9     -0.01      0.00
   12    1   10      0.11      0.00
   12    1   11      0.33      0.00
   12    1   12      0.39      0.00
   12    1   13      0.17      0.00
  -12   -2    4      0.07      0.00
  -12   -2    3      0.07      0.00
  -12   -2    2      0.22      0.00
  -12   -2    1      0.28      0.00
   12    2    0      0.12      0.00
   12    2    1     -0.14      0.00
   12    2    2     -0.30      0.00
   12    2    3     -0.27      0.00
   12    2    4     -0.02      0.00
   12    2    5      0.30      0.00
   12    2    6      0.40      0.00
   12    2    7      0.18      0.00
   12    2    8     -0.06      0.00
   12    2    9     -0.05      0.00
   12    2   11     -0.08      0.00
   12    2   12     -0.20      0.00
   12    2   13     -0.09      0.00
   12    2   14      0.11      0.00
  -12   -3    3     -0.16      0.00
  -12   -3    2     -0.17      0.00
  -12   -3    1     -0.21      0.00
   12    3    0     -0.08      0.00
   12    3    1      0.14      0.00
   12    3    2      0.25      0.00
   12    3    3      0.18      0.00
   12    3    4     -0.03      0.00
   12    3    5     -0.30      0.00
   12    3    6     -0.40      0.00
   12    3    7     -0.14      0.00
   12    3    8      0.27      0.00
   12    3    9      0.39      0.00
   12    3   10      0.18      0.00
   12    3   11     -0.01      0.00
   12    3   12     -0.02      0.00
   12    3   13     -0.03      0.00
   12    3   14     -0.11      0.00
  -12   -4    3      0.09      0.00
  -12   -4    2     -0.02      0.00
  -12   -4    1     -0.05      0.00
   12    4    0     -0.14      0.00
   12    4    1     -0.24      0.00
   12    4    2     -0.16      0.00
   12    4    3      0.04      0.00
   12    4    4      0.19      0.00
   12    4    5      0.25      0.00
   12    4    6      0.25      0.00
   12    4    7      0.05      0.00
   12    4    8     -0.39      0.00
   12    4    9     -0.68      0.00
   12    4   10     -0.50      0.00
   12    4   12      0.19      0.00
   12    4   13      0.19      0.00
   12    4   14      0.13      0.00
  -12   -5    2      0.14      0.00
  -12   -5    1      0.21      0.00
   12    5    0      0.32      0.00
   12    5    1      0.39      0.00
   12    5    2      0.21      0.00
   12    5    3     -0.15      0.00
   12    5    4     -0.33      0.00
   12    5    5     -0.20      0.00
   12    5    6     -0.02      0.00
   12    5    7      0.09      0.00
   12    5    8      0.29      0.00
   12    5    9      0.52      0.00
   12    5   10      0.42      0.00
   12    5   11     -0.05      0.00
   12    5   12     -0.44      0.00
   12    5   13     -0.44      0.00
   12    5   14     -0.20      0.00
  -12   -6    2     -0.05      0.00
  -12   -6    1     -0.09      0.00
   12    6    0     -0.19      0.00
   12    6    1     -0.33      0.00
   12    6    2     -0.24      0.00
   12    6    3      0.12      0.00
   12    6    4      0.37      0.00
   12    6    5      0.19      0.00
   12    6    6     -0.13      0.00
   12    6    7     -0.21      0.00
   12    6    8     -0.11      0.00
   12    6    9     -0.05      0.00
   12    6   10      0.10      0.00
   12    6   11      0.47      0.00
   12    6   13      0.67      0.00
   12    6   14      0.26      0.00
  -12   -7    1     -0.08      0.00
   12    7    0     -0.02      0.00
   12    7    1      0.13      0.00
   12    7    2      0.18      0.00
   12    7    3     -0.03      0.00
   12    7    4     -0.28      0.00
   12    7    5     -0.21      0.00
   12    7    6      0.09      0.00
   12    7    7      0.18      0.00
   12    7    8     -0.05      0.00
   12    7    9     -0.34      0.00
   12    7   10     -0.58      0.00
   12    7   11     -0.81      0.00
   12    7   12     -0.91      0.00
   12    8    0     -0.03      0.00
   12    8    1     -0.08      0.00
   12    8    2     -0.14      0.00
   12    8    3     -0.11      0.00
   12    8    4      0.02      0.00
   12    8    5      0.06      0.00
   12    8    6     -0.02      0.00
   12    8    7     -0.02      0.00
   12    8    8      0.20      0.00
   12    8    9      0.48      0.00
   12    8   10      0.69      0.00
   12    8   11      0.80      0.00
   12    8   12      0.73      0.00
   12    9    2      0.13      0.00
   12    9    3      0.18      0.00
   12    9    4      0.26      0.00
   12    9    5      0.27      0.00
   12    9    6      0.18      0.00
   12    9    7     -0.01      0.00
   12    9    8     -0.25      0.00
   12    9    9     -0.43      0.00
   12    9   10     -0.51      0.00
   12    9   11     -0.53      0.00
   12    9   12     -0.44      0.00
   12   10    3     -0.01      0.00
   12   10    4     -0.23      0.00
   12   10    5     -0.42      0.00
   12   10    6     -0.37      0.00
   12   10    7     -0.11      0.00
   12   10    8      0.17      0.00
   12   10    9      0.28      0.00
   12   10   10      0.25      0.00
   12   10   11      0.24      0.00
   12   11    6      0.29      0.00
   12   11    7      0.14      0.00
   12   11    8     -0.07      0.00
   13   -6    1      0.43      0.00
   13   -6    2      0.32      0.00
   13   -6    3      0.14      0.00
   13   -6    4      0.00      0.00
   13   -6    5      0.02      0.00
   13   -6    6      0.08      0.00
  -13    5    1     -0.22      0.00
  -13    5    0     -0.24      0.00
   13   -5    1     -0.17      0.00
   13   -5    2     -0.15      0.00
   13   -5    3     -0.10      0.00
   13   -5    4      0.02      0.00
   13   -5    5      0.05      0.00
   13   -5    6     -0.06      0.00
   13   -5    7     -0.14      0.00
   13   -5    8     -0.08      0.00
  -13    4    2      0.09      0.00
  -13    4    1      0.20      0.00
  -13    4    0      0.01      0.00
   13   -4    1     -0.27      0.00
   13   -4    2     -0.31      0.00
   13   -4    3     -0.14      0.00
   13   -4    4     -0.06      0.00
   13   -4    5     -0.09      0.00
   13   -4    6     -0.05      0.00
   13   -4    7      0.05      0.00
   13   -4    8      0.06      0.00
   13   -4    9     -0.01      0.00
  -13    3    2     -0.28      0.00
  -13    3    1     -0.35      0.00
  -13    3    0     -0.07      0.00
   13   -3    1      0.38      0.00
   13   -3    2      0.51      0.00
   13   -3    3      0.25      0.00
   13   -3    4      0.00      0.00
   13   -3    5      0.03      0.00
   13   -3    6      0.17      0.00
   13   -3    7      0.22      0.00
   13   -3    8      0.18      0.00
   13   -3    9      0.14      0.00
   13   -3   10      0.09      0.00
  -13    2    2      0.24      0.00
  -13    2    1      0.34      0.00
  -13    2    0      0.15      0.00
   13   -2    1     -0.23      0.00
   13   -2    2     -0.37      0.00
   13   -2    3     -0.12      0.00
   13   -2    4      0.17      0.00
   13   -2    5      0.13      0.00
   13   -2    6     -0.19      0.00
   13   -2    7     -0.46      0.00
   13   -2    8     -0.48      0.00
   13   -2    9     -0.32      0.00
   13   -2   10     -0.12      0.00
   13   -2   11      0.01      0.00
  -13    1    2     -0.08      0.00
  -13    1    1     -0.12      0.00
  -13    1    0     -0.03      0.00
   13   -1    1      0.15      0.00
   13   -1    2      0.23      0.00
   13   -1    3      0.05      0.00
   13   -1    4     -0.17      0.00
   13   -1    5     -0.13      0.00
   13   -1    6      0.19      0.00
   13   -1    7      0.50      0.00
   13   -1    8      0.57      0.00
   13   -1    9      0.37      0.00
   13   -1   10      0.06      0.00
   13   -1   11     -0.15      0.00
  -13    0    2      0.12      0.00
  -13    0    1     -0.02      0.00
   13    0    0     -0.08      0.00
   13    0    1     -0.11      0.00
   13    0    2     -0.13      0.00
   13    0    3     -0.08      0.00
   13    0    4     -0.02      0.00
   13    0    5     -0.06      0.00
   13    0    6     -0.21      0.00
   13    0    7     -0.33      0.00
   13    0    8     -0.33      0.00
   13    0    9     -0.18      0.00
   13    0   10      0.07      0.00
   13    0   11      0.27      0.00
   13    0   12      0.32      0.00
  -13   -1    2     -0.35      0.00
  -13   -1    1     -0.06      0.00
   13    1    0      0.01      0.00
   13    1    1     -0.06      0.00
   13    1    2     -0.08      0.00
   13    1    3     -0.03      0.00
   13    1    4      0.03      0.00
   13    1    5      0.09      0.00
   13    1    6      0.11      0.00
   13    1    7      0.02      0.00
   13    1    8     -0.11      0.00
   13    1    9     -0.17      0.00
   13    1   10     -0.18      0.00
   13    1   11     -0.24      0.00
   13    1   12     -0.30      0.00
  -13   -2    2      0.50      0.00
  -13   -2    1      0.18      0.00
   13    2    0      0.12      0.00
   13    2    1      0.23      0.00
   13    2    2      0.27      0.00
   13    2    3      0.22      0.00
   13    2    4      0.18      0.00
   13    2    5      0.16      0.00
   13    2    6      0.16      0.00
   13    2    7      0.26      0.00
   13    2    8      0.41      0.00
   13    2    9      0.40      0.00
   13    2   12      0.11      0.00
   13    2   13      0.18      0.00
  -13   -3    2     -0.45      0.00
  -13   -3    1     -0.23      0.00
   13    3    0     -0.20      0.00
   13    3    1     -0.29      0.00
   13    3    2     -0.26      0.00
   13    3    3     -0.17      0.00
   13    3    4     -0.23      0.00
   13    3    5     -0.35      0.00
   13    3    6     -0.32      0.00
   13    3    7     -0.22      0.00
   13    3    8     -0.23      0.00
   13    3    9     -0.24      0.00
   13    3   13     -0.11      0.00
  -13   -4    1      0.24      0.00
   13    4    0      0.29      0.00
   13    4    1      0.32      0.00
   13    4    2      0.14      0.00
   13    4    3     -0.09      0.00
   13    4    4     -0.04      0.00
   13    4    5      0.21      0.00
   13    4    6      0.20      0.00
   13    4    7     -0.11      0.00
   13    4    8     -0.32      0.00
   13    4    9     -0.28      0.00
   13    4   10     -0.27      0.00
   13    4   12     -0.27      0.00
   13    4   13      0.05      0.00
   13    5    0     -0.35      0.00
   13    5    1     -0.37      0.00
   13    5    2     -0.14      0.00
   13    5    3      0.20      0.00
   13    5    4      0.28      0.00
   13    5    5      0.04      0.00
   13    5    6     -0.05      0.00
   13    5    7      0.29      0.00
   13    5    8      0.66      0.00
   13    5    9      0.67      0.00
   13    5   10      0.51      0.00
   13    5   12      0.40      0.00
   13    5   13      0.12      0.00
   13    6    0      0.29      0.00
   13    6    1      0.31      0.00
   13    6    2      0.19      0.00
   13    6    3     -0.06      0.00
   13    6    4     -0.22      0.00
   13    6    5     -0.09      0.00
   13    6    6      0.07      0.00
   13    6    7     -0.07      0.00
   13    6    8     -0.38      0.00
   13    6    9     -0.48      0.00
   13    6   10     -0.38      0.00
   13    6   11     -0.38      0.00
   13    6   12     -0.44      0.00
   13    7    1     -0.16      0.00
   13    7    2     -0.17      0.00
   13    7    3     -0.13      0.00
   13    7    4     -0.02      0.00
   13    7    5      0.00      0.00
   13    7    6     -0.11      0.00
   13    7    7     -0.18      0.00
   13    7    8     -0.12      0.00
   13    7    9     -0.05      0.00
   13    7   10     -0.01      0.00
   13    7   11      0.13      0.00
   13    8    3      0.25      0.00
   13    8    4      0.23      0.00
   13    8    5      0.10      0.00
   13    8    6      0.02      0.00
   13    8    7      0.09      0.00
   13    8    8      0.20      0.00
   13    8    9      0.26      0.00
   13    8   10      0.20      0.00
   13    8   11      0.00      0.00
   13    9    4     -0.30      0.00
   13    9    5     -0.13      0.00
   13    9    7      0.17      0.00
   13    9    8      0.10      0.00
   13    9    9      0.00      0.00
   13    9   10     -0.02      0.00
   14   -4    2     -0.07      0.00
   14   -4    3     -0.24      0.00
   14   -4    4     -0.33      0.00
   14   -4    5     -0.23      0.00
   14   -4    6     -0.12      0.00
   14   -3    1      0.16      0.00
   14   -3    2      0.03      0.00
   14   -3    3      0.08      0.00
   14   -3    4      0.19      0.00
   14   -3    5      0.11      0.00
   14   -3    6     -0.12      0.00
   14   -3    7     -0.24      0.00
   14   -3    8     -0.11      0.00
  -14    2    0     -0.40      0.00
   14   -2    1     -0.38      0.00
   14   -2    2     -0.14      0.00
   14   -2    3     -0.01      0.00
   14   -2    4     -0.07      0.00
   14   -2    5     -0.04      0.00
   14   -2    6      0.20      0.00
   14   -2    7      0.41      0.00
   14   -2    8      0.34      0.00
   14   -2    9      0.02      0.00
  -14    1    0      0.39      0.00
   14   -1    1      0.46      0.00
   14   -1    2      0.23      0.00
   14   -1    3      0.01      0.00
   14   -1    4      0.02      0.00
   14   -1    5      0.08      0.00
   14   -1    6     -0.05      0.00
   14   -1    7     -0.24      0.00
   14   -1    8     -0.25      0.00
   14   -1    9     -0.07      0.00
   14   -1   10      0.14      0.00
   14    0    0     -0.33      0.00
   14    0    1     -0.40      0.00
   14    0    2     -0.21      0.00
   14    0    3      0.01      0.00
   14    0    4      0.00      0.00
   14    0    5     -0.11      0.00
   14    0    6     -0.12      0.00
   14    0    7     -0.05      0.00
   14    0    8     -0.02      0.00
   14    0    9     -0.02      0.00
   14    0   10      0.00      0.00
   14    1    0      0.24      0.00
   14    1    1      0.28      0.00
   14    1    2      0.13      0.00
   14    1    3      0.00      0.00
   14    1    4      0.06      0.00
   14    1    5      0.21      0.00
   14    1    6      0.25      0.00
   14    1    7      0.24      0.00
   14    1    8      0.24      0.00
   14    1    9      0.15      0.00
   14    1   10     -0.10      0.00
   14    1   11     -0.29      0.00
   14    2    0     -0.09      0.00
   14    2    1     -0.10      0.00
   14    2    2     -0.01      0.00
   14    2    3      0.01      0.00
   14    2    4     -0.20      0.00
   14    2    5     -0.43      0.00
   14    2    6     -0.43      0.00
   14    2    7     -0.29      0.00
   14    2   10      0.13      0.00
   14    2   11      0.42      0.00
   14    3    1     -0.07      0.00
   14    3    2     -0.14      0.00
   14    3    3     -0.10      0.00
   14    3    4      0.21      0.00
   14    3    5      0.55      0.00
   14    3    6      0.52      0.00
   14    3    7      0.17      0.00
   14    3   11     -0.35      0.00
   14    4    1      0.07      0.00
   14    4    2      0.15      0.00
   14    4    3      0.15      0.00
   14    4    4     -0.08      0.00
   14    4    5     -0.39      0.00
   14    4    6     -0.36      0.00
   14    4    7      0.12      0.00
   14    4    8      0.59      0.00
   14    4    9      0.67      0.00
   14    5    2      0.04      0.00
   14    5    3      0.01      0.00
   14    5    4      0.04      0.00
   14    5    5      0.16      0.00
   14    5    6      0.12      0.00
   14    5    7     -0.31      0.00
   14    5    8     -0.86      0.00
   14    5    9     -1.02      0.00
   14    5   10     -0.74      0.00
   14    6    3     -0.26      0.00
   14    6    4     -0.20      0.00
   14    6    5     -0.11      0.00
   14    6    6     -0.04      0.00
   14    6    7      0.17      0.00
   14    6    8      0.50      0.00
   14    6    9      0.66      0.00
   14    6   10      0.48      0.00
   14    7    4      0.32      0.00
   14    7    5      0.15      0.00
   14    7    6      0.07      0.00
   14    7    7      0.11      0.00
   14    7    8      0.14      0.00
   14    7    9      0.14      0.00
   14    7   10      0.21      0.00
   14    8    7     -0.16      0.00
   15   -1    4     -0.22      0.00
   15   -1    5     -0.43      0.00
   15   -1    6     -0.50      0.00
   15    0    3      0.24      0.00
   15    0    4      0.39      0.00
   15    0    5      0.59      0.00
   15    0    6      0.62      0.00
   15    0    7      0.49      0.00
   15    1    3     -0.25      0.00
   15    1    4     -0.39      0.00
   15    1    5     -0.49      0.00
   15    1    6     -0.41      0.00
   15    1    7     -0.24      0.00
   15    2    3      0.15      0.00
   15    2    4      0.24      0.00
   15    2    5      0.28      0.00
   15    2    6      0.13      0.00
   15    2    7     -0.08      0.00
   15    3    4      0.02      0.00
   15    3    5     -0.04      0.00
   15    3    6      0.00      0.00
   15    3    7      0.14      0.00
   15    4    5     -0.19      0.00
   15    4    6     -0.03      0.00
   15    4    7      0.00      0.00
   15    5    7     -0.12      0.00
   16    6    5      0.30      0.00
   15    0    0      0.16      0.00
   16    0    0      0.38      0.00
  -16    1    0     -0.25      0.00
  -15    1    0     -0.12      0.00
   15    1    0     -0.22      0.00
   16    1    0     -0.30      0.00
  -16    2    0      0.03      0.00
  -15    2    0      0.19      0.00
   15    2    0      0.09      0.00
   16    2    0      0.15      0.00
  -16    3    0      0.12      0.00
  -15    3    0     -0.19      0.00
  -14    3    0      0.24      0.00
   14    3    0     -0.04      0.00
   15    3    0      0.14      0.00
   16    3    0     -0.12      0.00
  -16    4    0     -0.23      0.00
  -15    4    0      0.09      0.00
  -14    4    0     -0.02      0.00
   14    4    0      0.00      0.00
   15    4    0     -0.20      0.00
   16    4    0      0.14      0.00
  -15    5    0     -0.01      0.00
  -14    5    0     -0.06      0.00
   14    5    0      0.14      0.00
   15    5    0      0.02      0.00
   16    5    0     -0.05      0.00
  -15    6    0     -0.02      0.00
  -14    6    0      0.03      0.00
  -13    6    0      0.46      0.00
   14    6    0     -0.18      0.00
   15    6    0      0.13      0.00
  -15    7    0      0.04      0.00
  -14    7    0      0.00      0.00
  -13    7    0     -0.29      0.00
   13    7    0     -0.18      0.00
   14    7    0      0.13      0.00
   15    7    0     -0.08      0.00
  -14    8    0     -0.09      0.00
  -13    8    0      0.01      0.00
  -12    8    0      0.09      0.00
   13    8    0      0.14      0.00
   14    8    0     -0.11      0.00
  -14    9    0      0.21      0.00
  -13    9    0     -0.05      0.00
  -12    9    0     -0.25      0.00
   12    9    0      0.22      0.00
   13    9    0     -0.11      0.00
   14    9    0      0.09      0.00
  -13   10    0      0.22      0.00
  -12   10    0      0.01      0.00
  -11   10    0     -0.15      0.00
   11   10    0      0.58      0.00
   12   10    0     -0.26      0.00
   13   10    0      0.01      0.00
  -12   11    0      0.15      0.00
  -11   11    0      0.15      0.00
  -10   11    0      0.03      0.00
   10   11    0     -0.05      0.00
   11   11    0     -0.31      0.00
   12   11    0      0.14      0.00
   13   11    0      0.07      0.00
  -12   12    0     -0.08      0.00
  -11   12    0     -0.17      0.00
  -10   12    0      0.14      0.00
   -9   12    0     -0.07      0.00
    9   12    0     -0.05      0.00
   10   12    0      0.09      0.00
   11   12    0      0.04      0.00
   12   12    0     -0.09      0.00
  -11   13    0      0.03      0.00
  -10   13    0     -0.01      0.00
   -9   13    0      0.11      0.00
   -8   13    0     -0.21      0.00
   -7   13    0      0.12      0.00
    8   13    0      0.09      0.00
    9   13    0     -0.11      0.00
   10   13    0     -0.13      0.00
   11   13    0      0.04      0.00
   -9   14    0      0.05      0.00
   -8   14    0      0.07      0.00
   -7   14    0     -0.11      0.00
   -6   14    0      0.24      0.00
   -5   14    0     -0.03      0.00
    3   14    0      0.22      0.00
    6   14    0      0.03      0.00
    7   14    0     -0.30      0.00
    8   14    0      0.11      0.00
    9   14    0      0.04      0.00
   10   14    0      0.12      0.00
   -8   15    0      0.16      0.00
   -7   15    0     -0.15      0.00
   -6   15    0     -0.16      0.00
   -5   15    0      0.22      0.00
   -4   15    0      0.17      0.00
   -3   15    0     -0.07      0.00
   -2   15    0     -0.30      0.00
   -1   15    0     -0.05      0.00
    0   15    0      0.28      0.00
    1   15    0      0.28      0.00
    2   15    0     -0.37      0.00
    3   15    0     -0.11      0.00
    4   15    0      0.25      0.00
    5   15    0     -0.27      0.00
    6   15    0      0.20      0.00
    7   15    0      0.15      0.00
    8   15    0     -0.21      0.00
   -7  -15    1      0.08      0.00
   -6  -15    1      0.15      0.00
   -5  -15    1     -0.26      0.00
   -4  -15    1      0.25      0.00
   -3  -15    1      0.00      0.00
   -2  -15    1     -0.43      0.00
   -1  -15    1      0.16      0.00
    0  -15    1      0.34      0.00
    1  -15    1      0.10      0.00
    2  -15    1     -0.45      0.00
    3  -15    1     -0.04      0.00
    4  -15    1      0.17      0.00
    5  -15    1      0.15      0.00
    6  -15    1     -0.08      0.00
    7  -15    1     -0.10      0.00
    8  -15    1      0.10      0.00
   -9  -14    1     -0.01      0.00
   -8  -14    1      0.01      0.00
   -7  -14    1     -0.18      0.00
   -6  -14    1      0.05      0.00
   -5  -14    1      0.27      0.00
   -4  -14    1     -0.34      0.00
    5  -14    1      0.06      0.00
    6  -14    1      0.16      0.00
    7  -14    1     -0.13      0.00
    8  -14    1      0.09      0.00
    9  -14    1      0.12      0.00
  -10  -13    1     -0.22      0.00
   -9  -13    1      0.09      0.00
   -8  -13    1      0.08      0.00
   -7  -13    1      0.12      0.00
   -3  -13    1      0.09      0.00
    7  -13    1      0.21      0.00
    8  -13    1     -0.18      0.00
    9  -13    1      0.10      0.00
   10  -13    1      0.03      0.00
   11  -13    1     -0.09      0.00
  -11  -12    1      0.06      0.00
  -10  -12    1      0.19      0.00
   -9  -12    1     -0.24      0.00
   -8  -12    1     -0.13      0.00
    9  -12    1     -0.13      0.00
   10  -12    1      0.24      0.00
   11  -12    1     -0.08      0.00
   12  -12    1     -0.13      0.00
  -12  -11    1      0.11      0.00
  -11  -11    1     -0.31      0.00
  -10  -11    1     -0.06      0.00
   10  -11    1     -0.13      0.00
   11  -11    1      0.03      0.00
   12  -11    1      0.23      0.00
  -13  -10    1     -0.08      0.00
  -12  -10    1     -0.14      0.00
  -11  -10    1      0.54      0.00
    9  -10    1      0.22      0.00
   11  -10    1      0.04      0.00
   12  -10    1     -0.17      0.00
   13  -10    1      0.17      0.00
  -13   -9    1     -0.03      0.00
  -12   -9    1      0.09      0.00
  -11   -9    1     -0.44      0.00
   12   -9    1     -0.09      0.00
   13   -9    1     -0.06      0.00
   14   -9    1      0.16      0.00
  -14   -8    1     -0.07      0.00
  -13   -8    1      0.13      0.00
  -12   -8    1      0.05      0.00
   13   -8    1     -0.03      0.00
   14   -8    1     -0.02      0.00
  -14   -7    1      0.11      0.00
  -13   -7    1     -0.15      0.00
   13   -7    1     -0.22      0.00
   14   -7    1     -0.07      0.00
   15   -7    1      0.12      0.00
  -15   -6    1      0.23      0.00
  -14   -6    1     -0.18      0.00
  -13   -6    1      0.17      0.00
   14   -6    1      0.01      0.00
   15   -6    1     -0.02      0.00
  -15   -5    1     -0.16      0.00
  -14   -5    1      0.18      0.00
  -13   -5    1     -0.22      0.00
   14   -5    1      0.00      0.00
   15   -5    1     -0.07      0.00
   16   -5    1      0.29      0.00
  -15   -4    1     -0.05      0.00
  -14   -4    1     -0.08      0.00
   14   -4    1     -0.01      0.00
   15   -4    1      0.18      0.00
   16   -4    1     -0.22      0.00
  -16   -3    1     -0.01      0.00
  -15   -3    1      0.10      0.00
  -14   -3    1     -0.01      0.00
   15   -3    1     -0.33      0.00
   16   -3    1      0.18      0.00
  -16   -2    1      0.04      0.00
  -15   -2    1      0.07      0.00
  -14   -2    1     -0.05      0.00
   15   -2    1      0.41      0.00
   16   -2    1     -0.09      0.00
  -16   -1    1     -0.13      0.00
  -15   -1    1     -0.18      0.00
  -14   -1    1      0.14      0.00
   15   -1    1     -0.34      0.00
   16   -1    1     -0.15      0.00
  -16    0    1      0.19      0.00
  -15    0    1      0.06      0.00
  -14    0    1     -0.15      0.00
   15    0    1      0.26      0.00
   16    0    1      0.37      0.00
  -16    1    1     -0.15      0.00
  -15    1    1      0.12      0.00
  -14    1    1      0.15      0.00
   15    1    1     -0.23      0.00
   16    1    1     -0.32      0.00
  -16    2    1      0.10      0.00
  -15    2    1     -0.18      0.00
  -14    2    1     -0.18      0.00
   -1    2    1     -0.11      0.00
   15    2    1      0.10      0.00
   16    2    1      0.11      0.00
  -16    3    1     -0.08      0.00
  -15    3    1      0.17      0.00
  -14    3    1      0.11      0.00
   15    3    1      0.13      0.00
   16    3    1     -0.02      0.00
  -15    4    1     -0.18      0.00
  -14    4    1      0.06      0.00
   15    4    1     -0.23      0.00
   16    4    1      0.08      0.00
  -15    5    1      0.12      0.00
  -14    5    1     -0.15      0.00
   14    5    1      0.08      0.00
   15    5    1      0.11      0.00
   16    5    1     -0.08      0.00
  -15    6    1     -0.02      0.00
  -14    6    1      0.08      0.00
  -13    6    1      0.37      0.00
   14    6    1     -0.15      0.00
   15    6    1      0.02      0.00
   16    6    1     -0.04      0.00
  -14    7    1      0.02      0.00
  -13    7    1     -0.30      0.00
   14    7    1      0.11      0.00
   15    7    1      0.00      0.00
  -14    8    1     -0.13      0.00
  -13    8    1      0.06      0.00
  -12    8    1      0.03      0.00
   13    8    1      0.10      0.00
   14    8    1     -0.09      0.00
   15    8    1     -0.06      0.00
  -14    9    1      0.23      0.00
  -13    9    1     -0.05      0.00
  -12    9    1     -0.36      0.00
   -8    9    1     -0.33      0.00
   12    9    1      0.18      0.00
   13    9    1     -0.14      0.00
   14    9    1      0.16      0.00
  -13   10    1      0.22      0.00
  -12   10    1      0.19      0.00
  -11   10    1     -0.21      0.00
   12   10    1     -0.16      0.00
   13   10    1      0.13      0.00
   14   10    1     -0.17      0.00
  -12   11    1      0.06      0.00
  -11   11    1      0.13      0.00
  -10   11    1      0.27      0.00
   11   11    1     -0.06      0.00
   12   11    1      0.00      0.00
   13   11    1     -0.02      0.00
  -11   12    1     -0.11      0.00
  -10   12    1     -0.03      0.00
   -9   12    1     -0.08      0.00
   10   12    1     -0.02      0.00
   11   12    1     -0.10      0.00
   12   12    1      0.04      0.00
  -10   13    1     -0.03      0.00
   -9   13    1      0.18      0.00
   -8   13    1     -0.21      0.00
   -7   13    1      0.00      0.00
    8   13    1      0.10      0.00
    9   13    1     -0.33      0.00
   10   13    1      0.04      0.00
   11   13    1      0.09      0.00
   -9   14    1     -0.07      0.00
   -8   14    1      0.05      0.00
   -7   14    1     -0.05      0.00
   -6   14    1      0.23      0.00
    3   14    1      0.27      0.00
    7   14    1     -0.30      0.00
    8   14    1      0.15      0.00
    9   14    1      0.13      0.00
   10   14    1      0.01      0.00
   -8   15    1      0.16      0.00
   -7   15    1     -0.16      0.00
   -6   15    1     -0.20      0.00
   -5   15    1      0.25      0.00
   -4   15    1      0.07      0.00
   -3   15    1     -0.02      0.00
   -2   15    1     -0.11      0.00
    3   15    1     -0.08      0.00
    4   15    1      0.13      0.00
    5   15    1     -0.29      0.00
    6   15    1      0.33      0.00
    7   15    1      0.11      0.00
    8   15    1     -0.32      0.00
    9   15    1      0.08      0.00
   -6  -15    2      0.09      0.00
   -5  -15    2     -0.23      0.00
   -4  -15    2      0.16      0.00
   -3  -15    2      0.07      0.00
   -2  -15    2     -0.25      0.00
   -1  -15    2      0.02      0.00
    0  -15    2      0.19      0.00
    1  -15    2      0.17      0.00
    2  -15    2     -0.41      0.00
    3  -15    2      0.10      0.00
    4  -15    2      0.01      0.00
    5  -15    2      0.08      0.00
    6  -15    2      0.01      0.00
    7  -15    2     -0.03      0.00
    8  -15    2     -0.01      0.00
   -8  -14    2     -0.10      0.00
   -7  -14    2     -0.07      0.00
   -6  -14    2      0.07      0.00
   -5  -14    2      0.21      0.00
   -4  -14    2     -0.21      0.00
   -3  -14    2      0.05      0.00
    4  -14    2     -0.16      0.00
    5  -14    2      0.19      0.00
    6  -14    2     -0.03      0.00
    7  -14    2     -0.06      0.00
    8  -14    2      0.11      0.00
    9  -14    2      0.07      0.00
   -9  -13    2      0.11      0.00
   -8  -13    2      0.06      0.00
   -7  -13    2      0.08      0.00
   -6  -13    2     -0.18      0.00
   -3  -13    2      0.13      0.00
    7  -13    2      0.18      0.00
    8  -13    2     -0.19      0.00
    9  -13    2      0.18      0.00
   10  -13    2      0.04      0.00
   11  -13    2     -0.18      0.00
  -10  -12    2      0.16      0.00
   -9  -12    2     -0.23      0.00
   -8  -12    2     -0.02      0.00
   -7  -12    2      0.05      0.00
    9  -12    2     -0.31      0.00
   10  -12    2      0.27      0.00
   11  -12    2      0.04      0.00
   12  -12    2     -0.14      0.00
  -11  -11    2     -0.12      0.00
  -10  -11    2     -0.06      0.00
   -9  -11    2      0.33      0.00
   10  -11    2     -0.18      0.00
   11  -11    2     -0.11      0.00
   12  -11    2      0.22      0.00
   13  -11    2      0.05      0.00
  -12  -10    2      0.03      0.00
  -11  -10    2      0.24      0.00
  -10  -10    2     -0.10      0.00
   11  -10    2      0.27      0.00
   12  -10    2     -0.27      0.00
   13  -10    2      0.13      0.00
  -13   -9    2      0.01      0.00
  -12   -9    2     -0.11      0.00
  -11   -9    2     -0.16      0.00
   12   -9    2      0.12      0.00
   13   -9    2     -0.11      0.00
   14   -9    2      0.13      0.00
  -13   -8    2      0.03      0.00
  -12   -8    2      0.15      0.00
  -11   -8    2     -0.13      0.00
   13   -8    2     -0.01      0.00
   14   -8    2      0.08      0.00
   15   -8    2     -0.15      0.00
  -14   -7    2     -0.01      0.00
  -13   -7    2      0.00      0.00
  -12   -7    2     -0.10      0.00
   13   -7    2     -0.11      0.00
   14   -7    2     -0.17      0.00
   15   -7    2      0.15      0.00
  -14   -6    2     -0.05      0.00
  -13   -6    2     -0.03      0.00
   14   -6    2      0.00      0.00
   15   -6    2      0.03      0.00
   16   -6    2     -0.21      0.00
  -15   -5    2     -0.23      0.00
  -14   -5    2      0.13      0.00
  -13   -5    2     -0.07      0.00
   14   -5    2      0.13      0.00
   15   -5    2     -0.15      0.00
   16   -5    2      0.20      0.00
  -15   -4    2      0.04      0.00
  -14   -4    2     -0.10      0.00
  -13   -4    2      0.27      0.00
   15   -4    2      0.13      0.00
   16   -4    2      0.00      0.00
  -15   -3    2      0.09      0.00
  -14   -3    2      0.03      0.00
   15   -3    2     -0.15      0.00
   16   -3    2     -0.07      0.00
  -15   -2    2     -0.01      0.00
  -14   -2    2     -0.04      0.00
   15   -2    2      0.24      0.00
   16   -2    2      0.02      0.00
  -15   -1    2     -0.12      0.00
  -14   -1    2      0.10      0.00
   15   -1    2     -0.28      0.00
   16   -1    2     -0.08      0.00
  -15    0    2      0.06      0.00
  -14    0    2     -0.10      0.00
   15    0    2      0.25      0.00
   16    0    2      0.23      0.00
  -15    1    2      0.10      0.00
  -14    1    2      0.07      0.00
   15    1    2     -0.21      0.00
   16    1    2     -0.21      0.00
  -15    2    2     -0.21      0.00
  -14    2    2     -0.08      0.00
   15    2    2      0.11      0.00
   16    2    2     -0.01      0.00
  -15    3    2      0.27      0.00
  -14    3    2      0.03      0.00
   -2    3    2     -1.05      0.00
   15    3    2      0.07      0.00
   16    3    2      0.16      0.00
  -15    4    2     -0.29      0.00
  -14    4    2      0.15      0.00
   15    4    2     -0.15      0.00
   16    4    2     -0.11      0.00
  -15    5    2      0.21      0.00
  -14    5    2     -0.27      0.00
  -13    5    2      0.01      0.00
   15    5    2      0.07      0.00
   16    5    2      0.01      0.00
  -15    6    2     -0.04      0.00
  -14    6    2      0.20      0.00
  -13    6    2      0.12      0.00
   14    6    2     -0.21      0.00
   15    6    2      0.01      0.00
   16    6    2      0.01      0.00
  -14    7    2     -0.05      0.00
  -13    7    2     -0.20      0.00
  -12    7    2      0.42      0.00
   14    7    2      0.20      0.00
   15    7    2      0.06      0.00
   16    7    2      0.03      0.00
  -14    8    2     -0.07      0.00
  -13    8    2      0.08      0.00
  -12    8    2     -0.04      0.00
   13    8    2      0.15      0.00
   14    8    2     -0.13      0.00
   15    8    2     -0.17      0.00
  -13    9    2     -0.04      0.00
  -12    9    2     -0.35      0.00
  -11    9    2      0.16      0.00
   13    9    2     -0.19      0.00
   14    9    2      0.18      0.00
   15    9    2      0.13      0.00
  -13   10    2      0.18      0.00
  -12   10    2      0.27      0.00
  -11   10    2     -0.19      0.00
   12   10    2      0.01      0.00
   13   10    2      0.18      0.00
   14   10    2     -0.25      0.00
  -12   11    2      0.00      0.00
  -11   11    2      0.07      0.00
  -10   11    2      0.37      0.00
   11   11    2      0.24      0.00
   12   11    2     -0.20      0.00
   13   11    2     -0.08      0.00
   14   11    2      0.21      0.00
  -11   12    2      0.01      0.00
  -10   12    2     -0.14      0.00
   -9   12    2     -0.06      0.00
   10   12    2     -0.03      0.00
   11   12    2     -0.25      0.00
   12   12    2      0.19      0.00
   13   12    2     -0.02      0.00
  -10   13    2     -0.02      0.00
   -9   13    2      0.17      0.00
   -8   13    2     -0.10      0.00
   -7   13    2     -0.07      0.00
    3   13    2     -0.11      0.00
    9   13    2     -0.38      0.00
   10   13    2      0.16      0.00
   11   13    2      0.08      0.00
   12   13    2      0.00      0.00
   -9   14    2     -0.10      0.00
   -8   14    2     -0.01      0.00
   -7   14    2     -0.02      0.00
   -6   14    2      0.18      0.00
    3   14    2      0.14      0.00
    4   14    2     -0.12      0.00
    7   14    2     -0.10      0.00
    8   14    2      0.09      0.00
    9   14    2      0.16      0.00
   10   14    2     -0.11      0.00
   11   14    2      0.00      0.00
   -8   15    2      0.15      0.00
   -7   15    2     -0.14      0.00
   -6   15    2     -0.18      0.00
   -5   15    2      0.20      0.00
   -4   15    2     -0.04      0.00
   -3   15    2      0.05      0.00
    3   15    2      0.08      0.00
    4   15    2     -0.06      0.00
    5   15    2     -0.20      0.00
    6   15    2      0.44      0.00
    7   15    2     -0.11      0.00
    8   15    2     -0.29      0.00
    9   15    2      0.17      0.00
   10   15    2      0.04      0.00
   -5  -15    3     -0.16      0.00
   -4  -15    3      0.05      0.00
   -3  -15    3      0.06      0.00
   -2  -15    3     -0.04      0.00
   -1  -15    3      0.07      0.00
    0  -15    3     -0.01      0.00
    1  -15    3      0.00      0.00
    2  -15    3     -0.18      0.00
    3  -15    3      0.27      0.00
    4  -15    3     -0.17      0.00
    5  -15    3      0.04      0.00
    6  -15    3      0.06      0.00
    7  -15    3      0.01      0.00
   -7  -14    3      0.00      0.00
   -6  -14    3      0.10      0.00
   -5  -14    3      0.05      0.00
   -4  -14    3     -0.02      0.00
   -3  -14    3      0.14      0.00
   -2  -14    3     -0.31      0.00
   -1  -14    3     -0.04      0.00
    0  -14    3      0.13      0.00
    1  -14    3      0.29      0.00
    2  -14    3     -0.08      0.00
    3  -14    3     -0.36      0.00
    4  -14    3      0.09      0.00
    5  -14    3      0.22      0.00
    6  -14    3     -0.13      0.00
    7  -14    3      0.03      0.00
    8  -14    3      0.08      0.00
    9  -14    3      0.00      0.00
   -9  -13    3      0.02      0.00
   -8  -13    3      0.05      0.00
   -7  -13    3      0.10      0.00
   -6  -13    3     -0.17      0.00
   -5  -13    3      0.02      0.00
   -4  -13    3     -0.15      0.00
   -3  -13    3     -0.03      0.00
    6  -13    3      0.12      0.00
    7  -13    3      0.06      0.00
    8  -13    3     -0.14      0.00
    9  -13    3      0.19      0.00
   10  -13    3      0.04      0.00
  -10  -12    3      0.02      0.00
   -9  -12    3     -0.08      0.00
   -8  -12    3      0.11      0.00
   -7  -12    3     -0.17      0.00
   -6  -12    3      0.09      0.00
   -3  -12    3     -0.24      0.00
    8  -12    3      0.14      0.00
    9  -12    3     -0.41      0.00
   10  -12    3      0.26      0.00
   11  -12    3      0.01      0.00
   12  -12    3     -0.03      0.00
  -11  -11    3      0.02      0.00
  -10  -11    3      0.03      0.00
   -9  -11    3      0.12      0.00
   -8  -11    3     -0.12      0.00
   10  -11    3     -0.22      0.00
   11  -11    3     -0.08      0.00
   12  -11    3      0.07      0.00
  -11  -10    3      0.00      0.00
  -10  -10    3     -0.06      0.00
   -9  -10    3     -0.10      0.00
   11  -10    3      0.33      0.00
   12  -10    3     -0.25      0.00
   13  -10    3      0.07      0.00
  -12   -9    3     -0.15      0.00
  -11   -9    3      0.08      0.00
  -10   -9    3      0.07      0.00
   12   -9    3      0.32      0.00
   13   -9    3     -0.18      0.00
   14   -9    3      0.10      0.00
  -13   -8    3     -0.02      0.00
  -12   -8    3      0.16      0.00
  -11   -8    3     -0.20      0.00
   13   -8    3      0.08      0.00
   14   -8    3      0.15      0.00
   15   -8    3     -0.16      0.00
  -13   -7    3      0.15      0.00
  -12   -7    3     -0.07      0.00
  -11   -7    3      0.22      0.00
   13   -7    3     -0.03      0.00
   14   -7    3     -0.31      0.00
   15   -7    3      0.19      0.00
  -14   -6    3      0.08      0.00
  -13   -6    3     -0.21      0.00
  -12   -6    3     -0.04      0.00
   14   -6    3      0.08      0.00
   15   -6    3      0.03      0.00
   16   -6    3     -0.25      0.00
  -14   -5    3      0.02      0.00
  -13   -5    3      0.06      0.00
  -12   -5    3      0.03      0.00
   14   -5    3      0.23      0.00
   15   -5    3     -0.22      0.00
   16   -5    3      0.19      0.00
  -14   -4    3     -0.05      0.00
  -13   -4    3      0.28      0.00
   15   -4    3      0.13      0.00
   16   -4    3      0.15      0.00
  -15   -3    3      0.16      0.00
  -14   -3    3      0.00      0.00
  -13   -3    3     -0.61      0.00
   15   -3    3      0.03      0.00
   16   -3    3     -0.36      0.00
  -15   -2    3     -0.12      0.00
  -14   -2    3      0.01      0.00
  -13   -2    3      0.73      0.00
   15   -2    3     -0.01      0.00
   16   -2    3      0.27      0.00
  -15   -1    3     -0.04      0.00
  -14   -1    3      0.07      0.00
  -13   -1    3     -0.54      0.00
   15   -1    3     -0.14      0.00
   16   -1    3     -0.12      0.00
  -15    0    3      0.11      0.00
  -14    0    3     -0.13      0.00
  -13    0    3      0.18      0.00
   16    0    3      0.11      0.00
  -15    1    3     -0.09      0.00
  -14    1    3      0.17      0.00
  -13    1    3      0.04      0.00
   16    1    3     -0.10      0.00
  -15    2    3      0.06      0.00
  -14    2    3     -0.22      0.00
  -13    2    3      0.02      0.00
   16    2    3     -0.04      0.00
  -15    3    3     -0.01      0.00
  -14    3    3      0.18      0.00
  -13    3    3     -0.09      0.00
   15    3    3      0.04      0.00
   16    3    3      0.15      0.00
  -15    4    3     -0.09      0.00
  -14    4    3      0.03      0.00
  -13    4    3     -0.07      0.00
   -2    4    3      0.00      0.00
   15    4    3     -0.16      0.00
   16    4    3     -0.12      0.00
  -14    5    3     -0.26      0.00
  -13    5    3      0.23      0.00
   15    5    3      0.10      0.00
   16    5    3      0.01      0.00
  -14    6    3      0.27      0.00
  -13    6    3     -0.13      0.00
  -12    6    3     -0.06      0.00
   15    6    3     -0.01      0.00
   16    6    3      0.06      0.00
  -14    7    3     -0.13      0.00
  -13    7    3     -0.05      0.00
  -12    7    3      0.21      0.00
   14    7    3      0.34      0.00
   15    7    3      0.09      0.00
   16    7    3     -0.10      0.00
  -13    8    3      0.05      0.00
  -12    8    3     -0.06      0.00
   14    8    3     -0.24      0.00
   15    8    3     -0.23      0.00
   16    8    3      0.10      0.00
  -13    9    3      0.00      0.00
  -12    9    3     -0.24      0.00
  -11    9    3      0.02      0.00
   13    9    3     -0.28      0.00
   14    9    3      0.15      0.00
   15    9    3      0.24      0.00
  -12   10    3      0.24      0.00
  -11   10    3     -0.09      0.00
  -10   10    3     -0.34      0.00
   13   10    3      0.20      0.00
   14   10    3     -0.16      0.00
   15   10    3     -0.09      0.00
  -12   11    3      0.02      0.00
  -11   11    3      0.01      0.00
  -10   11    3      0.30      0.00
   -9   11    3      0.11      0.00
   12   11    3     -0.25      0.00
   13   11    3     -0.05      0.00
   14   11    3      0.16      0.00
  -11   12    3      0.06      0.00
  -10   12    3     -0.13      0.00
   -9   12    3     -0.02      0.00
   -8   12    3     -0.01      0.00
   11   12    3     -0.31      0.00
   12   12    3      0.21      0.00
   13   12    3     -0.01      0.00
  -10   13    3     -0.01      0.00
   -9   13    3      0.06      0.00
   -8   13    3      0.03      0.00
   -7   13    3     -0.05      0.00
    4   13    3     -0.08      0.00
   10   13    3      0.09      0.00
   11   13    3      0.02      0.00
   12   13    3      0.05      0.00
   -9   14    3     -0.03      0.00
   -8   14    3     -0.05      0.00
   -7   14    3     -0.05      0.00
   -6   14    3      0.14      0.00
    3   14    3      0.11      0.00
    4   14    3      0.05      0.00
    8   14    3      0.02      0.00
    9   14    3      0.07      0.00
   10   14    3     -0.16      0.00
   11   14    3      0.12      0.00
   -8   15    3      0.11      0.00
   -7   15    3     -0.10      0.00
   -6   15    3     -0.09      0.00
   -5   15    3      0.11      0.00
   -4   15    3     -0.12      0.00
   -3   15    3      0.14      0.00
    3   15    3      0.10      0.00
    5   15    3      0.05      0.00
    6   15    3      0.36      0.00
    7   15    3     -0.31      0.00
    8   15    3     -0.18      0.00
    9   15    3      0.20      0.00
   10   15    3      0.08      0.00
   -4  -15    4      0.04      0.00
   -3  -15    4      0.00      0.00
   -2  -15    4      0.02      0.00
   -1  -15    4      0.25      0.00
    0  -15    4     -0.17      0.00
    1  -15    4     -0.21      0.00
    2  -15    4      0.03      0.00
    3  -15    4      0.29      0.00
    4  -15    4     -0.21      0.00
    5  -15    4      0.05      0.00
    6  -15    4      0.02      0.00
   -6  -14    4      0.05      0.00
   -5  -14    4     -0.07      0.00
   -4  -14    4      0.11      0.00
   -3  -14    4      0.17      0.00
   -2  -14    4     -0.34      0.00
   -1  -14    4     -0.22      0.00
    0  -14    4      0.21      0.00
    1  -14    4      0.49      0.00
    2  -14    4     -0.19      0.00
    3  -14    4     -0.45      0.00
    4  -14    4      0.20      0.00
    5  -14    4      0.09      0.00
    6  -14    4     -0.03      0.00
    7  -14    4      0.04      0.00
    8  -14    4      0.03      0.00
    9  -14    4     -0.01      0.00
   -8  -13    4      0.03      0.00
   -7  -13    4      0.01      0.00
   -6  -13    4     -0.09      0.00
   -5  -13    4      0.18      0.00
   -4  -13    4     -0.36      0.00
   -3  -13    4     -0.04      0.00
   -2  -13    4      0.63      0.00
    5  -13    4     -0.33      0.00
    6  -13    4      0.06      0.00
    7  -13    4      0.01      0.00
    8  -13    4      0.00      0.00
    9  -13    4      0.04      0.00
   10  -13    4      0.06      0.00
   -9  -12    4      0.03      0.00
   -8  -12    4      0.18      0.00
   -7  -12    4     -0.26      0.00
   -6  -12    4      0.07      0.00
   -5  -12    4      0.06      0.00
   -4  -12    4      0.23      0.00
   -3  -12    4     -0.20      0.00
    8  -12    4      0.10      0.00
    9  -12    4     -0.25      0.00
   10  -12    4      0.16      0.00
   11  -12    4     -0.09      0.00
  -10  -11    4      0.13      0.00
   -9  -11    4     -0.05      0.00
   -8  -11    4     -0.22      0.00
   -7  -11    4      0.31      0.00
    9  -11    4      0.35      0.00
   10  -11    4     -0.23      0.00
   11  -11    4      0.07      0.00
   12  -11    4     -0.13      0.00
  -11  -10    4      0.01      0.00
  -10  -10    4     -0.08      0.00
   -9  -10    4      0.00      0.00
   -8  -10    4      0.13      0.00
    0  -10    4     -0.06      0.00
   11  -10    4      0.16      0.00
   12  -10    4     -0.09      0.00
   13  -10    4     -0.09      0.00
  -11   -9    4      0.04      0.00
  -10   -9    4     -0.03      0.00
   -9   -9    4      0.02      0.00
   12   -9    4      0.37      0.00
   13   -9    4     -0.15      0.00
   14   -9    4      0.04      0.00
  -12   -8    4      0.04      0.00
  -11   -8    4     -0.08      0.00
  -10   -8    4      0.13      0.00
   13   -8    4      0.18      0.00
   14   -8    4      0.14      0.00
   15   -8    4     -0.08      0.00
  -13   -7    4      0.20      0.00
  -12   -7    4      0.04      0.00
  -11   -7    4      0.01      0.00
   13   -7    4     -0.06      0.00
   14   -7    4     -0.34      0.00
   15   -7    4      0.22      0.00
  -13   -6    4     -0.24      0.00
  -12   -6    4     -0.10      0.00
  -11   -6    4      0.08      0.00
   14   -6    4      0.17      0.00
   15   -6    4     -0.09      0.00
   16   -6    4     -0.16      0.00
  -13   -5    4      0.06      0.00
  -12   -5    4      0.00      0.00
   14   -5    4      0.20      0.00
   15   -5    4     -0.13      0.00
   16   -5    4      0.15      0.00
  -14   -4    4      0.00      0.00
  -13   -4    4      0.27      0.00
  -12   -4    4      0.20      0.00
   15   -4    4      0.13      0.00
   16   -4    4      0.14      0.00
  -14   -3    4     -0.09      0.00
  -13   -3    4     -0.54      0.00
  -12   -3    4     -0.26      0.00
   15   -3    4      0.02      0.00
   16   -3    4     -0.40      0.00
  -14   -2    4      0.14      0.00
  -13   -2    4      0.58      0.00
   15   -2    4      0.00      0.00
   16   -2    4      0.34      0.00
  -14   -1    4     -0.08      0.00
  -13   -1    4     -0.36      0.00
   16   -1    4     -0.12      0.00
  -14    0    4     -0.05      0.00
  -13    0    4      0.00      0.00
   16    0    4      0.02      0.00
  -14    1    4      0.18      0.00
  -13    1    4      0.24      0.00
   16    1    4     -0.04      0.00
  -14    2    4     -0.31      0.00
  -13    2    4     -0.18      0.00
   16    2    4      0.05      0.00
  -14    3    4      0.35      0.00
  -13    3    4      0.02      0.00
   16    3    4     -0.05      0.00
  -14    4    4     -0.17      0.00
  -13    4    4     -0.05      0.00
   15    4    4     -0.24      0.00
   16    4    4      0.12      0.00
  -14    5    4     -0.10      0.00
  -13    5    4      0.20      0.00
  -12    5    4     -0.01      0.00
   15    5    4      0.27      0.00
   16    5    4     -0.19      0.00
  -14    6    4      0.19      0.00
  -13    6    4     -0.16      0.00
  -12    6    4      0.13      0.00
   15    6    4     -0.18      0.00
   16    6    4      0.20      0.00
  -13    7    4     -0.03      0.00
  -12    7    4      0.01      0.00
   15    7    4      0.15      0.00
   16    7    4     -0.18      0.00
  -13    8    4      0.08      0.00
  -12    8    4     -0.04      0.00
  -11    8    4      0.01      0.00
   -8    8    4     -0.13      0.00
   14    8    4     -0.24      0.00
   15    8    4     -0.21      0.00
   16    8    4      0.13      0.00
  -13    9    4      0.01      0.00
  -12    9    4     -0.14      0.00
  -11    9    4     -0.09      0.00
   14    9    4      0.07      0.00
   15    9    4      0.24      0.00
  -12   10    4      0.16      0.00
  -11   10    4      0.04      0.00
  -10   10    4     -0.29      0.00
   13   10    4      0.17      0.00
   14   10    4      0.04      0.00
   15   10    4     -0.15      0.00
  -11   11    4     -0.04      0.00
  -10   11    4      0.21      0.00
   -9   11    4      0.19      0.00
   12   11    4     -0.05      0.00
   13   11    4      0.03      0.00
   14   11    4     -0.05      0.00
  -11   12    4      0.05      0.00
  -10   12    4     -0.08      0.00
   -9   12    4      0.02      0.00
   -8   12    4     -0.01      0.00
   -7   12    4      0.18      0.00
   11   12    4     -0.21      0.00
   12   12    4      0.10      0.00
   13   12    4     -0.05      0.00
   14   12    4      0.01      0.00
  -10   13    4      0.00      0.00
   -9   13    4     -0.04      0.00
   -8   13    4      0.07      0.00
   -7   13    4      0.07      0.00
    4   13    4     -0.20      0.00
   10   13    4     -0.10      0.00
   11   13    4      0.00      0.00
   12   13    4      0.16      0.00
   13   13    4     -0.12      0.00
   -9   14    4      0.04      0.00
   -8   14    4     -0.02      0.00
   -7   14    4     -0.11      0.00
   -6   14    4      0.14      0.00
   -5   14    4      0.26      0.00
    4   14    4      0.02      0.00
    8   14    4      0.00      0.00
    9   14    4     -0.07      0.00
   10   14    4     -0.08      0.00
   11   14    4      0.20      0.00
   12   14    4     -0.30      0.00
   -8   15    4      0.00      0.00
   -7   15    4     -0.07      0.00
   -6   15    4     -0.03      0.00
   -5   15    4      0.11      0.00
   -4   15    4     -0.21      0.00
   -3   15    4      0.16      0.00
    6   15    4      0.19      0.00
    7   15    4     -0.28      0.00
    8   15    4     -0.14      0.00
    9   15    4      0.19      0.00
   10   15    4      0.09      0.00
   11   15    4     -0.11      0.00
   -2  -15    5      0.03      0.00
   -1  -15    5      0.31      0.00
    0  -15    5     -0.26      0.00
    1  -15    5     -0.17      0.00
    2  -15    5      0.10      0.00
    3  -15    5      0.13      0.00
    4  -15    5     -0.13      0.00
    5  -15    5      0.12      0.00
   -5  -14    5     -0.04      0.00
   -4  -14    5      0.07      0.00
   -3  -14    5      0.16      0.00
   -2  -14    5     -0.21      0.00
   -1  -14    5     -0.33      0.00
    0  -14    5      0.26      0.00
    1  -14    5      0.35      0.00
    2  -14    5     -0.16      0.00
    3  -14    5     -0.25      0.00
    4  -14    5      0.11      0.00
    5  -14    5     -0.08      0.00
    6  -14    5      0.14      0.00
    7  -14    5     -0.03      0.00
    8  -14    5      0.03      0.00
   -6  -13    5      0.10      0.00
   -5  -13    5      0.17      0.00
   -4  -13    5     -0.44      0.00
   -3  -13    5      0.13      0.00
   -2  -13    5      0.35      0.00
   -1  -13    5     -0.22      0.00
    0  -13    5      0.16      0.00
    1  -13    5     -0.38      0.00
    2  -13    5      0.15      0.00
    3  -13    5      0.12      0.00
    4  -13    5      0.04      0.00
    5  -13    5     -0.05      0.00
    6  -13    5     -0.17      0.00
    7  -13    5      0.12      0.00
    8  -13    5      0.05      0.00
    9  -13    5     -0.12      0.00
   10  -13    5      0.07      0.00
   -8  -12    5      0.18      0.00
   -7  -12    5     -0.13      0.00
   -6  -12    5     -0.06      0.00
   -5  -12    5      0.00      0.00
   -4  -12    5      0.43      0.00
    7  -12    5     -0.06      0.00
    8  -12    5      0.04      0.00
    9  -12    5      0.01      0.00
   10  -12    5      0.02      0.00
   11  -12    5     -0.10      0.00
   -9  -11    5     -0.04      0.00
   -8  -11    5     -0.18      0.00
   -7  -11    5      0.28      0.00
   -6  -11    5      0.03      0.00
   -4  -11    5      0.12      0.00
   -3  -11    5      0.26      0.00
    9  -11    5      0.17      0.00
   10  -11    5     -0.12      0.00
   11  -11    5      0.11      0.00
   12  -11    5     -0.17      0.00
  -10  -10    5     -0.04      0.00
   -9  -10    5      0.00      0.00
   -8  -10    5      0.09      0.00
   -7  -10    5     -0.19      0.00
   -1  -10    5     -0.01      0.00
   10  -10    5      0.09      0.00
   11  -10    5      0.02      0.00
   12  -10    5      0.08      0.00
   13  -10    5     -0.28      0.00
  -11   -9    5     -0.13      0.00
  -10   -9    5     -0.08      0.00
   -9   -9    5      0.11      0.00
   -8   -9    5     -0.07      0.00
   11   -9    5     -0.18      0.00
   12   -9    5      0.19      0.00
   13   -9    5      0.07      0.00
   14   -9    5     -0.04      0.00
  -11   -8    5      0.12      0.00
  -10   -8    5      0.17      0.00
   -9   -8    5     -0.09      0.00
   12   -8    5     -0.37      0.00
   13   -8    5      0.11      0.00
   14   -8    5      0.05      0.00
   15   -8    5      0.06      0.00
  -12   -7    5      0.12      0.00
  -11   -7    5     -0.20      0.00
  -10   -7    5     -0.17      0.00
   13   -7    5     -0.10      0.00
   14   -7    5     -0.16      0.00
   15   -7    5      0.12      0.00
  -12   -6    5     -0.19      0.00
  -11   -6    5      0.29      0.00
  -10   -6    5      0.17      0.00
   14   -6    5      0.07      0.00
   15   -6    5     -0.17      0.00
   16   -6    5      0.04      0.00
  -13   -5    5     -0.03      0.00
  -12   -5    5      0.11      0.00
  -11   -5    5     -0.13      0.00
   14   -5    5      0.16      0.00
   15   -5    5      0.07      0.00
   16   -5    5     -0.04      0.00
  -13   -4    5      0.29      0.00
  -12   -4    5      0.13      0.00
  -11   -4    5     -0.30      0.00
   15   -4    5     -0.01      0.00
   16   -4    5      0.16      0.00
  -13   -3    5     -0.37      0.00
  -12   -3    5     -0.29      0.00
   15   -3    5      0.01      0.00
   16   -3    5     -0.26      0.00
  -14   -2    5      0.24      0.00
  -13   -2    5      0.24      0.00
  -12   -2    5      0.15      0.00
   15   -2    5      0.14      0.00
   16   -2    5      0.17      0.00
  -14   -1    5     -0.21      0.00
  -13   -1    5      0.01      0.00
  -12   -1    5      0.13      0.00
   16   -1    5      0.02      0.00
  -14    0    5      0.08      0.00
  -13    0    5     -0.26      0.00
  -12    0    5     -0.14      0.00
   16    0    5     -0.08      0.00
  -14    1    5      0.05      0.00
  -13    1    5      0.37      0.00
  -12    1    5     -0.12      0.00
   16    1    5     -0.03      0.00
  -14    2    5     -0.20      0.00
  -13    2    5     -0.27      0.00
  -12    2    5      0.23      0.00
   16    2    5      0.13      0.00
  -14    3    5      0.30      0.00
  -13    3    5      0.05      0.00
  -12    3    5      0.00      0.00
   16    3    5     -0.20      0.00
  -14    4    5     -0.21      0.00
  -13    4    5      0.01      0.00
  -12    4    5     -0.19      0.00
   16    4    5      0.26      0.00
  -13    5    5      0.07      0.00
  -12    5    5      0.07      0.00
   15    5    5      0.31      0.00
   16    5    5     -0.32      0.00
  -13    6    5     -0.04      0.00
  -12    6    5      0.09      0.00
   15    6    5     -0.29      0.00
  -13    7    5     -0.15      0.00
  -12    7    5      0.00      0.00
  -11    7    5      0.30      0.00
   15    7    5      0.21      0.00
   16    7    5     -0.22      0.00
  -13    8    5      0.22      0.00
  -12    8    5     -0.09      0.00
  -11    8    5     -0.05      0.00
   14    8    5     -0.09      0.00
   15    8    5     -0.15      0.00
   16    8    5      0.09      0.00
  -12    9    5     -0.02      0.00
  -11    9    5     -0.12      0.00
  -10    9    5      0.20      0.00
   14    9    5     -0.08      0.00
   15    9    5      0.10      0.00
   16    9    5      0.04      0.00
  -12   10    5      0.09      0.00
  -11   10    5      0.10      0.00
  -10   10    5     -0.23      0.00
   -9   10    5     -0.29      0.00
   -7   10    5      0.11      0.00
   13   10    5      0.05      0.00
   14   10    5      0.21      0.00
   15   10    5     -0.06      0.00
  -11   11    5     -0.06      0.00
  -10   11    5      0.16      0.00
   -9   11    5      0.14      0.00
   12   11    5      0.21      0.00
   13   11    5      0.12      0.00
   14   11    5     -0.23      0.00
   15   11    5      0.02      0.00
  -10   12    5     -0.08      0.00
   -9   12    5      0.07      0.00
   -8   12    5     -0.01      0.00
   -6   12    5      0.01      0.00
    4   12    5      0.14      0.00
   11   12    5      0.00      0.00
   12   12    5     -0.03      0.00
   13   12    5     -0.13      0.00
   14   12    5      0.12      0.00
   -9   13    5     -0.08      0.00
   -8   13    5      0.06      0.00
   -7   13    5      0.15      0.00
   -6   13    5     -0.12      0.00
    4   13    5     -0.16      0.00
   10   13    5     -0.16      0.00
   11   13    5      0.01      0.00
   12   13    5      0.18      0.00
   13   13    5     -0.11      0.00
   -8   14    5      0.04      0.00
   -7   14    5     -0.12      0.00
   -6   14    5      0.22      0.00
   -5   14    5      0.04      0.00
    9   14    5     -0.04      0.00
   10   14    5      0.02      0.00
   11   14    5      0.14      0.00
   12   14    5     -0.37      0.00
   -7   15    5     -0.06      0.00
   -6   15    5     -0.09      0.00
   -5   15    5      0.27      0.00
   -4   15    5     -0.30      0.00
   -3   15    5      0.08      0.00
    6   15    5      0.13      0.00
    7   15    5     -0.07      0.00
    8   15    5     -0.14      0.00
    9   15    5      0.09      0.00
   10   15    5      0.06      0.00
   11   15    5     -0.15      0.00
    2  -15    6      0.09      0.00
   -3  -14    6      0.22      0.00
   -2  -14    6     -0.19      0.00
   -1  -14    6     -0.22      0.00
    0  -14    6      0.30      0.00
    1  -14    6     -0.01      0.00
    2  -14    6     -0.03      0.00
    3  -14    6      0.00      0.00
    4  -14    6      0.01      0.00
    5  -14    6     -0.15      0.00
    6  -14    6      0.15      0.00
    7  -14    6     -0.06      0.00
   -5  -13    6      0.05      0.00
   -4  -13    6     -0.26      0.00
   -3  -13    6      0.15      0.00
   -2  -13    6      0.11      0.00
   -1  -13    6     -0.18      0.00
    0  -13    6      0.16      0.00
    1  -13    6     -0.02      0.00
    2  -13    6     -0.08      0.00
    3  -13    6     -0.05      0.00
    4  -13    6      0.06      0.00
    5  -13    6      0.08      0.00
    6  -13    6     -0.23      0.00
    7  -13    6      0.26      0.00
    8  -13    6     -0.05      0.00
    9  -13    6     -0.09      0.00
   -7  -12    6      0.01      0.00
   -6  -12    6     -0.16      0.00
   -5  -12    6      0.06      0.00
   -4  -12    6      0.41      0.00
   -3  -12    6     -0.64      0.00
   -2  -12    6      0.23      0.00
   -1  -12    6      0.62      0.00
    5  -12    6     -0.17      0.00
    6  -12    6      0.08      0.00
    7  -12    6     -0.21      0.00
    8  -12    6      0.14      0.00
    9  -12    6      0.09      0.00
   10  -12    6     -0.01      0.00
   11  -12    6     -0.05      0.00
   -8  -11    6     -0.07      0.00
   -7  -11    6      0.12      0.00
   -6  -11    6      0.10      0.00
   -5  -11    6     -0.26      0.00
   -4  -11    6     -0.07      0.00
    8  -11    6     -0.14      0.00
    9  -11    6      0.06      0.00
   10  -11    6      0.01      0.00
   11  -11    6      0.01      0.00
   12  -11    6     -0.06      0.00
   -9  -10    6     -0.07      0.00
   -8  -10    6     -0.06      0.00
   -7  -10    6     -0.05      0.00
   -6  -10    6     -0.08      0.00
   10  -10    6      0.02      0.00
   11  -10    6      0.06      0.00
   12  -10    6      0.13      0.00
   13  -10    6     -0.27      0.00
  -10   -9    6     -0.18      0.00
   -9   -9    6      0.14      0.00
   -8   -9    6      0.06      0.00
   -7   -9    6      0.01      0.00
   11   -9    6     -0.12      0.00
   12   -9    6     -0.05      0.00
   13   -9    6      0.24      0.00
   14   -9    6     -0.02      0.00
  -10   -8    6      0.21      0.00
   -9   -8    6     -0.12      0.00
   -8   -8    6      0.00      0.00
   12   -8    6     -0.08      0.00
   13   -8    6     -0.09      0.00
   14   -8    6     -0.04      0.00
  -11   -7    6     -0.21      0.00
  -10   -7    6     -0.12      0.00
   -9   -7    6     -0.04      0.00
   13   -7    6     -0.03      0.00
   14   -7    6      0.06      0.00
   15   -7    6     -0.01      0.00
  -12   -6    6     -0.14      0.00
  -11   -6    6      0.32      0.00
  -10   -6    6     -0.04      0.00
   14   -6    6     -0.15      0.00
   15   -6    6     -0.12      0.00
   16   -6    6      0.09      0.00
  -12   -5    6      0.18      0.00
  -11   -5    6     -0.30      0.00
  -10   -5    6      0.10      0.00
   14   -5    6      0.24      0.00
   15   -5    6      0.15      0.00
   16   -5    6     -0.17      0.00
  -12   -4    6     -0.06      0.00
  -11   -4    6      0.00      0.00
   15   -4    6     -0.15      0.00
   16   -4    6      0.20      0.00
  -13   -3    6     -0.23      0.00
  -12   -3    6     -0.13      0.00
  -11   -3    6      0.34      0.00
   15   -3    6      0.10      0.00
   16   -3    6     -0.15      0.00
  -13   -2    6      0.00      0.00
  -12   -2    6      0.13      0.00
  -11   -2    6     -0.27      0.00
   15   -2    6      0.14      0.00
   16   -2    6     -0.01      0.00
  -13   -1    6      0.22      0.00
  -12   -1    6      0.09      0.00
  -11   -1    6     -0.22      0.00
  -10   -1    6      0.36      0.00
   16   -1    6      0.16      0.00
  -13    0    6     -0.30      0.00
  -12    0    6     -0.23      0.00
   16    0    6     -0.09      0.00
  -13    1    6      0.27      0.00
  -12    1    6      0.06      0.00
   16    1    6     -0.12      0.00
  -13    2    6     -0.17      0.00
  -12    2    6      0.16      0.00
   16    2    6      0.24      0.00
  -13    3    6      0.04      0.00
  -12    3    6     -0.14      0.00
   16    3    6     -0.19      0.00
  -13    4    6     -0.02      0.00
  -12    4    6     -0.01      0.00
  -11    4    6      0.27      0.00
   16    4    6      0.11      0.00
  -13    5    6      0.09      0.00
  -12    5    6      0.00      0.00
  -11    5    6     -0.44      0.00
   15    5    6      0.08      0.00
   16    5    6     -0.10      0.00
  -13    6    6     -0.06      0.00
  -12    6    6      0.06      0.00
  -11    6    6      0.13      0.00
   15    6    6     -0.12      0.00
   16    6    6      0.16      0.00
  -12    7    6      0.07      0.00
  -11    7    6      0.09      0.00
   15    7    6      0.11      0.00
   16    7    6     -0.18      0.00
  -12    8    6     -0.24      0.00
  -11    8    6      0.03      0.00
  -10    8    6      0.20      0.00
   14    8    6     -0.01      0.00
   15    8    6     -0.03      0.00
   16    8    6      0.07      0.00
  -12    9    6      0.15      0.00
  -11    9    6     -0.16      0.00
  -10    9    6     -0.05      0.00
   13    9    6      0.08      0.00
   14    9    6     -0.14      0.00
   15    9    6     -0.06      0.00
   16    9    6      0.11      0.00
  -11   10    6      0.08      0.00
  -10   10    6     -0.04      0.00
   -9   10    6     -0.27      0.00
   13   10    6     -0.14      0.00
   14   10    6      0.24      0.00
   15   10    6      0.10      0.00
  -10   11    6      0.05      0.00
   -9   11    6      0.07      0.00
   -8   11    6     -0.01      0.00
   13   11    6      0.20      0.00
   14   11    6     -0.23      0.00
   15   11    6     -0.07      0.00
  -10   12    6     -0.08      0.00
   -9   12    6      0.11      0.00
   -8   12    6     -0.11      0.00
   -7   12    6     -0.08      0.00
   -5   12    6     -0.09      0.00
   12   12    6     -0.08      0.00
   13   12    6     -0.19      0.00
   14   12    6      0.11      0.00
   -9   13    6     -0.09      0.00
   -8   13    6      0.09      0.00
   -7   13    6      0.11      0.00
   -6   13    6     -0.24      0.00
   10   13    6     -0.03      0.00
   11   13    6     -0.01      0.00
   12   13    6      0.11      0.00
   13   13    6     -0.03      0.00
   -8   14    6      0.03      0.00
   -7   14    6     -0.03      0.00
   -6   14    6      0.29      0.00
   -5   14    6     -0.19      0.00
   -4   14    6      0.11      0.00
    9   14    6      0.22      0.00
   10   14    6      0.01      0.00
   11   14    6      0.03      0.00
   12   14    6     -0.28      0.00
   -7   15    6     -0.11      0.00
   -6   15    6     -0.20      0.00
   -5   15    6      0.46      0.00
   -4   15    6     -0.33      0.00
   -3   15    6     -0.01      0.00
   -2   15    6      0.65      0.00
    7   15    6      0.17      0.00
    8   15    6     -0.03      0.00
    9   15    6     -0.13      0.00
   10   15    6      0.03      0.00
   11   15    6     -0.08      0.00
   -1  -14    7     -0.03      0.00
    0  -14    7      0.23      0.00
    1  -14    7     -0.20      0.00
    2  -14    7      0.04      0.00
    3  -14    7      0.05      0.00
    4  -14    7      0.05      0.00
    5  -14    7     -0.09      0.00
   -3  -13    7     -0.06      0.00
   -2  -13    7      0.13      0.00
   -1  -13    7     -0.19      0.00
    0  -13    7      0.12      0.00
    1  -13    7      0.21      0.00
    2  -13    7     -0.24      0.00
    3  -13    7     -0.02      0.00
    4  -13    7      0.02      0.00
    5  -13    7     -0.04      0.00
    6  -13    7     -0.02      0.00
    7  -13    7      0.26      0.00
    8  -13    7     -0.12      0.00
   -5  -12    7      0.08      0.00
   -4  -12    7      0.14      0.00
   -3  -12    7     -0.39      0.00
   -2  -12    7      0.29      0.00
   -1  -12    7      0.33      0.00
    0  -12    7     -0.63      0.00
    1  -12    7     -0.05      0.00
    2  -12    7      0.30      0.00
    3  -12    7      0.02      0.00
    4  -12    7      0.14      0.00
    5  -12    7     -0.10      0.00
    6  -12    7     -0.07      0.00
    7  -12    7     -0.28      0.00
    8  -12    7      0.28      0.00
    9  -12    7     -0.01      0.00
   10  -12    7      0.11      0.00
   -7  -11    7      0.08      0.00
   -6  -11    7      0.01      0.00
   -5  -11    7     -0.18      0.00
   -4  -11    7     -0.06      0.00
   -3  -11    7      0.44      0.00
   -2  -11    7     -0.56      0.00
    7  -11    7      0.01      0.00
    8  -11    7     -0.25      0.00
    9  -11    7      0.10      0.00
   10  -11    7     -0.01      0.00
   11  -11    7      0.02      0.00
   -8  -10    7     -0.19      0.00
   -7  -10    7      0.04      0.00
   -6  -10    7     -0.07      0.00
   -5  -10    7      0.19      0.00
   -4  -10    7     -0.14      0.00
    9  -10    7     -0.10      0.00
   10  -10    7     -0.03      0.00
   11  -10    7      0.09      0.00
   12  -10    7      0.14      0.00
   -9   -9    7      0.09      0.00
   -8   -9    7      0.19      0.00
   -7   -9    7     -0.07      0.00
   -6   -9    7      0.11      0.00
   10   -9    7     -0.02      0.00
   11   -9    7     -0.15      0.00
   12   -9    7     -0.18      0.00
   13   -9    7      0.14      0.00
   -9   -8    7     -0.06      0.00
   -8   -8    7     -0.05      0.00
   -7   -8    7     -0.11      0.00
   12   -8    7      0.15      0.00
   13   -8    7     -0.17      0.00
   14   -8    7     -0.12      0.00
  -10   -7    7     -0.11      0.00
   -9   -7    7     -0.08      0.00
   -8   -7    7      0.03      0.00
   13   -7    7      0.10      0.00
   14   -7    7      0.10      0.00
   15   -7    7     -0.01      0.00
  -11   -6    7      0.09      0.00
  -10   -6    7     -0.08      0.00
   -9   -6    7      0.22      0.00
   13   -6    7      0.05      0.00
   14   -6    7     -0.21      0.00
   15   -6    7     -0.03      0.00
  -11   -5    7     -0.21      0.00
  -10   -5    7      0.26      0.00
   -9   -5    7     -0.10      0.00
   14   -5    7      0.30      0.00
   15   -5    7      0.05      0.00
   16   -5    7     -0.04      0.00
  -12   -4    7     -0.08      0.00
  -11   -4    7      0.17      0.00
  -10   -4    7     -0.26      0.00
   14   -4    7     -0.12      0.00
   15   -4    7     -0.09      0.00
   16   -4    7      0.10      0.00
  -12   -3    7     -0.01      0.00
  -11   -3    7      0.03      0.00
  -10   -3    7      0.09      0.00
   15   -3    7      0.11      0.00
   16   -3    7     -0.06      0.00
  -12   -2    7      0.06      0.00
  -11   -2    7     -0.11      0.00
  -10   -2    7      0.04      0.00
   15   -2    7      0.06      0.00
   16   -2    7     -0.07      0.00
  -12   -1    7      0.08      0.00
  -11   -1    7     -0.11      0.00
   -9   -1    7     -0.02      0.00
   15   -1    7     -0.38      0.00
   16   -1    7      0.14      0.00
  -12    0    7     -0.25      0.00
  -11    0    7      0.34      0.00
  -10    0    7     -0.15      0.00
   -9    0    7      0.35      0.00
   16    0    7      0.01      0.00
  -13    1    7      0.01      0.00
  -12    1    7      0.21      0.00
  -11    1    7     -0.18      0.00
   16    1    7     -0.29      0.00
  -13    2    7      0.06      0.00
  -12    2    7      0.02      0.00
  -11    2    7     -0.25      0.00
   16    2    7      0.40      0.00
  -13    3    7     -0.05      0.00
  -12    3    7     -0.18      0.00
  -11    3    7      0.35      0.00
   16    3    7     -0.20      0.00
  -12    4    7      0.18      0.00
  -11    4    7      0.01      0.00
   16    4    7     -0.12      0.00
  -12    5    7     -0.19      0.00
  -11    5    7     -0.30      0.00
    8    5    7      0.47      0.00
   16    5    7      0.26      0.00
  -12    6    7      0.19      0.00
  -11    6    7      0.18      0.00
  -10    6    7     -0.27      0.00
   15    6    7      0.13      0.00
   16    6    7     -0.15      0.00
  -12    7    7      0.00      0.00
  -11    7    7     -0.03      0.00
  -10    7    7     -0.14      0.00
   15    7    7     -0.08      0.00
   16    7    7     -0.05      0.00
  -11    8    7      0.13      0.00
  -10    8    7      0.30      0.00
   -9    8    7     -0.52      0.00
   15    8    7      0.07      0.00
   16    8    7      0.11      0.00
  -11    9    7     -0.21      0.00
  -10    9    7     -0.21      0.00
   -9    9    7      0.42      0.00
   14    9    7     -0.02      0.00
   15    9    7     -0.12      0.00
   16    9    7      0.04      0.00
  -10   10    7      0.14      0.00
   -9   10    7     -0.27      0.00
   -8   10    7     -0.09      0.00
   13   10    7     -0.28      0.00
   14   10    7      0.15      0.00
   15   10    7      0.16      0.00
   16   10    7     -0.17      0.00
  -10   11    7     -0.10      0.00
   -9   11    7      0.08      0.00
   -8   11    7      0.12      0.00
   -7   11    7     -0.06      0.00
   13   11    7      0.25      0.00
   14   11    7     -0.12      0.00
   15   11    7     -0.13      0.00
   -9   12    7      0.08      0.00
   -8   12    7     -0.15      0.00
   -7   12    7     -0.05      0.00
   12   12    7     -0.05      0.00
   13   12    7     -0.18      0.00
   14   12    7      0.03      0.00
   -8   13    7      0.10      0.00
   -7   13    7      0.03      0.00
   -6   13    7     -0.20      0.00
   -5   13    7     -0.11      0.00
   10   13    7      0.08      0.00
   11   13    7     -0.05      0.00
   12   13    7      0.08      0.00
   13   13    7      0.02      0.00
   -7   14    7      0.08      0.00
   -6   14    7      0.20      0.00
   -5   14    7     -0.15      0.00
   -4   14    7      0.03      0.00
    9   14    7      0.42      0.00
   10   14    7     -0.04      0.00
   11   14    7      0.00      0.00
   12   14    7     -0.20      0.00
   13   14    7      0.15      0.00
   -6   15    7     -0.17      0.00
   -5   15    7      0.42      0.00
   -4   15    7     -0.23      0.00
   -3   15    7     -0.03      0.00
   -2   15    7      0.39      0.00
   -1   15    7     -0.41      0.00
    6   15    7      0.05      0.00
    7   15    7      0.31      0.00
    8   15    7      0.16      0.00
    9   15    7     -0.38      0.00
   10   15    7      0.05      0.00
   11   15    7     -0.02      0.00
   -1  -13    8     -0.18      0.00
    0  -13    8      0.19      0.00
    1  -13    8      0.10      0.00
    2  -13    8     -0.26      0.00
    3  -13    8      0.12      0.00
    4  -13    8     -0.02      0.00
    5  -13    8     -0.20      0.00
    6  -13    8      0.17      0.00
    7  -13    8      0.17      0.00
   -4  -12    8     -0.07      0.00
   -3  -12    8      0.04      0.00
   -2  -12    8      0.07      0.00
   -1  -12    8      0.15      0.00
    0  -12    8     -0.45      0.00
    1  -12    8      0.03      0.00
    2  -12    8      0.36      0.00
    3  -12    8     -0.23      0.00
    4  -12    8      0.17      0.00
    5  -12    8      0.12      0.00
    6  -12    8     -0.25      0.00
    7  -12    8     -0.20      0.00
    8  -12    8      0.24      0.00
    9  -12    8     -0.06      0.00
   -5  -11    8     -0.01      0.00
   -4  -11    8      0.03      0.00
   -3  -11    8      0.04      0.00
   -2  -11    8     -0.30      0.00
   -1  -11    8      0.21      0.00
    0  -11    8      0.37      0.00
    1  -11    8     -0.26      0.00
    2  -11    8     -0.19      0.00
    3  -11    8      0.30      0.00
    4  -11    8     -0.39      0.00
    5  -11    8      0.15      0.00
    6  -11    8      0.18      0.00
    7  -11    8      0.03      0.00
    8  -11    8     -0.22      0.00
    9  -11    8      0.14      0.00
   10  -11    8     -0.10      0.00
   11  -11    8      0.17      0.00
   -7  -10    8     -0.01      0.00
   -6  -10    8      0.03      0.00
   -5  -10    8      0.02      0.00
   -4  -10    8      0.00      0.00
   -3  -10    8      0.19      0.00
   -2  -10    8      0.09      0.00
    8  -10    8     -0.05      0.00
    9  -10    8     -0.15      0.00
   10  -10    8      0.04      0.00
   11  -10    8     -0.05      0.00
   12  -10    8      0.23      0.00
   -8   -9    8      0.21      0.00
   -7   -9    8     -0.06      0.00
   -6   -9    8      0.11      0.00
   -5   -9    8      0.03      0.00
   -4   -9    8     -0.07      0.00
   10   -9    8     -0.07      0.00
   11   -9    8     -0.11      0.00
   12   -9    8     -0.21      0.00
   13   -9    8     -0.10      0.00
   -8   -8    8     -0.04      0.00
   -7   -8    8     -0.11      0.00
   -6   -8    8     -0.09      0.00
   11   -8    8      0.17      0.00
   12   -8    8      0.14      0.00
   13   -8    8     -0.05      0.00
   14   -8    8     -0.19      0.00
   -9   -7    8     -0.11      0.00
   -8   -7    8     -0.10      0.00
   -7   -7    8      0.27      0.00
   12   -7    8     -0.11      0.00
   13   -7    8      0.11      0.00
   14   -7    8     -0.01      0.00
   15   -7    8      0.08      0.00
  -10   -6    8     -0.06      0.00
   -9   -6    8      0.16      0.00
   -8   -6    8      0.03      0.00
   -7   -6    8     -0.09      0.00
   13   -6    8     -0.04      0.00
   14   -6    8     -0.03      0.00
   15   -6    8     -0.05      0.00
  -10   -5    8      0.19      0.00
   -9   -5    8     -0.13      0.00
   -8   -5    8      0.07      0.00
   14   -5    8      0.19      0.00
   15   -5    8     -0.06      0.00
   16   -5    8      0.19      0.00
  -11   -4    8      0.04      0.00
  -10   -4    8     -0.27      0.00
   -9   -4    8     -0.07      0.00
   14   -4    8     -0.17      0.00
   15   -4    8      0.11      0.00
   16   -4    8     -0.10      0.00
  -11   -3    8     -0.03      0.00
  -10   -3    8      0.17      0.00
   -9   -3    8      0.29      0.00
   15   -3    8     -0.06      0.00
   16   -3    8      0.05      0.00
  -11   -2    8     -0.05      0.00
  -10   -2    8      0.04      0.00
   -9   -2    8     -0.33      0.00
   -8   -2    8      0.47      0.00
   15   -2    8      0.07      0.00
   16   -2    8     -0.04      0.00
  -12   -1    8      0.03      0.00
  -11   -1    8      0.01      0.00
  -10   -1    8     -0.15      0.00
   15   -1    8     -0.25      0.00
   16   -1    8      0.00      0.00
  -12    0    8     -0.18      0.00
  -11    0    8      0.12      0.00
  -10    0    8      0.06      0.00
   -9    0    8      0.20      0.00
   15    0    8      0.34      0.00
   16    0    8      0.16      0.00
  -12    1    8      0.21      0.00
  -11    1    8     -0.12      0.00
  -10    1    8      0.01      0.00
   15    1    8     -0.16      0.00
   16    1    8     -0.39      0.00
  -12    2    8     -0.05      0.00
  -11    2    8     -0.09      0.00
  -10    2    8      0.12      0.00
   14    2    8     -0.24      0.00
   15    2    8     -0.11      0.00
   16    2    8      0.45      0.00
  -12    3    8     -0.12      0.00
  -11    3    8      0.20      0.00
  -10    3    8     -0.27      0.00
   14    3    8     -0.08      0.00
   15    3    8      0.18      0.00
   16    3    8     -0.21      0.00
  -12    4    8      0.18      0.00
  -11    4    8     -0.03      0.00
  -10    4    8      0.16      0.00
   15    4    8     -0.08      0.00
   16    4    8     -0.17      0.00
  -12    5    8     -0.21      0.00
  -11    5    8     -0.13      0.00
  -10    5    8      0.02      0.00
   15    5    8     -0.03      0.00
   16    5    8      0.39      0.00
  -11    6    8      0.03      0.00
  -10    6    8      0.07      0.00
   15    6    8      0.08      0.00
   16    6    8     -0.29      0.00
  -11    7    8      0.10      0.00
  -10    7    8     -0.31      0.00
   -9    7    8      0.28      0.00
   15    7    8     -0.08      0.00
   16    7    8      0.01      0.00
  -11    8    8      0.03      0.00
  -10    8    8      0.34      0.00
   -9    8    8     -0.33      0.00
   14    8    8     -0.41      0.00
   15    8    8      0.05      0.00
   16    8    8      0.17      0.00
  -10    9    8     -0.18      0.00
   -9    9    8      0.22      0.00
   -8    9    8      0.01      0.00
   14    9    8      0.20      0.00
   15    9    8     -0.03      0.00
   16    9    8     -0.08      0.00
  -10   10    8      0.11      0.00
   -9   10    8     -0.14      0.00
   -8   10    8     -0.10      0.00
   13   10    8     -0.32      0.00
   14   10    8      0.05      0.00
   15   10    8      0.05      0.00
   16   10    8     -0.10      0.00
   -9   11    8      0.09      0.00
   -8   11    8      0.05      0.00
   -7   11    8      0.03      0.00
   13   11    8      0.28      0.00
   14   11    8     -0.08      0.00
   15   11    8     -0.06      0.00
   -9   12    8     -0.02      0.00
   -8   12    8      0.00      0.00
   -7   12    8     -0.10      0.00
   -6   12    8      0.12      0.00
    1   12    8      0.62      0.00
    2   12    8     -0.39      0.00
   12   12    8      0.02      0.00
   13   12    8     -0.15      0.00
   14   12    8     -0.01      0.00
   -8   13    8     -0.03      0.00
   -7   13    8      0.05      0.00
   -6   13    8     -0.02      0.00
   -5   13    8     -0.28      0.00
    1   13    8     -0.21      0.00
    2   13    8      0.27      0.00
   10   13    8     -0.05      0.00
   11   13    8      0.00      0.00
   12   13    8      0.09      0.00
   13   13    8      0.00      0.00
   14   13    8      0.04      0.00
   -7   14    8      0.08      0.00
   -6   14    8      0.02      0.00
   -5   14    8      0.07      0.00
   -4   14    8     -0.14      0.00
   -3   14    8     -0.14      0.00
    2   14    8      0.15      0.00
    9   14    8      0.30      0.00
   10   14    8      0.06      0.00
   11   14    8      0.00      0.00
   12   14    8     -0.24      0.00
   13   14    8      0.11      0.00
   -6   15    8     -0.02      0.00
   -5   15    8      0.21      0.00
   -4   15    8     -0.07      0.00
   -3   15    8     -0.02      0.00
   -2   15    8      0.07      0.00
   -1   15    8     -0.12      0.00
    0   15    8      0.27      0.00
    6   15    8     -0.15      0.00
    7   15    8      0.33      0.00
    8   15    8      0.26      0.00
    9   15    8     -0.43      0.00
   10   15    8      0.06      0.00
   11   15    8     -0.05      0.00
    3  -13    9      0.10      0.00
   -2  -12    9     -0.09      0.00
   -1  -12    9      0.12      0.00
    0  -12    9     -0.41      0.00
    1  -12    9      0.16      0.00
    2  -12    9      0.30      0.00
    3  -12    9     -0.23      0.00
    4  -12    9      0.01      0.00
    5  -12    9      0.20      0.00
    6  -12    9     -0.20      0.00
    7  -12    9     -0.11      0.00
    8  -12    9      0.11      0.00
   -4  -11    9      0.00      0.00
   -3  -11    9     -0.23      0.00
   -2  -11    9      0.06      0.00
   -1  -11    9      0.19      0.00
    0  -11    9      0.17      0.00
    1  -11    9     -0.21      0.00
    2  -11    9     -0.26      0.00
    3  -11    9      0.37      0.00
    4  -11    9     -0.19      0.00
    5  -11    9      0.01      0.00
    6  -11    9      0.09      0.00
    7  -11    9     -0.02      0.00
    8  -11    9     -0.05      0.00
    9  -11    9      0.05      0.00
   10  -11    9     -0.07      0.00
   -5  -10    9     -0.14      0.00
   -4  -10    9      0.11      0.00
   -3  -10    9      0.28      0.00
   -2  -10    9     -0.14      0.00
   -1  -10    9     -0.42      0.00
    0  -10    9      0.29      0.00
    1  -10    9      0.13      0.00
    2  -10    9      0.01      0.00
    4  -10    9      0.22      0.00
    5  -10    9     -0.04      0.00
    6  -10    9      0.11      0.00
    7  -10    9      0.09      0.00
    8  -10    9     -0.18      0.00
    9  -10    9     -0.10      0.00
   10  -10    9      0.05      0.00
   11  -10    9     -0.16      0.00
   -6   -9    9      0.10      0.00
   -5   -9    9      0.12      0.00
   -4   -9    9     -0.20      0.00
   -3   -9    9     -0.27      0.00
   -2   -9    9      0.42      0.00
    3   -9    9      0.06      0.00
    4   -9    9     -0.05      0.00
    8   -9    9      0.30      0.00
    9   -9    9      0.15      0.00
   10   -9    9     -0.15      0.00
   11   -9    9     -0.03      0.00
   12   -9    9     -0.25      0.00
   -7   -8    9     -0.06      0.00
   -6   -8    9     -0.09      0.00
   -5   -8    9     -0.15      0.00
   -4   -8    9      0.29      0.00
   10   -8    9      0.27      0.00
   11   -8    9      0.12      0.00
   12   -8    9      0.06      0.00
   13   -8    9      0.04      0.00
   -8   -7    9     -0.12      0.00
   -7   -7    9      0.26      0.00
   -6   -7    9      0.02      0.00
   -5   -7    9      0.10      0.00
   11   -7    9     -0.16      0.00
   12   -7    9      0.02      0.00
   13   -7    9      0.04      0.00
   14   -7    9     -0.10      0.00
   -9   -6    9      0.14      0.00
   -8   -6    9      0.19      0.00
   -7   -6    9     -0.22      0.00
   -6   -6    9     -0.19      0.00
   12   -6    9      0.01      0.00
   13   -6    9     -0.05      0.00
   14   -6    9      0.14      0.00
   15   -6    9     -0.07      0.00
   -9   -5    9     -0.04      0.00
   -8   -5    9     -0.07      0.00
   -7   -5    9     -0.11      0.00
   13   -5    9      0.01      0.00
   14   -5    9      0.06      0.00
   15   -5    9     -0.08      0.00
   16   -5    9      0.24      0.00
  -10   -4    9     -0.06      0.00
   -9   -4    9     -0.04      0.00
   -8   -4    9     -0.02      0.00
   14   -4    9     -0.21      0.00
   15   -4    9      0.23      0.00
   16   -4    9     -0.16      0.00
  -10   -3    9      0.06      0.00
   -9   -3    9      0.08      0.00
   -8   -3    9     -0.05      0.00
   14   -3    9      0.14      0.00
   15   -3    9     -0.23      0.00
   16   -3    9      0.07      0.00
  -10   -2    9      0.04      0.00
   -9   -2    9     -0.10      0.00
   -8   -2    9      0.14      0.00
   15   -2    9      0.15      0.00
   16   -2    9      0.04      0.00
  -11   -1    9      0.05      0.00
  -10   -1    9     -0.16      0.00
   -9   -1    9      0.08      0.00
   15   -1    9     -0.16      0.00
   16   -1    9     -0.14      0.00
  -11    0    9      0.02      0.00
  -10    0    9      0.16      0.00
   -9    0    9      0.02      0.00
   15    0    9      0.19      0.00
   16    0    9      0.24      0.00
  -11    1    9     -0.05      0.00
  -10    1    9     -0.01      0.00
   -9    1    9     -0.14      0.00
   15    1    9     -0.12      0.00
   16    1    9     -0.31      0.00
  -11    2    9      0.01      0.00
  -10    2    9     -0.08      0.00
   -9    2    9      0.11      0.00
   14    2    9     -0.16      0.00
   15    2    9      0.01      0.00
   16    2    9      0.26      0.00
  -11    3    9      0.01      0.00
  -10    3    9      0.01      0.00
   -9    3    9      0.07      0.00
   14    3    9     -0.12      0.00
   15    3    9      0.03      0.00
   16    3    9     -0.04      0.00
  -11    4    9      0.10      0.00
  -10    4    9      0.09      0.00
   -9    4    9     -0.21      0.00
   15    4    9     -0.06      0.00
   16    4    9     -0.20      0.00
  -11    5    9     -0.17      0.00
  -10    5    9     -0.18      0.00
   -9    5    9      0.21      0.00
   15    5    9      0.15      0.00
   16    5    9      0.28      0.00
  -11    6    9      0.01      0.00
  -10    6    9      0.32      0.00
   -9    6    9     -0.19      0.00
   15    6    9     -0.18      0.00
   16    6    9     -0.16      0.00
  -10    7    9     -0.45      0.00
   -9    7    9      0.21      0.00
   -8    7    9      0.20      0.00
   15    7    9      0.11      0.00
   16    7    9     -0.06      0.00
  -10    8    9      0.33      0.00
   -9    8    9     -0.12      0.00
   -8    8    9     -0.04      0.00
   14    8    9     -0.58      0.00
   15    8    9     -0.05      0.00
   16    8    9      0.21      0.00
  -10    9    9     -0.05      0.00
   -9    9    9     -0.05      0.00
   -8    9    9      0.06      0.00
   -7    9    9      0.16      0.00
   14    9    9      0.36      0.00
   15    9    9      0.08      0.00
   16    9    9     -0.15      0.00
   -9   10    9      0.07      0.00
   -8   10    9     -0.08      0.00
   -7   10    9     -0.05      0.00
   13   10    9     -0.28      0.00
   14   10    9      0.04      0.00
   15   10    9     -0.11      0.00
   16   10    9     -0.04      0.00
   -9   11    9      0.04      0.00
   -8   11    9     -0.06      0.00
   -7   11    9      0.05      0.00
   -6   11    9     -0.01      0.00
    1   11    9     -0.56      0.00
    2   11    9      0.17      0.00
   12   11    9     -0.14      0.00
   13   11    9      0.28      0.00
   14   11    9     -0.14      0.00
   15   11    9      0.07      0.00
   -8   12    9      0.19      0.00
   -7   12    9     -0.12      0.00
   -6   12    9     -0.08      0.00
   -5   12    9      0.10      0.00
    1   12    9      0.60      0.00
    2   12    9     -0.36      0.00
   11   12    9      0.03      0.00
   12   12    9      0.06      0.00
   13   12    9     -0.14      0.00
   14   12    9      0.05      0.00
   -7   13    9      0.09      0.00
   -6   13    9      0.13      0.00
   -5   13    9     -0.30      0.00
   -4   13    9      0.19      0.00
    2   13    9      0.12      0.00
   10   13    9     -0.26      0.00
   11   13    9      0.12      0.00
   12   13    9      0.08      0.00
   13   13    9     -0.02      0.00
   14   13    9     -0.01      0.00
   -6   14    9     -0.09      0.00
   -5   14    9      0.15      0.00
   -4   14    9     -0.19      0.00
   -3   14    9     -0.06      0.00
   -2   14    9      0.26      0.00
    8   14    9     -0.12      0.00
    9   14    9      0.02      0.00
   10   14    9      0.28      0.00
   11   14    9     -0.08      0.00
   12   14    9     -0.25      0.00
   13   14    9      0.12      0.00
   -5   15    9      0.09      0.00
   -4   15    9      0.02      0.00
   -3   15    9     -0.07      0.00
   -2   15    9     -0.04      0.00
   -1   15    9      0.03      0.00
    0   15    9      0.19      0.00
    1   15    9     -0.16      0.00
    2   15    9     -0.24      0.00
    3   15    9      0.14      0.00
    4   15    9      0.36      0.00
    5   15    9     -0.26      0.00
    6   15    9     -0.21      0.00
    7   15    9      0.20      0.00
    8   15    9      0.20      0.00
    9   15    9     -0.28      0.00
   10   15    9      0.01      0.00
   11   15    9     -0.06      0.00
    1  -12   10      0.11      0.00
    2  -12   10      0.16      0.00
    3  -12   10      0.05      0.00
    4  -12   10     -0.21      0.00
    5  -12   10      0.11      0.00
   -2  -11   10      0.19      0.00
   -1  -11   10     -0.02      0.00
    0  -11   10      0.17      0.00
    1  -11   10     -0.12      0.00
    2  -11   10     -0.19      0.00
    3  -11   10      0.11      0.00
    4  -11   10      0.10      0.00
    5  -11   10      0.00      0.00
    6  -11   10     -0.10      0.00
    7  -11   10      0.02      0.00
    8  -11   10     -0.01      0.00
    9  -11   10     -0.01      0.00
   -4  -10   10      0.14      0.00
   -3  -10   10      0.18      0.00
   -2  -10   10     -0.22      0.00
   -1  -10   10     -0.14      0.00
    0  -10   10      0.26      0.00
    1  -10   10     -0.13      0.00
    2  -10   10      0.14      0.00
    3  -10   10     -0.21      0.00
    4  -10   10      0.06      0.00
    5  -10   10     -0.06      0.00
    6  -10   10      0.22      0.00
    7  -10   10      0.06      0.00
    8  -10   10     -0.21      0.00
    9  -10   10     -0.02      0.00
   10  -10   10     -0.08      0.00
   -5   -9   10      0.08      0.00
   -4   -9   10     -0.18      0.00
   -3   -9   10     -0.07      0.00
   -2   -9   10      0.23      0.00
   -1   -9   10     -0.04      0.00
    0   -9   10     -0.42      0.00
    1   -9   10      0.43      0.00
    2   -9   10      0.01      0.00
    3   -9   10      0.02      0.00
    4   -9   10     -0.04      0.00
    5   -9   10     -0.15      0.00
    6   -9   10     -0.09      0.00
    7   -9   10     -0.05      0.00
    8   -9   10      0.30      0.00
    9   -9   10      0.12      0.00
   10   -9   10     -0.06      0.00
   11   -9   10     -0.09      0.00
   12   -9   10     -0.22      0.00
   -6   -8   10     -0.09      0.00
   -5   -8   10     -0.11      0.00
   -4   -8   10      0.20      0.00
   -3   -8   10     -0.05      0.00
   -2   -8   10     -0.23      0.00
   -1   -8   10      0.50      0.00
    0   -8   10      0.03      0.00
    1   -8   10     -0.51      0.00
    2   -8   10     -0.13      0.00
    3   -8   10      0.30      0.00
    9   -8   10     -0.30      0.00
   10   -8   10      0.28      0.00
   11   -8   10      0.13      0.00
   12   -8   10      0.01      0.00
   13   -8   10     -0.05      0.00
   -7   -7   10      0.10      0.00
   -6   -7   10     -0.06      0.00
   -5   -7   10      0.21      0.00
   -4   -7   10     -0.25      0.00
   -3   -7   10      0.06      0.00
    3   -7   10     -0.46      0.00
    4   -7   10     -0.09      0.00
   10   -7   10     -0.36      0.00
   11   -7   10     -0.04      0.00
   12   -7   10      0.07      0.00
   13   -7   10      0.03      0.00
   14   -7   10     -0.14      0.00
   -8   -6   10      0.03      0.00
   -7   -6   10     -0.24      0.00
   -6   -6   10      0.12      0.00
   -5   -6   10     -0.14      0.00
    3   -6   10      0.45      0.00
   12   -6   10      0.01      0.00
   13   -6   10      0.00      0.00
   14   -6   10      0.12      0.00
   -8   -5   10     -0.04      0.00
   -7   -5   10      0.17      0.00
   -6   -5   10      0.05      0.00
   12   -5   10     -0.13      0.00
   13   -5   10      0.00      0.00
   14   -5   10      0.08      0.00
   15   -5   10     -0.06      0.00
   -9   -4   10     -0.04      0.00
   -8   -4   10     -0.06      0.00
   -7   -4   10      0.02      0.00
   -6   -4   10     -0.26      0.00
   13   -4   10     -0.03      0.00
   14   -4   10     -0.29      0.00
   15   -4   10      0.19      0.00
   16   -4   10     -0.05      0.00
   -9   -3   10      0.03      0.00
   -8   -3   10      0.16      0.00
   -7   -3   10     -0.09      0.00
   14   -3   10      0.34      0.00
   15   -3   10     -0.23      0.00
   16   -3   10     -0.02      0.00
  -10   -2   10      0.06      0.00
   -9   -2   10      0.03      0.00
   -8   -2   10     -0.17      0.00
   -7   -2   10     -0.04      0.00
   14   -2   10     -0.27      0.00
   15   -2   10      0.18      0.00
   16   -2   10      0.10      0.00
  -10   -1   10     -0.06      0.00
   -9   -1   10      0.00      0.00
   -8   -1   10      0.12      0.00
   15   -1   10     -0.11      0.00
   16   -1   10     -0.19      0.00
  -10    0   10      0.09      0.00
   -9    0   10     -0.09      0.00
   -8    0   10     -0.06      0.00
   15    0   10      0.05      0.00
   16    0   10      0.22      0.00
  -10    1   10     -0.05      0.00
   -9    1   10      0.07      0.00
   -8    1   10      0.05      0.00
   15    1   10      0.03      0.00
   16    1   10     -0.16      0.00
  -10    2   10     -0.04      0.00
   -9    2   10      0.07      0.00
   -8    2   10     -0.03      0.00
   12    2   10      0.02      0.00
   13    2   10      0.20      0.00
   15    2   10     -0.02      0.00
   16    2   10     -0.02      0.00
  -10    3   10      0.05      0.00
   -9    3   10     -0.19      0.00
   -8    3   10     -0.01      0.00
   13    3   10     -0.05      0.00
   14    3   10     -0.20      0.00
   15    3   10     -0.09      0.00
   16    3   10      0.25      0.00
  -10    4   10      0.00      0.00
   -9    4   10      0.16      0.00
   -8    4   10     -0.06      0.00
   14    4   10      0.48      0.00
   15    4   10      0.08      0.00
   16    4   10     -0.34      0.00
  -10    5   10     -0.07      0.00
   -9    5   10     -0.04      0.00
   -8    5   10      0.23      0.00
   15    5   10      0.12      0.00
   16    5   10      0.21      0.00
  -10    6   10      0.18      0.00
   -9    6   10     -0.09      0.00
   -8    6   10     -0.27      0.00
   15    6   10     -0.28      0.00
   16    6   10     -0.01      0.00
  -10    7   10     -0.27      0.00
   -9    7   10      0.16      0.00
   -8    7   10      0.08      0.00
   -7    7   10     -0.08      0.00
   15    7   10      0.18      0.00
   16    7   10     -0.12      0.00
   -9    8   10     -0.06      0.00
   -8    8   10      0.07      0.00
   -7    8   10     -0.06      0.00
   14    8   10     -0.65      0.00
   15    8   10     -0.02      0.00
   16    8   10      0.15      0.00
   -9    9   10     -0.14      0.00
   -8    9   10      0.00      0.00
   -7    9   10      0.08      0.00
   14    9   10      0.43      0.00
   15    9   10      0.03      0.00
   16    9   10     -0.09      0.00
   -8   10   10     -0.08      0.00
   -7   10   10      0.06      0.00
   -6   10   10     -0.15      0.00
    2   10   10     -0.27      0.00
   13   10   10     -0.21      0.00
   14   10   10      0.01      0.00
   15   10   10     -0.12      0.00
   16   10   10     -0.02      0.00
   -8   11   10     -0.06      0.00
   -7   11   10     -0.11      0.00
   -6   11   10      0.16      0.00
   -5   11   10      0.33      0.00
    2   11   10      0.31      0.00
    3   11   10      0.08      0.00
   12   11   10     -0.08      0.00
   13   11   10      0.21      0.00
   14   11   10     -0.17      0.00
   15   11   10      0.11      0.00
   -7   12   10      0.00      0.00
   -6   12   10     -0.21      0.00
   -5   12   10     -0.06      0.00
   -4   12   10      0.21      0.00
    2   12   10     -0.32      0.00
    3   12   10      0.07      0.00
   11   12   10      0.03      0.00
   12   12   10      0.02      0.00
   13   12   10     -0.09      0.00
   14   12   10      0.07      0.00
   -6   13   10      0.18      0.00
   -5   13   10     -0.12      0.00
   -4   13   10      0.02      0.00
   -3   13   10      0.10      0.00
    3   13   10     -0.25      0.00
   10   13   10     -0.26      0.00
   11   13   10      0.18      0.00
   12   13   10      0.04      0.00
   13   13   10     -0.02      0.00
   14   13   10      0.00      0.00
   -5   14   10      0.01      0.00
   -4   14   10     -0.08      0.00
   -3   14   10      0.01      0.00
   -2   14   10      0.16      0.00
   -1   14   10     -0.05      0.00
    0   14   10     -0.01      0.00
    8   14   10     -0.13      0.00
    9   14   10     -0.08      0.00
   10   14   10      0.37      0.00
   11   14   10     -0.21      0.00
   12   14   10     -0.15      0.00
   13   14   10      0.10      0.00
   -4   15   10     -0.02      0.00
   -3   15   10     -0.14      0.00
   -2   15   10      0.04      0.00
   -1   15   10      0.01      0.00
    0   15   10      0.02      0.00
    1   15   10      0.13      0.00
    2   15   10     -0.25      0.00
    3   15   10     -0.06      0.00
    4   15   10      0.31      0.00
    5   15   10     -0.11      0.00
    6   15   10     -0.08      0.00
    7   15   10      0.04      0.00
    8   15   10      0.11      0.00
    9   15   10     -0.14      0.00
   10   15   10     -0.04      0.00
   11   15   10      0.00      0.00
    1  -11   11     -0.02      0.00
    2  -11   11     -0.04      0.00
    3  -11   11     -0.16      0.00
    4  -11   11      0.27      0.00
    5  -11   11     -0.01      0.00
    6  -11   11     -0.18      0.00
   -2  -10   11     -0.10      0.00
   -1  -10   11      0.06      0.00
    0  -10   11      0.10      0.00
    1  -10   11     -0.16      0.00
    2  -10   11      0.06      0.00
    3  -10   11     -0.01      0.00
    4  -10   11     -0.04      0.00
    5  -10   11     -0.04      0.00
    6  -10   11      0.23      0.00
    7  -10   11     -0.08      0.00
    8  -10   11     -0.02      0.00
    9  -10   11     -0.05      0.00
   -3   -9   11      0.06      0.00
   -2   -9   11     -0.04      0.00
   -1   -9   11     -0.07      0.00
    0   -9   11     -0.27      0.00
    1   -9   11      0.47      0.00
    2   -9   11     -0.06      0.00
    3   -9   11      0.02      0.00
    4   -9   11     -0.16      0.00
    5   -9   11      0.01      0.00
    6   -9   11     -0.09      0.00
    7   -9   11      0.02      0.00
    8   -9   11      0.12      0.00
    9   -9   11      0.10      0.00
   10   -9   11      0.09      0.00
   11   -9   11     -0.22      0.00
   -5   -8   11      0.06      0.00
   -4   -8   11     -0.05      0.00
   -3   -8   11     -0.12      0.00
   -2   -8   11      0.17      0.00
   -1   -8   11      0.17      0.00
    0   -8   11      0.06      0.00
    1   -8   11     -0.50      0.00
    2   -8   11      0.01      0.00
    3   -8   11      0.16      0.00
    4   -8   11      0.17      0.00
    5   -8   11      0.15      0.00
    6   -8   11     -0.26      0.00
    7   -8   11      0.06      0.00
    8   -8   11     -0.06      0.00
    9   -8   11     -0.19      0.00
   10   -8   11      0.11      0.00
   11   -8   11      0.21      0.00
   12   -8   11     -0.03      0.00
   -6   -7   11     -0.03      0.00
   -5   -7   11      0.07      0.00
   -4   -7   11     -0.03      0.00
   -3   -7   11      0.02      0.00
   -2   -7   11     -0.10      0.00
   -1   -7   11     -0.22      0.00
    0   -7   11      0.30      0.00
    1   -7   11      0.15      0.00
    2   -7   11      0.08      0.00
    3   -7   11     -0.26      0.00
    9   -7   11      0.28      0.00
   10   -7   11     -0.26      0.00
   11   -7   11      0.02      0.00
   12   -7   11      0.03      0.00
   13   -7   11      0.04      0.00
   -6   -6   11      0.18      0.00
   -5   -6   11     -0.16      0.00
   -4   -6   11      0.14      0.00
   -3   -6   11      0.15      0.00
   -1   -6   11      0.12      0.00
    0   -6   11     -0.39      0.00
    1   -6   11      0.23      0.00
    2   -6   11     -0.17      0.00
    3   -6   11      0.22      0.00
   10   -6   11      0.18      0.00
   11   -6   11     -0.14      0.00
   12   -6   11      0.11      0.00
   13   -6   11      0.06      0.00
   14   -6   11      0.03      0.00
   -7   -5   11      0.21      0.00
   -6   -5   11     -0.27      0.00
   -5   -5   11      0.02      0.00
   -4   -5   11     -0.12      0.00
    0   -5   11      0.20      0.00
    1   -5   11     -0.32      0.00
    2   -5   11      0.15      0.00
    3   -5   11     -0.21      0.00
   12   -5   11     -0.23      0.00
   13   -5   11     -0.07      0.00
   14   -5   11      0.18      0.00
   15   -5   11     -0.02      0.00
   -8   -4   11     -0.17      0.00
   -7   -4   11     -0.25      0.00
   -6   -4   11      0.24      0.00
   -5   -4   11      0.26      0.00
    2   -4   11      0.07      0.00
   12   -4   11      0.25      0.00
   13   -4   11      0.02      0.00
   14   -4   11     -0.34      0.00
   15   -4   11      0.06      0.00
   -8   -3   11      0.18      0.00
   -7   -3   11      0.17      0.00
   -6   -3   11     -0.16      0.00
   13   -3   11      0.03      0.00
   14   -3   11      0.38      0.00
   15   -3   11     -0.10      0.00
   16   -3   11     -0.08      0.00
   -8   -2   11     -0.21      0.00
   -7   -2   11     -0.08      0.00
   -6   -2   11      0.15      0.00
   14   -2   11     -0.35      0.00
   15   -2   11      0.12      0.00
   16   -2   11      0.08      0.00
   -9   -1   11     -0.05      0.00
   -8   -1   11      0.17      0.00
   -7   -1   11      0.08      0.00
   -6   -1   11     -0.24      0.00
   14   -1   11      0.24      0.00
   15   -1   11     -0.11      0.00
   16   -1   11     -0.09      0.00
   -9    0   11     -0.06      0.00
   -8    0   11     -0.01      0.00
   -7    0   11     -0.08      0.00
   14    0   11      0.00      0.00
   15    0   11      0.02      0.00
   16    0   11      0.10      0.00
   -9    1   11      0.18      0.00
   -8    1   11     -0.16      0.00
   -7    1   11     -0.04      0.00
   15    1   11      0.15      0.00
   16    1   11     -0.05      0.00
   -9    2   11     -0.11      0.00
   -8    2   11      0.16      0.00
   -7    2   11      0.18      0.00
   13    2   11      0.06      0.00
   15    2   11     -0.20      0.00
   16    2   11     -0.12      0.00
   -9    3   11     -0.08      0.00
   -8    3   11     -0.01      0.00
   -7    3   11     -0.09      0.00
   13    3   11      0.16      0.00
   15    3   11      0.01      0.00
   16    3   11      0.34      0.00
   -9    4   11      0.19      0.00
   -8    4   11     -0.19      0.00
   -7    4   11     -0.14      0.00
   12    4   11     -0.07      0.00
   13    4   11     -0.36      0.00
   14    4   11      0.30      0.00
   15    4   11      0.14      0.00
   16    4   11     -0.40      0.00
   -9    5   11     -0.16      0.00
   -8    5   11      0.29      0.00
   -7    5   11      0.18      0.00
   13    5   11      0.46      0.00
   14    5   11     -0.33      0.00
   15    5   11     -0.04      0.00
   16    5   11      0.20      0.00
   -9    6   11      0.05      0.00
   -8    6   11     -0.19      0.00
   -7    6   11     -0.02      0.00
   14    6   11      0.16      0.00
   15    6   11     -0.13      0.00
   16    6   11      0.05      0.00
   -9    7   11      0.04      0.00
   -8    7   11     -0.07      0.00
   -7    7   11     -0.04      0.00
   -6    7   11      0.30      0.00
   14    7   11      0.30      0.00
   15    7   11      0.05      0.00
   16    7   11     -0.11      0.00
   -8    8   11      0.21      0.00
   -7    8   11     -0.07      0.00
   -6    8   11     -0.45      0.00
   14    8   11     -0.61      0.00
   15    8   11      0.14      0.00
   16    8   11      0.01      0.00
   -8    9   11     -0.08      0.00
   -7    9   11      0.06      0.00
   -6    9   11      0.26      0.00
   -5    9   11      0.15      0.00
   13    9   11      0.10      0.00
   14    9   11      0.42      0.00
   15    9   11     -0.16      0.00
   16    9   11      0.06      0.00
   -8   10   11     -0.09      0.00
   -7   10   11      0.14      0.00
   -6   10   11     -0.10      0.00
   -5   10   11     -0.43      0.00
   13   10   11     -0.20      0.00
   14   10   11     -0.04      0.00
   15   10   11      0.01      0.00
   -7   11   11     -0.24      0.00
   -6   11   11      0.14      0.00
   -5   11   11      0.43      0.00
   -4   11   11     -0.39      0.00
   12   11   11     -0.04      0.00
   13   11   11      0.12      0.00
   14   11   11     -0.08      0.00
   15   11   11      0.02      0.00
   -6   12   11     -0.19      0.00
   -5   12   11     -0.18      0.00
   -4   12   11      0.16      0.00
   -3   12   11      0.14      0.00
   11   12   11      0.04      0.00
   12   12   11     -0.04      0.00
   13   12   11      0.03      0.00
   14   12   11     -0.03      0.00
   -5   13   11      0.01      0.00
   -4   13   11     -0.02      0.00
   -3   13   11      0.02      0.00
   -2   13   11     -0.13      0.00
   -1   13   11     -0.06      0.00
    9   13   11      0.00      0.00
   10   13   11     -0.10      0.00
   11   13   11      0.14      0.00
   12   13   11      0.04      0.00
   13   13   11     -0.08      0.00
   -4   14   11      0.00      0.00
   -3   14   11     -0.01      0.00
   -2   14   11      0.12      0.00
   -1   14   11      0.02      0.00
    0   14   11     -0.01      0.00
    1   14   11     -0.36      0.00
    2   14   11      0.34      0.00
    6   14   11      0.22      0.00
    7   14   11      0.06      0.00
    8   14   11     -0.12      0.00
    9   14   11     -0.02      0.00
   10   14   11      0.27      0.00
   11   14   11     -0.24      0.00
   12   14   11     -0.05      0.00
   -3   15   11     -0.08      0.00
   -2   15   11      0.09      0.00
   -1   15   11     -0.08      0.00
    0   15   11     -0.06      0.00
    1   15   11      0.29      0.00
    2   15   11     -0.25      0.00
    3   15   11     -0.07      0.00
    4   15   11      0.17      0.00
    5   15   11     -0.02      0.00
    6   15   11      0.01      0.00
    7   15   11     -0.04      0.00
    8   15   11      0.06      0.00
    9   15   11     -0.10      0.00
   10   15   11     -0.03      0.00
   11   15   11      0.06      0.00
    2  -10   12     -0.05      0.00
    3  -10   12      0.07      0.00
    4  -10   12     -0.10      0.00
    5  -10   12      0.09      0.00
    6  -10   12      0.11      0.00
    7  -10   12     -0.19      0.00
   -1   -9   12     -0.01      0.00
    0   -9   12     -0.09      0.00
    1   -9   12      0.26      0.00
    2   -9   12     -0.01      0.00
    3   -9   12      0.00      0.00
    4   -9   12     -0.15      0.00
    5   -9   12      0.02      0.00
    6   -9   12     -0.06      0.00
    7   -9   12      0.13      0.00
    8   -9   12     -0.10      0.00
    9   -9   12      0.15      0.00
   -3   -8   12     -0.06      0.00
   -2   -8   12      0.31      0.00
   -1   -8   12     -0.09      0.00
    0   -8   12      0.06      0.00
    1   -8   12     -0.34      0.00
    2   -8   12      0.10      0.00
    3   -8   12      0.03      0.00
    4   -8   12      0.22      0.00
    5   -8   12     -0.06      0.00
    6   -8   12     -0.04      0.00
    7   -8   12     -0.09      0.00
    8   -8   12      0.07      0.00
    9   -8   12     -0.13      0.00
   10   -8   12     -0.01      0.00
   11   -8   12      0.19      0.00
   -4   -7   12      0.15      0.00
   -3   -7   12     -0.06      0.00
   -2   -7   12     -0.26      0.00
   -1   -7   12      0.25      0.00
    0   -7   12      0.06      0.00
    1   -7   12      0.07      0.00
    2   -7   12     -0.11      0.00
    3   -7   12     -0.04      0.00
    4   -7   12     -0.13      0.00
    5   -7   12      0.03      0.00
    6   -7   12      0.14      0.00
    7   -7   12      0.00      0.00
    8   -7   12     -0.03      0.00
    9   -7   12      0.06      0.00
   10   -7   12     -0.09      0.00
   11   -7   12      0.04      0.00
   12   -7   12      0.01      0.00
   -5   -6   12      0.05      0.00
   -4   -6   12      0.02      0.00
   -3   -6   12      0.18      0.00
   -2   -6   12     -0.03      0.00
   -1   -6   12     -0.31      0.00
    0   -6   12     -0.14      0.00
    1   -6   12      0.31      0.00
    2   -6   12      0.00      0.00
    3   -6   12      0.01      0.00
    4   -6   12      0.09      0.00
    5   -6   12     -0.11      0.00
    9   -6   12      0.02      0.00
   10   -6   12      0.05      0.00
   11   -6   12     -0.21      0.00
   12   -6   12      0.16      0.00
   13   -6   12      0.14      0.00
   -6   -5   12     -0.12      0.00
   -5   -5   12     -0.07      0.00
   -4   -5   12     -0.12      0.00
   -3   -5   12     -0.15      0.00
   -2   -5   12      0.30      0.00
   -1   -5   12      0.15      0.00
    0   -5   12      0.18      0.00
    1   -5   12     -0.44      0.00
    2   -5   12      0.06      0.00
    3   -5   12     -0.07      0.00
   10   -5   12      0.12      0.00
   11   -5   12      0.08      0.00
   12   -5   12     -0.26      0.00
   13   -5   12     -0.15      0.00
   14   -5   12      0.19      0.00
   -6   -4   12      0.26      0.00
   -5   -4   12      0.16      0.00
   -4   -4   12      0.06      0.00
   -3   -4   12     -0.02      0.00
   -1   -4   12      0.01      0.00
    0   -4   12     -0.26      0.00
    1   -4   12      0.33      0.00
    2   -4   12      0.08      0.00
   11   -4   12      0.19      0.00
   12   -4   12      0.18      0.00
   13   -4   12      0.07      0.00
   14   -4   12     -0.29      0.00
   15   -4   12     -0.07      0.00
   -7   -3   12      0.21      0.00
   -6   -3   12     -0.27      0.00
   -5   -3   12     -0.22      0.00
   -4   -3   12      0.06      0.00
    2   -3   12     -0.29      0.00
   12   -3   12     -0.05      0.00
   13   -3   12      0.00      0.00
   14   -3   12      0.27      0.00
   15   -3   12      0.05      0.00
   -7   -2   12     -0.06      0.00
   -6   -2   12      0.13      0.00
   -5   -2   12      0.17      0.00
   13   -2   12      0.04      0.00
   14   -2   12     -0.24      0.00
   15   -2   12      0.04      0.00
   16   -2   12      0.01      0.00
   -8   -1   12      0.08      0.00
   -7   -1   12     -0.09      0.00
   -6   -1   12     -0.04      0.00
   -5   -1   12     -0.02      0.00
   13   -1   12     -0.19      0.00
   14   -1   12      0.21      0.00
   15   -1   12     -0.16      0.00
   16   -1   12      0.05      0.00
   -8    0   12      0.00      0.00
   -7    0   12      0.10      0.00
   -6    0   12      0.09      0.00
   -5    0   12     -0.18      0.00
   14    0   12     -0.06      0.00
   15    0   12      0.14      0.00
   16    0   12     -0.08      0.00
   -8    1   12     -0.18      0.00
   -7    1   12     -0.04      0.00
   -6    1   12     -0.02      0.00
   14    1   12     -0.21      0.00
   15    1   12      0.07      0.00
   16    1   12      0.04      0.00
   -8    2   12      0.32      0.00
   -7    2   12      0.02      0.00
   -6    2   12     -0.33      0.00
   14    2   12      0.38      0.00
   15    2   12     -0.26      0.00
   16    2   12     -0.05      0.00
   -8    3   12     -0.25      0.00
   -7    3   12     -0.01      0.00
   -6    3   12      0.61      0.00
   13    3   12      0.10      0.00
   14    3   12     -0.27      0.00
   15    3   12      0.15      0.00
   16    3   12      0.16      0.00
   -8    4   12      0.05      0.00
   -7    4   12     -0.01      0.00
   -6    4   12     -0.43      0.00
   14    4   12      0.07      0.00
   15    4   12      0.08      0.00
   16    4   12     -0.24      0.00
   -8    5   12      0.10      0.00
   -7    5   12     -0.02      0.00
   -6    5   12      0.03      0.00
   14    5   12      0.00      0.00
   15    5   12     -0.12      0.00
   16    5   12      0.10      0.00
   -8    6   12     -0.09      0.00
   -7    6   12      0.10      0.00
   -6    6   12      0.06      0.00
   12    6   12      0.78      0.00
   14    6   12     -0.04      0.00
   15    6   12      0.01      0.00
   16    6   12      0.10      0.00
   -8    7   12     -0.06      0.00
   -7    7   12     -0.08      0.00
   -6    7   12      0.14      0.00
   -5    7   12      0.06      0.00
   13    7   12      0.35      0.00
   14    7   12      0.22      0.00
   15    7   12     -0.03      0.00
   16    7   12     -0.11      0.00
   -7    8   12     -0.09      0.00
   -6    8   12     -0.19      0.00
   -5    8   12      0.10      0.00
   13    8   12     -0.24      0.00
   14    8   12     -0.38      0.00
   15    8   12      0.19      0.00
   16    8   12     -0.06      0.00
   -7    9   12      0.13      0.00
   -6    9   12     -0.02      0.00
   -5    9   12      0.10      0.00
   -4    9   12     -0.17      0.00
   13    9   12      0.25      0.00
   14    9   12      0.26      0.00
   15    9   12     -0.21      0.00
   16    9   12      0.15      0.00
   -7   10   12      0.04      0.00
   -6   10   12      0.17      0.00
   -5   10   12     -0.41      0.00
   -4   10   12      0.26      0.00
   12   10   12      0.26      0.00
   13   10   12     -0.25      0.00
   14   10   12     -0.02      0.00
   15   10   12      0.07      0.00
   -6   11   12     -0.08      0.00
   -5   11   12      0.43      0.00
   -4   11   12     -0.17      0.00
   -3   11   12     -0.27      0.00
   11   11   12      0.01      0.00
   12   11   12     -0.12      0.00
   13   11   12      0.10      0.00
   14   11   12     -0.01      0.00
   15   11   12     -0.03      0.00
   -5   12   12     -0.18      0.00
   -4   12   12      0.01      0.00
   -3   12   12      0.23      0.00
   -2   12   12     -0.12      0.00
   -1   12   12      0.20      0.00
   10   12   12     -0.15      0.00
   11   12   12     -0.03      0.00
   12   12   12     -0.03      0.00
   13   12   12      0.11      0.00
   14   12   12     -0.12      0.00
   -4   13   12      0.07      0.00
   -3   13   12     -0.02      0.00
   -2   13   12     -0.10      0.00
   -1   13   12     -0.10      0.00
    0   13   12      0.21      0.00
    1   13   12      0.14      0.00
    8   13   12     -0.06      0.00
    9   13   12     -0.01      0.00
   10   13   12     -0.03      0.00
   11   13   12      0.09      0.00
   12   13   12      0.08      0.00
   13   13   12     -0.16      0.00
   -3   14   12     -0.09      0.00
   -2   14   12      0.14      0.00
   -1   14   12      0.05      0.00
    0   14   12     -0.01      0.00
    1   14   12     -0.30      0.00
    2   14   12      0.26      0.00
    3   14   12      0.12      0.00
    4   14   12     -0.14      0.00
    5   14   12     -0.21      0.00
    6   14   12      0.21      0.00
    7   14   12      0.00      0.00
    8   14   12     -0.02      0.00
    9   14   12     -0.05      0.00
   10   14   12      0.17      0.00
   11   14   12     -0.16      0.00
   12   14   12     -0.04      0.00
   -2   15   12      0.06      0.00
   -1   15   12     -0.14      0.00
    0   15   12     -0.04      0.00
    1   15   12      0.24      0.00
    2   15   12     -0.14      0.00
    3   15   12     -0.07      0.00
    4   15   12      0.06      0.00
    5   15   12      0.09      0.00
    6   15   12     -0.05      0.00
    7   15   12     -0.01      0.00
    8   15   12     -0.02      0.00
    9   15   12     -0.01      0.00
   10   15   12     -0.03      0.00
   11   15   12      0.06      0.00
    2   -9   13      0.00      0.00
    3   -9   13     -0.03      0.00
    4   -9   13      0.00      0.00
    5   -9   13     -0.07      0.00
    6   -9   13      0.03      0.00
    7   -9   13      0.07      0.00
    0   -8   13      0.02      0.00
    1   -8   13     -0.18      0.00
    2   -8   13      0.15      0.00
    3   -8   13      0.05      0.00
    4   -8   13      0.01      0.00
    5   -8   13     -0.09      0.00
    6   -8   13      0.11      0.00
    7   -8   13     -0.12      0.00
    8   -8   13      0.10      0.00
    9   -8   13     -0.13      0.00
   -2   -7   13     -0.09      0.00
   -1   -7   13      0.31      0.00
    0   -7   13     -0.06      0.00
    1   -7   13      0.10      0.00
    2   -7   13     -0.29      0.00
    3   -7   13      0.02      0.00
    4   -7   13      0.07      0.00
    5   -7   13      0.14      0.00
    6   -7   13     -0.26      0.00
    7   -7   13      0.21      0.00
    8   -7   13     -0.03      0.00
    9   -7   13      0.00      0.00
   10   -7   13     -0.04      0.00
   11   -7   13      0.08      0.00
   -3   -6   13      0.20      0.00
   -2   -6   13     -0.09      0.00
   -1   -6   13     -0.43      0.00
    0   -6   13      0.12      0.00
    1   -6   13      0.07      0.00
    2   -6   13      0.27      0.00
    3   -6   13     -0.10      0.00
    4   -6   13     -0.09      0.00
    5   -6   13     -0.12      0.00
    6   -6   13      0.24      0.00
    7   -6   13     -0.14      0.00
    8   -6   13     -0.08      0.00
    9   -6   13      0.15      0.00
   10   -6   13     -0.03      0.00
   11   -6   13     -0.19      0.00
   12   -6   13      0.12      0.00
   -4   -5   13     -0.09      0.00
   -3   -5   13     -0.14      0.00
   -2   -5   13      0.26      0.00
   -1   -5   13      0.25      0.00
    0   -5   13     -0.06      0.00
    1   -5   13     -0.16      0.00
    2   -5   13     -0.15      0.00
    3   -5   13      0.01      0.00
    4   -5   13      0.06      0.00
    8   -5   13      0.12      0.00
    9   -5   13     -0.15      0.00
   10   -5   13      0.18      0.00
   11   -5   13      0.04      0.00
   12   -5   13     -0.19      0.00
   13   -5   13     -0.18      0.00
   -5   -4   13      0.20      0.00
   -4   -4   13      0.08      0.00
   -3   -4   13     -0.05      0.00
   -2   -4   13     -0.18      0.00
   -1   -4   13      0.01      0.00
    0   -4   13     -0.17      0.00
    1   -4   13      0.15      0.00
    2   -4   13      0.11      0.00
    3   -4   13      0.17      0.00
   10   -4   13     -0.21      0.00
   11   -4   13      0.26      0.00
   12   -4   13      0.08      0.00
   13   -4   13      0.08      0.00
   14   -4   13     -0.18      0.00
   -6   -3   13     -0.09      0.00
   -5   -3   13     -0.11      0.00
   -4   -3   13     -0.07      0.00
   -3   -3   13      0.17      0.00
   -2   -3   13     -0.04      0.00
   -1   -3   13     -0.02      0.00
    0   -3   13      0.32      0.00
    1   -3   13     -0.19      0.00
    2   -3   13     -0.12      0.00
   11   -3   13     -0.36      0.00
   12   -3   13      0.10      0.00
   13   -3   13      0.01      0.00
   14   -3   13      0.14      0.00
   15   -3   13      0.10      0.00
   -6   -2   13     -0.01      0.00
   -5   -2   13      0.00      0.00
   -4   -2   13      0.06      0.00
   -3   -2   13     -0.04      0.00
   12   -2   13     -0.20      0.00
   13   -2   13      0.02      0.00
   14   -2   13     -0.12      0.00
   15   -2   13     -0.01      0.00
   -6   -1   13      0.15      0.00
   -5   -1   13      0.07      0.00
   -4   -1   13      0.00      0.00
   -3   -1   13     -0.18      0.00
   13   -1   13     -0.15      0.00
   14   -1   13      0.18      0.00
   15   -1   13     -0.17      0.00
   16   -1   13      0.06      0.00
   -7    0   13      0.29      0.00
   -6    0   13     -0.13      0.00
   -5    0   13     -0.19      0.00
   -4    0   13     -0.11      0.00
   13    0   13      0.26      0.00
   14    0   13     -0.18      0.00
   15    0   13      0.27      0.00
   16    0   13     -0.14      0.00
   -7    1   13     -0.17      0.00
   -6    1   13      0.04      0.00
   -5    1   13      0.29      0.00
   -4    1   13      0.20      0.00
   13    1   13     -0.26      0.00
   14    1   13      0.03      0.00
   15    1   13     -0.13      0.00
   16    1   13      0.10      0.00
   -7    2   13     -0.01      0.00
   -6    2   13     -0.14      0.00
   -5    2   13     -0.16      0.00
   -4    2   13     -0.25      0.00
   14    2   13      0.10      0.00
   15    2   13     -0.12      0.00
   16    2   13      0.00      0.00
   -7    3   13      0.12      0.00
   -6    3   13      0.37      0.00
   -5    3   13     -0.18      0.00
   14    3   13      0.00      0.00
   15    3   13      0.15      0.00
   16    3   13     -0.01      0.00
   -7    4   13     -0.12      0.00
   -6    4   13     -0.38      0.00
   -5    4   13      0.32      0.00
   14    4   13     -0.22      0.00
   15    4   13      0.05      0.00
   16    4   13     -0.05      0.00
   -7    5   13      0.03      0.00
   -6    5   13      0.12      0.00
   -5    5   13     -0.12      0.00
   -4    5   13     -0.06      0.00
   14    5   13      0.26      0.00
   15    5   13     -0.14      0.00
   16    5   13      0.00      0.00
   -7    6   13      0.08      0.00
   -6    6   13      0.04      0.00
   -5    6   13     -0.07      0.00
   -4    6   13      0.06      0.00
    8    6   13     -0.34      0.00
   13    6   13     -0.34      0.00
   14    6   13     -0.11      0.00
   15    6   13      0.03      0.00
   16    6   13      0.14      0.00
   -7    7   13     -0.07      0.00
   -6    7   13      0.02      0.00
   -5    7   13     -0.06      0.00
   -4    7   13      0.11      0.00
   12    7   13     -0.65      0.00
   13    7   13      0.40      0.00
   14    7   13      0.02      0.00
   15    7   13      0.05      0.00
   16    7   13     -0.16      0.00
   -6    8   13     -0.02      0.00
   -5    8   13      0.23      0.00
   -4    8   13     -0.20      0.00
   -3    8   13     -0.21      0.00
   11    8   13      0.18      0.00
   12    8   13      0.37      0.00
   13    8   13     -0.31      0.00
   14    8   13     -0.05      0.00
   15    8   13      0.00      0.00
   16    8   13      0.00      0.00
   -6    9   13     -0.18      0.00
   -5    9   13     -0.08      0.00
   -4    9   13      0.08      0.00
   -3    9   13      0.22      0.00
   12    9   13     -0.15      0.00
   13    9   13      0.25      0.00
   14    9   13      0.02      0.00
   15    9   13     -0.02      0.00
   -6   10   13      0.31      0.00
   -5   10   13     -0.25      0.00
   -4   10   13      0.11      0.00
   -3   10   13     -0.14      0.00
   -2   10   13      0.01      0.00
   11   10   13      0.20      0.00
   12   10   13      0.15      0.00
   13   10   13     -0.25      0.00
   14   10   13      0.10      0.00
   15   10   13     -0.07      0.00
   -5   11   13      0.35      0.00
   -4   11   13     -0.15      0.00
   -3   11   13     -0.06      0.00
   -2   11   13      0.14      0.00
   -1   11   13     -0.39      0.00
   10   11   13      0.17      0.00
   11   11   13      0.00      0.00
   12   11   13     -0.18      0.00
   13   11   13      0.15      0.00
   14   11   13     -0.10      0.00
   -4   12   13      0.04      0.00
   -3   12   13      0.13      0.00
   -2   12   13     -0.16      0.00
   -1   12   13      0.36      0.00
    0   12   13     -0.46      0.00
    1   12   13     -0.05      0.00
    8   12   13      0.12      0.00
    9   12   13      0.08      0.00
   10   12   13     -0.10      0.00
   11   12   13     -0.07      0.00
   12   12   13      0.04      0.00
   13   12   13      0.07      0.00
   -3   13   13      0.00      0.00
   -2   13   13      0.00      0.00
   -1   13   13     -0.18      0.00
    0   13   13      0.26      0.00
    1   13   13      0.04      0.00
    2   13   13     -0.31      0.00
    3   13   13      0.12      0.00
    4   13   13      0.21      0.00
    5   13   13     -0.19      0.00
    6   13   13      0.10      0.00
    7   13   13     -0.08      0.00
    8   13   13     -0.05      0.00
    9   13   13      0.11      0.00
   10   13   13     -0.09      0.00
   11   13   13      0.07      0.00
   12   13   13      0.10      0.00
   13   13   13     -0.17      0.00
   -2   14   13      0.10      0.00
   -1   14   13      0.04      0.00
    0   14   13      0.04      0.00
    1   14   13     -0.18      0.00
    2   14   13      0.09      0.00
    3   14   13      0.14      0.00
    4   14   13     -0.09      0.00
    5   14   13     -0.16      0.00
    6   14   13      0.09      0.00
    7   14   13      0.09      0.00
    8   14   13      0.07      0.00
    9   14   13     -0.22      0.00
   10   14   13      0.18      0.00
   11   14   13     -0.09      0.00
   -1   15   13     -0.11      0.00
    0   15   13     -0.07      0.00
    1   15   13      0.12      0.00
    2   15   13      0.07      0.00
    3   15   13     -0.19      0.00
    4   15   13      0.03      0.00
    5   15   13      0.17      0.00
    6   15   13     -0.09      0.00
    7   15   13     -0.01      0.00
    8   15   13     -0.13      0.00
    9   15   13      0.17      0.00
   10   15   13     -0.07      0.00
    4   -8   14     -0.19      0.00
    5   -8   14     -0.01      0.00
    6   -8   14      0.05      0.00
    0   -7   14     -0.03      0.00
    1   -7   14      0.10      0.00
    2   -7   14     -0.29      0.00
    3   -7   14     -0.05      0.00
    4   -7   14      0.26      0.00
    5   -7   14      0.08      0.00
    6   -7   14     -0.32      0.00
    7   -7   14      0.17      0.00
    8   -7   14     -0.01      0.00
    9   -7   14      0.04      0.00
   -1   -6   14     -0.26      0.00
    0   -6   14      0.17      0.00
    1   -6   14     -0.09      0.00
    2   -6   14      0.33      0.00
    3   -6   14     -0.08      0.00
    4   -6   14     -0.15      0.00
    5   -6   14     -0.10      0.00
    6   -6   14      0.34      0.00
    7   -6   14     -0.26      0.00
    8   -6   14     -0.01      0.00
    9   -6   14      0.08      0.00
   10   -6   14     -0.01      0.00
   11   -6   14     -0.13      0.00
   -2   -5   14      0.23      0.00
   -1   -5   14      0.20      0.00
    0   -5   14     -0.20      0.00
    1   -5   14      0.12      0.00
    2   -5   14     -0.25      0.00
    3   -5   14      0.08      0.00
    4   -5   14     -0.05      0.00
    5   -5   14      0.08      0.00
    6   -5   14     -0.03      0.00
    7   -5   14      0.08      0.00
    8   -5   14      0.03      0.00
    9   -5   14     -0.14      0.00
   10   -5   14      0.15      0.00
   11   -5   14     -0.02      0.00
   12   -5   14     -0.09      0.00
   -3   -4   14      0.05      0.00
   -2   -4   14     -0.16      0.00
   -1   -4   14     -0.01      0.00
    0   -4   14      0.00      0.00
    1   -4   14     -0.11      0.00
    2   -4   14      0.15      0.00
    3   -4   14      0.08      0.00
    4   -4   14      0.10      0.00
    5   -4   14     -0.02      0.00
    6   -4   14     -0.35      0.00
    7   -4   14      0.11      0.00
    8   -4   14      0.09      0.00
    9   -4   14      0.01      0.00
   10   -4   14     -0.19      0.00
   11   -4   14      0.26      0.00
   12   -4   14      0.01      0.00
   13   -4   14      0.04      0.00
   -4   -3   14      0.01      0.00
   -3   -3   14      0.01      0.00
   -2   -3   14     -0.03      0.00
   -1   -3   14      0.05      0.00
    0   -3   14      0.14      0.00
    1   -3   14     -0.04      0.00
    2   -3   14     -0.05      0.00
    3   -3   14     -0.14      0.00
    9   -3   14      0.25      0.00
   10   -3   14      0.01      0.00
   11   -3   14     -0.31      0.00
   12   -3   14      0.11      0.00
   13   -3   14      0.05      0.00
   14   -3   14      0.10      0.00
   -5   -2   14     -0.08      0.00
   -4   -2   14      0.01      0.00
   -3   -2   14      0.06      0.00
   -2   -2   14      0.11      0.00
   -1   -2   14     -0.27      0.00
    0   -2   14     -0.02      0.00
    1   -2   14      0.27      0.00
    2   -2   14     -0.19      0.00
   10   -2   14      0.25      0.00
   11   -2   14      0.06      0.00
   12   -2   14     -0.16      0.00
   13   -2   14     -0.01      0.00
   14   -2   14     -0.09      0.00
   -5   -1   14      0.12      0.00
   -4   -1   14      0.06      0.00
   -3   -1   14     -0.24      0.00
   -2   -1   14      0.00      0.00
   -1   -1   14      0.28      0.00
   11   -1   14      0.25      0.00
   12   -1   14      0.09      0.00
   13   -1   14     -0.13      0.00
   14   -1   14      0.18      0.00
   15   -1   14     -0.10      0.00
   -5    0   14     -0.12      0.00
   -4    0   14     -0.21      0.00
   -3    0   14      0.30      0.00
   -2    0   14      0.04      0.00
   12    0   14      0.02      0.00
   13    0   14      0.22      0.00
   14    0   14     -0.27      0.00
   15    0   14      0.25      0.00
   -6    1   14      0.05      0.00
   -5    1   14      0.18      0.00
   -4    1   14      0.28      0.00
   -3    1   14     -0.21      0.00
   -2    1   14     -0.43      0.00
   12    1   14     -0.09      0.00
   13    1   14     -0.18      0.00
   14    1   14      0.20      0.00
   15    1   14     -0.22      0.00
   -6    2   14     -0.01      0.00
   -5    2   14     -0.18      0.00
   -4    2   14     -0.22      0.00
   -3    2   14      0.13      0.00
   13    2   14      0.12      0.00
   14    2   14     -0.07      0.00
   15    2   14      0.02      0.00
   16    2   14     -0.04      0.00
   -6    3   14      0.10      0.00
   -5    3   14     -0.03      0.00
   -4    3   14      0.18      0.00
   -3    3   14     -0.18      0.00
   13    3   14     -0.16      0.00
   14    3   14      0.11      0.00
   15    3   14      0.08      0.00
   16    3   14     -0.01      0.00
   -6    4   14     -0.12      0.00
   -5    4   14      0.25      0.00
   -4    4   14     -0.19      0.00
   -3    4   14      0.15      0.00
   13    4   14      0.23      0.00
   14    4   14     -0.30      0.00
   15    4   14      0.04      0.00
   16    4   14     -0.04      0.00
   -6    5   14     -0.03      0.00
   -5    5   14     -0.22      0.00
   -4    5   14      0.19      0.00
   -3    5   14      0.11      0.00
   13    5   14     -0.13      0.00
   14    5   14      0.33      0.00
   15    5   14     -0.14      0.00
   16    5   14      0.05      0.00
   -6    6   14      0.14      0.00
   -5    6   14      0.11      0.00
   -4    6   14     -0.17      0.00
   -3    6   14     -0.42      0.00
   13    6   14     -0.12      0.00
   14    6   14     -0.10      0.00
   15    6   14      0.04      0.00
   16    6   14      0.04      0.00
   -6    7   14     -0.07      0.00
   -5    7   14     -0.20      0.00
   -4    7   14      0.21      0.00
   -3    7   14      0.54      0.00
   -2    7   14     -0.56      0.00
    2    7   14     -0.26      0.00
   12    7   14     -0.15      0.00
   13    7   14      0.27      0.00
   14    7   14     -0.14      0.00
   15    7   14      0.12      0.00
   -5    8   14      0.37      0.00
   -4    8   14     -0.24      0.00
   -3    8   14     -0.50      0.00
   -2    8   14      0.50      0.00
    2    8   14      0.17      0.00
   12    8   14     -0.10      0.00
   13    8   14     -0.18      0.00
   14    8   14      0.16      0.00
   15    8   14     -0.16      0.00
   -5    9   14     -0.26      0.00
   -4    9   14      0.11      0.00
   -3    9   14      0.43      0.00
   -2    9   14     -0.31      0.00
   -1    9   14     -0.23      0.00
    9    9   14      0.33      0.00
   11    9   14     -0.50      0.00
   12    9   14      0.21      0.00
   13    9   14      0.06      0.00
   14    9   14     -0.11      0.00
   15    9   14      0.17      0.00
   -4   10   14      0.12      0.00
   -3   10   14     -0.29      0.00
   -2   10   14      0.12      0.00
   -1   10   14      0.26      0.00
    0   10   14     -0.08      0.00
    1   10   14     -0.34      0.00
    9   10   14     -0.03      0.00
   10   10   14     -0.24      0.00
   11   10   14      0.37      0.00
   12   10   14     -0.04      0.00
   13   10   14     -0.09      0.00
   14   10   14      0.15      0.00
   -4   11   14     -0.24      0.00
   -3   11   14      0.08      0.00
   -2   11   14      0.07      0.00
   -1   11   14     -0.30      0.00
    0   11   14      0.36      0.00
    1   11   14      0.08      0.00
    2   11   14     -0.47      0.00
    8   11   14     -0.14      0.00
    9   11   14     -0.14      0.00
   10   11   14      0.32      0.00
   11   11   14     -0.15      0.00
   12   11   14     -0.13      0.00
   13   11   14      0.14      0.00
   14   11   14     -0.19      0.00
   -3   12   14      0.03      0.00
   -2   12   14     -0.18      0.00
   -1   12   14      0.27      0.00
    0   12   14     -0.46      0.00
    1   12   14      0.21      0.00
    2   12   14      0.38      0.00
    3   12   14     -0.36      0.00
    4   12   14     -0.24      0.00
    5   12   14      0.32      0.00
    6   12   14      0.07      0.00
    7   12   14     -0.15      0.00
    8   12   14      0.06      0.00
    9   12   14      0.06      0.00
   10   12   14     -0.16      0.00
   11   12   14      0.00      0.00
   12   12   14      0.07      0.00
   13   12   14     -0.01      0.00
   -2   13   14      0.08      0.00
   -1   13   14     -0.11      0.00
    0   13   14      0.19      0.00
    1   13   14     -0.17      0.00
    2   13   14     -0.08      0.00
    3   13   14      0.17      0.00
    4   13   14     -0.01      0.00
    5   13   14     -0.07      0.00
    6   13   14      0.17      0.00
    7   13   14     -0.26      0.00
    8   13   14      0.04      0.00
    9   13   14      0.13      0.00
   10   13   14     -0.08      0.00
   11   13   14      0.06      0.00
   12   13   14      0.09      0.00
   -1   14   14     -0.05      0.00
    0   14   14      0.14      0.00
    1   14   14     -0.07      0.00
    2   14   14     -0.12      0.00
    3   14   14      0.16      0.00
    4   14   14      0.06      0.00
    5   14   14     -0.18      0.00
    6   14   14     -0.09      0.00
    7   14   14      0.26      0.00
    8   14   14      0.04      0.00
    9   14   14     -0.25      0.00
   10   14   14      0.16      0.00
   11   14   14     -0.08      0.00
    1   15   14      0.07      0.00
    2   15   14      0.21      0.00
    3   15   14     -0.28      0.00
    4   15   14      0.03      0.00
    5   15   14      0.16      0.00
    6   15   14     -0.01      0.00
    7   15   14     -0.05      0.00
    8   15   14     -0.20      0.00
    9   15   14      0.24      0.00
    2   -6   15      0.11      0.00
    3   -6   15      0.02      0.00
    4   -6   15     -0.08      0.00
    5   -6   15     -0.03      0.00
    6   -6   15      0.17      0.00
    7   -6   15     -0.16      0.00
    8   -6   15      0.01      0.00
    9   -6   15     -0.03      0.00
    0   -5   15     -0.17      0.00
    1   -5   15      0.14      0.00
    2   -5   15     -0.08      0.00
    3   -5   15      0.03      0.00
    4   -5   15     -0.20      0.00
    5   -5   15      0.10      0.00
    6   -5   15      0.05      0.00
    7   -5   15      0.08      0.00
    8   -5   15      0.00      0.00
    9   -5   15     -0.05      0.00
   10   -5   15      0.03      0.00
   -1   -4   15     -0.01      0.00
    0   -4   15      0.04      0.00
    1   -4   15     -0.18      0.00
    2   -4   15      0.10      0.00
    3   -4   15      0.02      0.00
    4   -4   15      0.30      0.00
    5   -4   15     -0.05      0.00
    6   -4   15     -0.41      0.00
    7   -4   15      0.14      0.00
    8   -4   15     -0.02      0.00
    9   -4   15      0.11      0.00
   10   -4   15     -0.11      0.00
   11   -4   15      0.21      0.00
   12   -4   15     -0.05      0.00
   -2   -3   15      0.01      0.00
   -1   -3   15     -0.01      0.00
    0   -3   15      0.11      0.00
    1   -3   15      0.07      0.00
    2   -3   15     -0.13      0.00
    3   -3   15     -0.02      0.00
    4   -3   15     -0.15      0.00
    5   -3   15     -0.17      0.00
    6   -3   15      0.61      0.00
    7   -3   15     -0.14      0.00
    8   -3   15     -0.10      0.00
    9   -3   15     -0.06      0.00
   10   -3   15      0.03      0.00
   11   -3   15     -0.18      0.00
   12   -3   15      0.09      0.00
   13   -3   15      0.06      0.00
   -3   -2   15      0.15      0.00
   -2   -2   15      0.02      0.00
   -1   -2   15     -0.20      0.00
    0   -2   15      0.03      0.00
    1   -2   15      0.10      0.00
    2   -2   15      0.01      0.00
    3   -2   15     -0.05      0.00
    4   -2   15      0.01      0.00
    5   -2   15      0.39      0.00
    6   -2   15     -0.52      0.00
    7   -2   15     -0.16      0.00
    8   -2   15      0.32      0.00
    9   -2   15     -0.04      0.00
   10   -2   15      0.17      0.00
   11   -2   15     -0.10      0.00
   12   -2   15     -0.04      0.00
   13   -2   15     -0.03      0.00
   -3   -1   15     -0.26      0.00
   -2   -1   15      0.03      0.00
   -1   -1   15      0.31      0.00
    0   -1   15     -0.25      0.00
    1   -1   15     -0.18      0.00
    2   -1   15      0.30      0.00
    9   -1   15     -0.04      0.00
   10   -1   15     -0.24      0.00
   11   -1   15      0.39      0.00
   12   -1   15     -0.08      0.00
   13   -1   15     -0.11      0.00
   14   -1   15      0.15      0.00
   -4    0   15     -0.29      0.00
   -3    0   15      0.29      0.00
   -2    0   15      0.00      0.00
   -1    0   15     -0.11      0.00
    0    0   15      0.15      0.00
    1    0   15      0.11      0.00
   10    0   15      0.00      0.00
   11    0   15     -0.40      0.00
   12    0   15      0.18      0.00
   13    0   15      0.20      0.00
   14    0   15     -0.27      0.00
   -4    1   15      0.34      0.00
   -3    1   15     -0.16      0.00
   -2    1   15     -0.24      0.00
   -1    1   15     -0.06      0.00
    0    1   15      0.18      0.00
   11    1   15      0.13      0.00
   12    1   15     -0.22      0.00
   13    1   15     -0.12      0.00
   14    1   15      0.23      0.00
   15    1   15     -0.17      0.00
   -4    2   15     -0.19      0.00
   -3    2   15     -0.03      0.00
   -2    2   15      0.45      0.00
   -1    2   15     -0.01      0.00
   11    2   15      0.08      0.00
   12    2   15      0.18      0.00
   13    2   15     -0.02      0.00
   14    2   15     -0.05      0.00
   15    2   15      0.07      0.00
   -5    3   15     -0.03      0.00
   -4    3   15      0.02      0.00
   -3    3   15      0.10      0.00
   -2    3   15     -0.25      0.00
   -1    3   15      0.01      0.00
   11    3   15     -0.06      0.00
   12    3   15     -0.11      0.00
   13    3   15      0.01      0.00
   14    3   15     -0.04      0.00
   15    3   15      0.04      0.00
   -5    4   15      0.14      0.00
   -4    4   15     -0.03      0.00
   -3    4   15     -0.08      0.00
   -2    4   15     -0.17      0.00
   -1    4   15      0.34      0.00
   11    4   15     -0.05      0.00
   12    4   15      0.04      0.00
   13    4   15      0.11      0.00
   14    4   15     -0.07      0.00
   15    4   15      0.00      0.00
   -5    5   15     -0.15      0.00
   -4    5   15      0.13      0.00
   -3    5   15      0.14      0.00
   -2    5   15      0.26      0.00
   -1    5   15     -0.72      0.00
   11    5   15      0.04      0.00
   12    5   15     -0.01      0.00
   13    5   15     -0.12      0.00
   14    5   15      0.14      0.00
   15    5   15     -0.10      0.00
   -4    6   15     -0.16      0.00
   -3    6   15     -0.32      0.00
   -2    6   15      0.08      0.00
   -1    6   15      0.75      0.00
    3    6   15      0.51      0.00
    4    6   15     -0.21      0.00
   11    6   15      0.12      0.00
   12    6   15     -0.03      0.00
   13    6   15     -0.07      0.00
   14    6   15      0.02      0.00
   15    6   15      0.07      0.00
   -4    7   15      0.12      0.00
   -3    7   15      0.44      0.00
   -2    7   15     -0.38      0.00
   -1    7   15     -0.49      0.00
    0    7   15      0.37      0.00
    2    7   15     -0.27      0.00
    3    7   15      0.14      0.00
   11    7   15     -0.28      0.00
   12    7   15      0.15      0.00
   13    7   15      0.19      0.00
   14    7   15     -0.21      0.00
   15    7   15      0.05      0.00
   -4    8   15     -0.07      0.00
   -3    8   15     -0.41      0.00
   -2    8   15      0.33      0.00
   -1    8   15      0.27      0.00
    0    8   15     -0.23      0.00
    2    8   15      0.22      0.00
    3    8   15     -0.36      0.00
   10    8   15      0.26      0.00
   11    8   15      0.40      0.00
   12    8   15     -0.29      0.00
   13    8   15     -0.07      0.00
   14    8   15      0.18      0.00
   15    8   15     -0.10      0.00
   -4    9   15     -0.02      0.00
   -3    9   15      0.26      0.00
   -2    9   15     -0.11      0.00
   -1    9   15     -0.16      0.00
    0    9   15     -0.03      0.00
    1    9   15      0.25      0.00
    2    9   15     -0.06      0.00
    3    9   15      0.05      0.00
    4    9   15     -0.07      0.00
    9    9   15      0.38      0.00
   10    9   15     -0.04      0.00
   11    9   15     -0.42      0.00
   12    9   15      0.27      0.00
   13    9   15     -0.12      0.00
   14    9   15     -0.01      0.00
   -3   10   15     -0.06      0.00
   -2   10   15     -0.06      0.00
   -1   10   15      0.06      0.00
    0   10   15      0.11      0.00
    1   10   15     -0.28      0.00
    2   10   15      0.14      0.00
    3   10   15      0.16      0.00
    4   10   15     -0.34      0.00
    7   10   15     -0.32      0.00
    8   10   15      0.20      0.00
    9   10   15     -0.11      0.00
   10   10   15     -0.30      0.00
   11   10   15      0.34      0.00
   12   10   15     -0.06      0.00
   13   10   15      0.10      0.00
   14   10   15     -0.02      0.00
   -2   11   15      0.16      0.00
   -1   11   15      0.02      0.00
    0   11   15      0.05      0.00
    1   11   15      0.01      0.00
    2   11   15     -0.23      0.00
    3   11   15      0.00      0.00
    4   11   15      0.42      0.00
    5   11   15     -0.18      0.00
    6   11   15     -0.41      0.00
    7   11   15      0.47      0.00
    8   11   15     -0.24      0.00
    9   11   15     -0.08      0.00
   10   11   15      0.43      0.00
   11   11   15     -0.19      0.00
   12   11   15     -0.12      0.00
   13   11   15      0.04      0.00
   -1   12   15     -0.06      0.00
    0   12   15     -0.16      0.00
    1   12   15      0.31      0.00
    2   12   15      0.05      0.00
    3   12   15     -0.19      0.00
    4   12   15     -0.10      0.00
    5   12   15      0.10      0.00
    6   12   15      0.17      0.00
    7   12   15     -0.18      0.00
    8   12   15      0.08      0.00
    9   12   15      0.08      0.00
   10   12   15     -0.24      0.00
   11   12   15      0.05      0.00
   12   12   15      0.07      0.00
    0   13   15      0.01      0.00
    1   13   15     -0.29      0.00
    2   13   15      0.19      0.00
    3   13   15      0.10      0.00
    4   13   15     -0.20      0.00
    5   13   15      0.11      0.00
    6   13   15      0.08      0.00
    7   13   15     -0.22      0.00
    8   13   15      0.11      0.00
    9   13   15      0.00      0.00
   10   13   15     -0.01      0.00
   11   13   15      0.06      0.00
    1   14   15      0.00      0.00
    2   14   15     -0.22      0.00
    3   14   15      0.13      0.00
    4   14   15      0.19      0.00
    5   14   15     -0.20      0.00
    6   14   15     -0.12      0.00
    7   14   15      0.24      0.00
    8   14   15     -0.04      0.00
    9   14   15     -0.07      0.00
    5   15   15      0.04      0.00
    6   15   15      0.05      0.00
    4   -5   16     -0.21      0.00
    5   -5   16      0.14      0.00
    6   -5   16      0.06      0.00
    7   -5   16     -0.01      0.00
    1   -4   16     -0.14      0.00
    2   -4   16     -0.02      0.00
    3   -4   16      0.15      0.00
    4   -4   16      0.23      0.00
    5   -4   16     -0.19      0.00
    6   -4   16     -0.19      0.00
    7   -4   16      0.11      0.00
    8   -4   16     -0.14      0.00
    9   -4   16      0.09      0.00
   10   -4   16      0.05      0.00
    0   -3   16      0.18      0.00
    1   -3   16      0.07      0.00
    2   -3   16     -0.19      0.00
    3   -3   16     -0.06      0.00
    4   -3   16     -0.04      0.00
    5   -3   16      0.02      0.00
    6   -3   16      0.28      0.00
    7   -3   16     -0.17      0.00
    8   -3   16      0.19      0.00
    9   -3   16     -0.26      0.00
   10   -3   16      0.04      0.00
   11   -3   16     -0.13      0.00
   -1   -2   16      0.09      0.00
    0   -2   16     -0.16      0.00
    1   -2   16      0.01      0.00
    2   -2   16      0.31      0.00
    3   -2   16     -0.12      0.00
    4   -2   16     -0.17      0.00
    5   -2   16      0.21      0.00
    6   -2   16     -0.22      0.00
    7   -2   16      0.05      0.00
    8   -2   16     -0.12      0.00
    9   -2   16      0.28      0.00
   10   -2   16      0.00      0.00
   11   -2   16     -0.08      0.00
   12   -2   16     -0.04      0.00
   -2   -1   16      0.16      0.00
   -1   -1   16      0.00      0.00
    0   -1   16     -0.11      0.00
    1   -1   16      0.03      0.00
    2   -1   16     -0.17      0.00
    3   -1   16      0.07      0.00
    4   -1   16      0.29      0.00
    5   -1   16     -0.29      0.00
    6   -1   16      0.06      0.00
    7   -1   16      0.09      0.00
    8   -1   16      0.03      0.00
    9   -1   16     -0.21      0.00
   10   -1   16     -0.08      0.00
   11   -1   16      0.34      0.00
   12   -1   16     -0.12      0.00
   13   -1   16     -0.07      0.00
   -2    0   16     -0.19      0.00
   -1    0   16      0.09      0.00
    0    0   16      0.21      0.00
    1    0   16     -0.17      0.00
    2    0   16     -0.05      0.00
    3    0   16      0.25      0.00
    4    0   16     -0.41      0.00
    5    0   16      0.17      0.00
    6    0   16      0.11      0.00
    7    0   16     -0.02      0.00
    8    0   16     -0.12      0.00
    9    0   16      0.18      0.00
   10    0   16      0.02      0.00
   11    0   16     -0.37      0.00
   12    0   16      0.24      0.00
   13    0   16      0.15      0.00
   -3    1   16     -0.05      0.00
   -2    1   16      0.06      0.00
   -1    1   16     -0.26      0.00
    0    1   16      0.00      0.00
    1    1   16      0.26      0.00
    2    1   16      0.03      0.00
    3    1   16     -0.41      0.00
    4    1   16      0.43      0.00
    5    1   16      0.04      0.00
    6    1   16     -0.25      0.00
    7    1   16     -0.18      0.00
    8    1   16      0.32      0.00
    9    1   16     -0.17      0.00
   10    1   16      0.16      0.00
   11    1   16      0.11      0.00
   12    1   16     -0.23      0.00
   13    1   16     -0.08      0.00
   14    1   16      0.18      0.00
   -3    2   16     -0.13      0.00
   -2    2   16      0.12      0.00
   -1    2   16      0.28      0.00
    0    2   16     -0.17      0.00
    1    2   16     -0.29      0.00
    2    2   16      0.18      0.00
    3    2   16      0.15      0.00
    8    2   16     -0.36      0.00
    9    2   16      0.05      0.00
   10    2   16     -0.22      0.00
   11    2   16      0.18      0.00
   12    2   16      0.13      0.00
   13    2   16     -0.09      0.00
   14    2   16     -0.01      0.00
   -3    3   16      0.25      0.00
   -2    3   16     -0.08      0.00
   -1    3   16     -0.27      0.00
    0    3   16      0.08      0.00
    1    3   16      0.31      0.00
    2    3   16     -0.19      0.00
    9    3   16      0.16      0.00
   10    3   16      0.04      0.00
   11    3   16     -0.25      0.00
   12    3   16     -0.01      0.00
   13    3   16      0.15      0.00
   14    3   16     -0.17      0.00
   -3    4   16     -0.21      0.00
   -2    4   16     -0.15      0.00
   -1    4   16      0.44      0.00
    0    4   16      0.02      0.00
    1    4   16     -0.35      0.00
    2    4   16     -0.11      0.00
    9    4   16     -0.21      0.00
   10    4   16      0.17      0.00
   11    4   16      0.13      0.00
   12    4   16     -0.06      0.00
   13    4   16     -0.05      0.00
   14    4   16      0.16      0.00
   -3    5   16      0.10      0.00
   -2    5   16      0.23      0.00
   -1    5   16     -0.64      0.00
    0    5   16      0.12      0.00
    1    5   16      0.35      0.00
    2    5   16      0.27      0.00
    9    5   16      0.06      0.00
   10    5   16     -0.22      0.00
   11    5   16     -0.08      0.00
   12    5   16      0.08      0.00
   13    5   16      0.00      0.00
   14    5   16     -0.08      0.00
   -3    6   16     -0.07      0.00
   -2    6   16     -0.03      0.00
   -1    6   16      0.56      0.00
    0    6   16     -0.36      0.00
    1    6   16     -0.22      0.00
    2    6   16     -0.11      0.00
    9    6   16      0.02      0.00
   10    6   16      0.21      0.00
   11    6   16      0.14      0.00
   12    6   16     -0.07      0.00
   13    6   16     -0.12      0.00
   14    6   16      0.13      0.00
   -3    7   16      0.13      0.00
   -2    7   16     -0.17      0.00
   -1    7   16     -0.29      0.00
    0    7   16      0.42      0.00
    1    7   16     -0.02      0.00
    2    7   16     -0.06      0.00
    3    7   16      0.07      0.00
    8    7   16      0.28      0.00
    9    7   16      0.14      0.00
   10    7   16     -0.25      0.00
   11    7   16     -0.19      0.00
   12    7   16      0.09      0.00
   13    7   16      0.23      0.00
   14    7   16     -0.23      0.00
   -2    8   16      0.11      0.00
   -1    8   16      0.10      0.00
    0    8   16     -0.24      0.00
    1    8   16      0.14      0.00
    2    8   16     -0.04      0.00
    3    8   16     -0.27      0.00
    4    8   16      0.45      0.00
    5    8   16     -0.21      0.00
    6    8   16      0.16      0.00
    7    8   16     -0.06      0.00
    8    8   16     -0.03      0.00
    9    8   16     -0.30      0.00
   10    8   16      0.21      0.00
   11    8   16      0.17      0.00
   12    8   16     -0.09      0.00
   13    8   16     -0.11      0.00
   14    8   16      0.13      0.00
   -2    9   16      0.10      0.00
   -1    9   16     -0.04      0.00
    0    9   16     -0.02      0.00
    1    9   16      0.00      0.00
    2    9   16      0.13      0.00
    3    9   16      0.03      0.00
    4    9   16     -0.31      0.00
    5    9   16      0.21      0.00
    6    9   16     -0.09      0.00
    7    9   16      0.06      0.00
    8    9   16     -0.13      0.00
    9    9   16      0.20      0.00
   10    9   16      0.04      0.00
   11    9   16     -0.11      0.00
   12    9   16      0.00      0.00
   13    9   16     -0.11      0.00
   -1   10   16     -0.05      0.00
    0   10   16      0.17      0.00
    1   10   16     -0.16      0.00
    2   10   16      0.01      0.00
    3   10   16      0.15      0.00
    4   10   16     -0.12      0.00
    5   10   16     -0.03      0.00
    6   10   16      0.19      0.00
    7   10   16     -0.24      0.00
    8   10   16      0.23      0.00
    9   10   16      0.03      0.00
   10   10   16     -0.35      0.00
   11   10   16      0.08      0.00
   12   10   16      0.16      0.00
   13   10   16      0.15      0.00
   -1   11   16      0.16      0.00
    0   11   16     -0.14      0.00
    1   11   16      0.06      0.00
    2   11   16     -0.14      0.00
    3   11   16     -0.03      0.00
    4   11   16      0.27      0.00
    5   11   16     -0.12      0.00
    6   11   16     -0.29      0.00
    7   11   16      0.41      0.00
    8   11   16     -0.23      0.00
    9   11   16     -0.14      0.00
   10   11   16      0.41      0.00
   11   11   16     -0.05      0.00
   12   11   16     -0.23      0.00
    0   12   16      0.07      0.00
    1   12   16      0.17      0.00
    2   12   16     -0.01      0.00
    3   12   16     -0.12      0.00
    4   12   16     -0.03      0.00
    5   12   16      0.05      0.00
    6   12   16      0.21      0.00
    7   12   16     -0.27      0.00
    8   12   16      0.07      0.00
    9   12   16      0.12      0.00
   10   12   16     -0.19      0.00
   11   12   16      0.00      0.00
    2   13   16      0.20      0.00
    3   13   16      0.05      0.00
    4   13   16     -0.22      0.00
    5   13   16      0.14      0.00
    6   13   16     -0.06      0.00
    7   13   16     -0.02      0.00
    8   13   16      0.13      0.00
    9   13   16     -0.10      0.00
   10   13   16     -0.04      0.00
    5   14   16     -0.16      0.00
    6   14   16      0.01      0.00
    7   14   16      0.06      0.00
    0    0    0      0.00      0.00
loop_
  _platon_squeeze_void_nr
  _platon_squeeze_void_average_x
  _platon_squeeze_void_average_y
  _platon_squeeze_void_average_z
  _platon_squeeze_void_volume
  _platon_squeeze_void_count_electrons
  _platon_squeeze_void_content
   1  0.500  0.500  0.000       233         6 ' '
_platon_squeeze_details
(replace by semicolon in column 1 when used as .sqf)
TITL MBIA99 in P1                New: P-1
CELL   13.6660   13.9130   14.5800     73.20     67.95     83.27
SPGR P-1
Q101 0.094 0.120 0.811 !       2.35 eA-3
Q102 0.809 0.858 0.500 !       2.13 eA-3
Q103 0.831 0.811 0.372 !       1.67 eA-3
Q104 0.795 0.831 0.261 !       1.48 eA-3
Q105 0.057 0.144 0.702 !       1.43 eA-3
Q106 0.957 0.812 0.250 !       1.33 eA-3
Q107 0.124 0.263 0.623 !       0.96 eA-3
Q108 0.941 0.150 0.842 !       0.93 eA-3
Q109 0.219 0.129 0.675 !       0.92 eA-3
Q110 0.890 0.747 0.291 !       0.90 eA-3
Q111 0.688 0.876 0.343 !       0.87 eA-3
Q112 0.151 0.063 0.815 !       0.86 eA-3
Q113 0.017 0.161 0.859 !       0.86 eA-3
Q114 0.898 0.909 0.392 !       0.83 eA-3
Q115 0.080 0.113 0.889 !       0.82 eA-3
Q116 0.267 0.114 0.759 !       0.81 eA-3
Q117 1.000 0.905 0.202 !       0.79 eA-3
Q118 0.244 0.160 0.565 !       0.78 eA-3
Q119 0.755 0.101 0.054 !       0.78 eA-3
Q120 0.174 0.216 0.828 !       0.78 eA-3
Q121 0.987 0.127 0.042 !       0.76 eA-3
Q122 0.188 0.143 0.846 !       0.76 eA-3
Q123 0.657 0.258 0.011 !       0.76 eA-3
Q124 0.590 0.838 0.764 !       0.75 eA-3
Q125 0.787 0.073 0.139 !       0.73 eA-3
Q126 0.109 0.175 0.578 !       0.73 eA-3
Q127 0.354 0.212 0.816 !       0.72 eA-3
Q128 0.203 0.426 0.751 !       0.72 eA-3
Q129 0.279 0.059 0.410 !       0.72 eA-3
Q130 0.814 0.439 0.798 !       0.72 eA-3
Q131 0.011 0.036 0.140 !       0.70 eA-3
Q132 0.217 0.004 0.983 !       0.70 eA-3
Q133 0.969 0.119 0.862 !       0.70 eA-3
Q134 0.127 0.702 0.857 !       0.70 eA-3
Q135 0.846 0.062 0.961 !       0.69 eA-3
Q136 0.433 0.439 0.485 !       0.69 eA-3
Q137 0.222 0.970 0.142 !       0.69 eA-3
Q138 0.734 0.027 0.281 !       0.69 eA-3
Q139 0.966 0.176 0.925 !       0.67 eA-3
Q140 0.419 0.029 0.807 !       0.67 eA-3
Q141 0.683 0.970 0.187 !       0.67 eA-3
Q142 0.222 0.872-0.009 !       0.67 eA-3
Q143 0.017 0.277 0.775 !       0.67 eA-3
Q144 0.178 1.001 0.563 !       0.67 eA-3
Q145 0.399 0.999 0.688 !       0.66 eA-3
Q146 0.753 0.256 0.202 !       0.66 eA-3
Q147 0.870 0.652 0.199 !       0.66 eA-3
Q148 0.457 1.000 0.963 !       0.64 eA-3
Q149 0.192 0.703 0.897 !       0.64 eA-3
Q150 0.147 0.959 0.878 !       0.63 eA-3
Q151 0.033 0.775 0.207 !       0.63 eA-3
Q152 0.676 0.250 0.543 !       0.63 eA-3
Q153 0.279 0.323 0.514 !       0.63 eA-3
Q154 0.832 0.251 0.643 !       0.63 eA-3
Q155 0.264 0.762 0.012 !       0.62 eA-3
Q156 0.549 0.236 0.413 !       0.62 eA-3
Q157 0.159 0.059 0.532 !       0.62 eA-3
Q158 0.164 0.785 0.330 !       0.61 eA-3
Q159 0.814 0.116 0.891 !       0.61 eA-3
Q160 0.921 0.049 0.032 !       0.61 eA-3
Q161 0.200 0.721 0.425 !       0.60 eA-3
Q162 0.999 0.258 0.297 !       0.60 eA-3
Q163 0.486 0.086 0.043 !       0.60 eA-3
Q164 0.120 0.047 0.739 !       0.60 eA-3
Q165 0.109 0.137 0.074 !       0.60 eA-3
Q166 0.937 0.611 0.070 !       0.60 eA-3
Q167 0.920 0.096 0.982 !       0.60 eA-3
Q168 0.922 0.319 0.037 !       0.59 eA-3
Q169 0.826 0.587 0.456 !       0.59 eA-3
Q170 0.347 0.896 0.236 !       0.59 eA-3
Q171 0.623 0.816 0.627 !       0.59 eA-3
Q172 0.732 0.567 0.230 !       0.59 eA-3
Q173 0.793 0.338 0.825 !       0.59 eA-3
Q174 0.428 0.854 0.697 !       0.59 eA-3
Q175 0.304 0.096 0.937 !       0.58 eA-3
Q176 0.642 0.656 0.153 !       0.58 eA-3
Q177 0.291 0.266 0.902 !       0.58 eA-3
Q178 0.171 0.304 0.408 !       0.58 eA-3
Q179 0.905 0.117 0.085 !       0.58 eA-3
Q180 0.933 0.298 0.842 !       0.58 eA-3
Q181 0.676 0.932 0.978 !       0.58 eA-3
Q182 0.361 0.415 0.261 !       0.57 eA-3
Q183 0.046 0.485 0.722 !       0.57 eA-3
Q184 0.720 0.846 0.154 !       0.57 eA-3
Q185 0.114 0.724 0.577 !       0.57 eA-3
Q186 0.976 0.765 0.097 !       0.57 eA-3
Q187 0.829 0.171 0.138 !       0.57 eA-3
Q188 0.156 0.373 0.482 !       0.57 eA-3
Q189 0.882 0.014 0.872 !       0.57 eA-3
Q190 0.204 0.776 0.168 !       0.57 eA-3
Q191 0.544 0.115 0.693 !       0.57 eA-3
Q192 0.705 0.794 0.436 !       0.57 eA-3
Q193 0.174 0.693 0.592 !       0.57 eA-3
Q194 1.004 0.137 0.564 !       0.57 eA-3
Q195 0.980 0.643 0.517 !       0.56 eA-3
Q196 0.170 0.259 0.423 !       0.56 eA-3
Q197 0.890 0.620 0.593 !       0.56 eA-3
Q198 0.188 0.995 0.804 !       0.56 eA-3
Q199 0.067 0.086 0.974 !       0.56 eA-3
(replace by semicolon in column 1 when used as .sqf)
;
_shelx_fab_checksum              27388
#END Tags that were not found in dictionaries
loop_
_space_group_symop_operation_xyz
'x, y, z'
'-x, -y, -z'
loop_
_atom_site_label
_atom_site_type_symbol
_atom_site_fract_x
_atom_site_fract_y
_atom_site_fract_z
_atom_site_U_iso_or_equiv
_atom_site_adp_type
_atom_site_occupancy
_atom_site_site_symmetry_order
_atom_site_calc_flag
_atom_site_refinement_flags_posn
_atom_site_refinement_flags_adp
_atom_site_refinement_flags_occupancy
_atom_site_disorder_assembly
_atom_site_disorder_group
Ru1 Ru 0.13145(10) 1.15691(8) -0.28383(11) 0.0577(4) Uani 1 1 d . . . . .
O21 O 0.0847(7) 1.0158(5) -0.1859(7) 0.050(2) Uani 1 1 d . . . . .
O49 O 0.0792(7) 1.1747(6) -0.1269(8) 0.063(3) Uani 1 1 d . . . . .
H49 H 0.1304 1.1365 -0.1351 0.094 Uiso 1 1 calc R U . . .
N22 N -0.0187(8) 1.1857(8) -0.2798(8) 0.049(3) Uani 1 1 d . . . . .
N23 N 0.1668(9) 1.3045(7) -0.3284(10) 0.057(3) Uani 1 1 d . . . . .
N24 N 0.2784(9) 1.1154(8) -0.2828(8) 0.050(3) Uani 1 1 d . . . . .
C1 C 0.1960(11) 0.9251(9) -0.3061(11) 0.052(4) Uani 1 1 d . . . . .
C2C C 0.1340(11) 0.7372(9) -0.4893(11) 0.056(4) Uani 1 1 d . . . . .
H2CA H 0.1373 0.6890 -0.5233 0.067 Uiso 1 1 calc R U . . .
C2A C 0.2440(11) 0.8141(10) -0.4260(12) 0.059(4) Uani 1 1 d . . . . .
H2AA H 0.3142 0.8195 -0.4345 0.071 Uiso 1 1 calc R U . . .
C2B C 0.2263(12) 0.7500(10) -0.4784(13) 0.066(5) Uani 1 1 d . . . . .
H2BA H 0.2840 0.7124 -0.5086 0.079 Uiso 1 1 calc R U . . .
C2 C 0.1737(12) 0.8695(9) -0.3649(12) 0.056(4) Uani 1 1 d . . . . .
C3 C 0.0639(12) 0.8923(9) -0.3556(12) 0.060(4) Uani 1 1 d . . . . .
C3A C 0.0049(11) 0.8539(9) -0.4006(11) 0.053(4) Uani 1 1 d . . . . .
H3AA H -0.0635 0.8789 -0.3900 0.064 Uiso 1 1 calc R U . . .
C3B C 0.0378(11) 0.7833(9) -0.4587(11) 0.056(4) Uani 1 1 d . . . . .
H3BA H -0.0129 0.7656 -0.4791 0.067 Uiso 1 1 calc R U . . .
C4 C 0.0172(10) 0.9620(9) -0.2943(13) 0.058(4) Uani 1 1 d . . . . .
C5 C -0.0780(11) 1.0172(10) -0.2752(12) 0.055(4) Uani 1 1 d . . . . .
C6 C -0.0949(11) 1.1169(10) -0.2658(11) 0.055(4) Uani 1 1 d . . . . .
C7 C -0.1969(12) 1.1686(9) -0.2511(11) 0.054(4) Uani 1 1 d . . . . .
H7A H -0.2617 1.1410 -0.2361 0.065 Uiso 1 1 calc R U . . .
C8 C -0.1760(12) 1.2655(10) -0.2643(12) 0.062(4) Uani 1 1 d . . . . .
H8A H -0.2258 1.3173 -0.2615 0.074 Uiso 1 1 calc R U . . .
C9 C -0.0689(11) 1.2772(10) -0.2828(11) 0.049(4) Uani 1 1 d . . . . .
C10 C -0.0145(11) 1.3647(10) -0.3073(11) 0.050(4) Uani 1 1 d . . . . .
C11 C 0.0883(12) 1.3797(10) -0.3254(12) 0.060(4) Uani 1 1 d . . . . .
C12 C 0.1386(12) 1.4716(10) -0.3392(11) 0.061(4) Uani 1 1 d . . . . .
H12A H 0.1071 1.5350 -0.3455 0.073 Uiso 1 1 calc R U . . .
C13 C 0.2396(12) 1.4503(10) -0.3413(12) 0.064(4) Uani 1 1 d . . . . .
H13A H 0.2889 1.4953 -0.3485 0.077 Uiso 1 1 calc R U . . .
C14 C 0.2544(12) 1.3411(10) -0.3299(13) 0.064(4) Uani 1 1 d . . . . .
C15 C 0.3419(11) 1.2843(10) -0.3115(13) 0.067(5) Uani 1 1 d . . . . .
C16 C 0.3513(12) 1.1791(11) -0.2884(13) 0.062(4) Uani 1 1 d . . . . .
C17 C 0.4463(12) 1.1229(10) -0.2799(12) 0.062(4) Uani 1 1 d . . . . .
H17A H 0.5058 1.1471 -0.2777 0.074 Uiso 1 1 calc R U . . .
C18 C 0.4283(11) 1.0268(9) -0.2757(11) 0.055(4) Uani 1 1 d . . . . .
H18A H 0.4757 0.9735 -0.2709 0.066 Uiso 1 1 calc R U . . .
C19 C 0.3269(11) 1.0196(9) -0.2799(12) 0.054(4) Uani 1 1 d . . . . .
C20 C 0.2957(11) 0.9371(10) -0.2979(12) 0.053(4) Uani 1 1 d . . . . .
C21 C 0.0991(11) 0.9752(9) -0.2610(12) 0.057(4) Uani 1 1 d . . . . .
C25 C -0.1695(11) 0.9634(10) -0.2646(12) 0.056(4) Uani 1 1 d . . . . .
C26 C -0.2060(11) 0.8744(11) -0.1852(13) 0.065(4) Uani 1 1 d . . . . .
H26A H -0.1691 0.8495 -0.1409 0.078 Uiso 1 1 calc R U . . .
C27 C -0.2910(11) 0.8241(10) -0.1703(13) 0.062(4) Uani 1 1 d . . . . .
H27A H -0.3132 0.7672 -0.1156 0.075 Uiso 1 1 calc R U . . .
C28 C -0.3468(10) 0.8583(11) -0.2386(13) 0.065(5) Uani 1 1 d . . . . .
H28A H -0.4065 0.8246 -0.2284 0.078 Uiso 1 1 calc R U . . .
C29 C -0.3112(11) 0.9429(10) -0.3216(13) 0.063(4) Uani 1 1 d . . . . .
H29A H -0.3450 0.9630 -0.3689 0.075 Uiso 1 1 calc R U . . .
C30 C -0.2271(12) 0.9968(10) -0.3340(12) 0.060(4) Uani 1 1 d . . . . .
H30A H -0.2070 1.0551 -0.3872 0.072 Uiso 1 1 calc R U . . .
C31 C -0.0828(11) 1.4621(9) -0.3136(12) 0.051(4) Uani 1 1 d . . . . .
C32 C -0.1169(11) 1.5036(10) -0.3926(12) 0.064(4) Uani 1 1 d . . . . .
H32A H -0.0989 1.4722 -0.4451 0.076 Uiso 1 1 calc R U . . .
C33 C -0.1782(11) 1.5917(10) -0.3987(13) 0.064(4) Uani 1 1 d . . . . .
H33A H -0.1995 1.6186 -0.4546 0.076 Uiso 1 1 calc R U . . .
C34 C -0.2058(10) 1.6372(10) -0.3215(12) 0.057(4) Uani 1 1 d . . . . .
H34A H -0.2470 1.6954 -0.3237 0.069 Uiso 1 1 calc R U . . .
C35 C -0.1734(14) 1.5975(12) -0.2416(15) 0.088(6) Uani 1 1 d . . . . .
H35A H -0.1911 1.6299 -0.1898 0.105 Uiso 1 1 calc R U . . .
C36 C -0.1140(11) 1.5094(10) -0.2349(11) 0.058(4) Uani 1 1 d . . . . .
H36A H -0.0950 1.4819 -0.1777 0.070 Uiso 1 1 calc R U . . .
C37 C 0.4276(12) 1.3404(10) -0.3056(12) 0.054(4) Uani 1 1 d . . . . .
C38 C 0.5032(13) 1.3905(11) -0.3953(14) 0.072(5) Uani 1 1 d . . . . .
H38A H 0.5020 1.3943 -0.4596 0.087 Uiso 1 1 calc R U . . .
C39 C 0.5823(12) 1.4353(11) -0.3825(15) 0.074(5) Uani 1 1 d . . . . .
H39A H 0.6348 1.4703 -0.4413 0.089 Uiso 1 1 calc R U . . .
C40 C 0.5873(14) 1.4312(11) -0.2909(17) 0.082(6) Uani 1 1 d . . . . .
H40A H 0.6392 1.4660 -0.2873 0.099 Uiso 1 1 calc R U . . .
C41 C 0.5174(17) 1.3768(14) -0.2062(17) 0.100(7) Uani 1 1 d . . . . .
H41A H 0.5247 1.3684 -0.1434 0.120 Uiso 1 1 calc R U . . .
C42 C 0.4340(16) 1.3326(13) -0.2096(15) 0.093(6) Uani 1 1 d . . . . .
H42A H 0.3827 1.2981 -0.1493 0.112 Uiso 1 1 calc R U . . .
C43 C 0.3732(11) 0.8527(10) -0.3128(14) 0.067(5) Uani 1 1 d . . . . .
C44 C 0.3458(13) 0.7543(10) -0.2493(14) 0.074(5) Uani 1 1 d . . . . .
H44A H 0.2832 0.7414 -0.1927 0.089 Uiso 1 1 calc R U . . .
C45 C 0.4174(14) 0.6766(12) -0.2755(17) 0.097(7) Uani 1 1 d . . . . .
H45A H 0.3985 0.6110 -0.2372 0.117 Uiso 1 1 calc R U . . .
C46 C 0.5097(13) 0.6916(12) -0.3512(17) 0.098(8) Uani 1 1 d . . . . .
H46A H 0.5549 0.6377 -0.3641 0.118 Uiso 1 1 calc R U . . .
C47 C 0.5399(12) 0.7913(13) -0.4133(15) 0.080(6) Uani 1 1 d . . . . .
H47A H 0.6046 0.8036 -0.4673 0.097 Uiso 1 1 calc R U . . .
C48 C 0.4710(11) 0.8682(10) -0.3912(13) 0.067(5) Uani 1 1 d . . . . .
H48A H 0.4906 0.9335 -0.4303 0.080 Uiso 1 1 calc R U . . .
C49 C 0.0965(13) 1.2551(12) -0.0855(14) 0.083(6) Uani 1 1 d . . . . .
H49A H 0.1607 1.2399 -0.0701 0.099 Uiso 1 1 calc R U . . .
H49B H 0.1066 1.3185 -0.1379 0.099 Uiso 1 1 calc R U . . .
C50 C 0.0090(13) 1.2661(11) 0.0073(13) 0.074(5) Uani 1 1 d . . . . .
H50A H -0.0004 1.2030 0.0601 0.088 Uiso 1 1 calc R U . . .
H50B H -0.0554 1.2804 -0.0078 0.088 Uiso 1 1 calc R U . . .
C51 C 0.0261(14) 1.3468(13) 0.0469(15) 0.082(5) Uani 1 1 d . . . . .
H51A H 0.0898 1.3311 0.0630 0.099 Uiso 1 1 calc R U . . .
H51B H 0.0382 1.4089 -0.0074 0.099 Uiso 1 1 calc R U . . .
C52 C -0.0588(16) 1.3633(14) 0.1365(18) 0.136(10) Uani 1 1 d . . . . .
H52A H -0.0405 1.4167 0.1563 0.204 Uiso 1 1 calc R U . . .
H52B H -0.1220 1.3810 0.1211 0.204 Uiso 1 1 calc R U . . .
H52C H -0.0703 1.3030 0.1917 0.204 Uiso 1 1 calc R U . . .
O200 C 0.1676(10) 1.1463(10) -0.4044(12) 0.054(2) Uani 1 1 d . U . . .
C200 O 0.1939(6) 1.1454(7) -0.4956(8) 0.055(2) Uani 1 1 d . U . . .
O53A O 0.1078(9) 1.0234(8) 0.0179(9) 0.072(4) Uani 0.915(13) 1 d . . P A 1
H53C H 0.0521 1.0106 0.0669 0.109 Uiso 1 1 calc R U . A 1
C53A C 0.1682(16) 0.9247(16) 0.0032(14) 0.094(7) Uani 0.915(13) 1 d . . P A 1
H53A H 0.1374 0.8675 0.0607 0.113 Uiso 0.915(13) 1 calc R U P A 1
H53B H 0.1730 0.9113 -0.0602 0.113 Uiso 0.915(13) 1 calc R U P A 1
C54A C 0.2736(15) 0.9535(15) -0.0010(13) 0.083(6) Uani 0.915(13) 1 d . . P A 1
H54A H 0.2659 0.9708 0.0612 0.099 Uiso 0.915(13) 1 calc R U P A 1
H54B H 0.3031 1.0104 -0.0594 0.099 Uiso 0.915(13) 1 calc R U P A 1
C55A C 0.3472(16) 0.8562(17) -0.0120(15) 0.112(9) Uani 0.915(13) 1 d . . P A 1
H55A H 0.3623 0.8440 -0.0782 0.134 Uiso 0.915(13) 1 calc R U P A 1
H55B H 0.3132 0.7974 0.0416 0.134 Uiso 0.915(13) 1 calc R U P A 1
C56A C 0.4552(16) 0.881(2) -0.0008(18) 0.175(16) Uani 0.915(13) 1 d . . P A 1
H56A H 0.5033 0.8253 -0.0067 0.262 Uiso 0.915(13) 1 calc R U P A 1
H56B H 0.4874 0.9398 -0.0541 0.262 Uiso 0.915(13) 1 calc R U P A 1
H56C H 0.4386 0.8935 0.0650 0.262 Uiso 0.915(13) 1 calc R U P A 1
loop_
_atom_site_aniso_label
_atom_site_aniso_U_11
_atom_site_aniso_U_22
_atom_site_aniso_U_33
_atom_site_aniso_U_23
_atom_site_aniso_U_13
_atom_site_aniso_U_12
Ru1 0.0781(9) 0.0333(6) 0.0787(10) -0.0263(6) -0.0437(7) 0.0171(5)
O21 0.073(6) 0.018(4) 0.072(7) -0.001(4) -0.049(5) -0.002(4)
O49 0.082(7) 0.033(5) 0.103(9) -0.039(5) -0.059(6) 0.028(5)
N22 0.065(7) 0.059(7) 0.050(8) -0.042(6) -0.041(6) 0.039(6)
N23 0.078(9) 0.018(5) 0.075(10) -0.013(6) -0.028(7) 0.006(5)
N24 0.069(8) 0.060(8) 0.017(7) -0.018(6) -0.013(5) 0.020(6)
C1 0.087(11) 0.024(6) 0.053(10) -0.020(7) -0.029(8) 0.008(7)
C2C 0.095(12) 0.028(7) 0.061(11) -0.014(7) -0.042(9) -0.005(7)
C2A 0.056(9) 0.050(8) 0.086(13) -0.034(8) -0.040(8) 0.030(7)
C2B 0.091(12) 0.042(8) 0.084(13) -0.028(8) -0.050(10) 0.022(8)
C2 0.083(10) 0.027(6) 0.075(12) -0.019(7) -0.050(9) 0.025(7)
C3 0.103(12) 0.030(7) 0.072(12) -0.022(7) -0.053(10) 0.006(7)
C3A 0.065(9) 0.037(7) 0.071(12) -0.020(7) -0.037(8) 0.010(6)
C3B 0.075(10) 0.034(7) 0.067(12) -0.029(7) -0.028(8) 0.013(7)
C4 0.050(9) 0.032(7) 0.109(14) -0.033(8) -0.042(9) 0.016(6)
C5 0.073(10) 0.037(7) 0.064(11) -0.018(7) -0.035(8) 0.012(7)
C6 0.082(10) 0.053(8) 0.065(11) -0.036(8) -0.057(9) 0.024(8)
C7 0.091(11) 0.029(7) 0.044(10) -0.018(7) -0.027(8) 0.016(7)
C8 0.099(12) 0.036(8) 0.072(12) -0.022(8) -0.056(10) 0.027(8)
C9 0.069(10) 0.046(8) 0.043(10) -0.013(7) -0.032(8) -0.001(7)
C10 0.073(10) 0.042(8) 0.052(10) -0.025(7) -0.038(8) 0.018(7)
C11 0.071(11) 0.041(8) 0.078(13) -0.034(8) -0.023(9) -0.004(7)
C12 0.087(11) 0.048(8) 0.064(12) -0.029(8) -0.037(9) 0.010(8)
C13 0.090(12) 0.034(8) 0.084(13) -0.020(8) -0.046(10) 0.005(8)
C14 0.070(10) 0.027(7) 0.105(15) -0.022(8) -0.042(9) 0.001(7)
C15 0.063(10) 0.036(8) 0.113(15) -0.037(9) -0.042(9) 0.035(7)
C16 0.091(12) 0.047(8) 0.080(13) -0.035(8) -0.056(10) 0.014(8)
C17 0.074(10) 0.046(8) 0.088(13) -0.036(9) -0.046(9) 0.019(7)
C18 0.081(11) 0.027(7) 0.075(12) -0.019(7) -0.045(9) 0.004(7)
C19 0.066(10) 0.029(7) 0.075(12) -0.028(7) -0.027(8) 0.010(6)
C20 0.060(9) 0.041(8) 0.077(12) -0.033(8) -0.043(8) 0.029(7)
C21 0.081(11) 0.024(7) 0.069(12) -0.002(7) -0.041(9) 0.010(7)
C25 0.076(10) 0.038(8) 0.062(11) -0.021(8) -0.036(9) 0.025(7)
C26 0.065(10) 0.052(9) 0.090(14) -0.039(9) -0.032(9) 0.017(8)
C27 0.062(10) 0.046(8) 0.098(14) -0.036(9) -0.041(9) 0.006(7)
C28 0.033(8) 0.064(10) 0.127(16) -0.049(10) -0.048(9) 0.014(7)
C29 0.076(11) 0.047(9) 0.085(14) -0.036(9) -0.040(10) 0.011(8)
C30 0.095(12) 0.046(8) 0.069(12) -0.031(8) -0.056(10) 0.016(8)
C31 0.064(9) 0.040(7) 0.074(12) -0.025(7) -0.049(8) 0.020(6)
C32 0.081(11) 0.041(8) 0.086(14) -0.034(8) -0.039(10) 0.009(7)
C33 0.078(11) 0.038(8) 0.096(14) -0.031(9) -0.050(10) 0.019(7)
C34 0.061(9) 0.039(7) 0.087(13) -0.036(8) -0.039(9) 0.033(7)
C35 0.127(16) 0.067(11) 0.109(17) -0.057(12) -0.072(13) 0.036(11)
C36 0.086(11) 0.047(8) 0.043(10) -0.019(7) -0.024(8) 0.019(8)
C37 0.078(11) 0.034(7) 0.057(12) -0.022(8) -0.030(9) 0.021(7)
C38 0.100(13) 0.045(9) 0.079(14) -0.030(9) -0.028(11) -0.003(9)
C39 0.068(11) 0.051(9) 0.111(17) -0.044(10) -0.028(11) 0.013(8)
C40 0.088(13) 0.039(9) 0.15(2) -0.038(11) -0.075(14) 0.015(9)
C41 0.15(2) 0.062(12) 0.12(2) -0.010(12) -0.091(17) -0.020(12)
C42 0.130(17) 0.073(13) 0.067(15) 0.002(10) -0.031(12) -0.031(11)
C43 0.055(9) 0.043(8) 0.127(16) -0.041(9) -0.055(10) 0.033(7)
C44 0.097(13) 0.030(8) 0.116(16) -0.032(9) -0.056(11) 0.013(8)
C45 0.092(14) 0.055(10) 0.21(2) -0.064(13) -0.112(16) 0.031(10)
C46 0.055(10) 0.066(11) 0.23(3) -0.086(14) -0.090(14) 0.044(9)
C47 0.061(11) 0.081(13) 0.114(17) -0.053(12) -0.030(10) 0.008(9)
C48 0.057(9) 0.052(9) 0.131(16) -0.055(10) -0.066(10) 0.036(7)
C49 0.105(14) 0.051(10) 0.122(18) -0.032(11) -0.072(13) 0.016(9)
C50 0.097(13) 0.050(9) 0.084(14) -0.043(10) -0.026(10) 0.006(9)
C51 0.099(14) 0.065(11) 0.089(16) -0.036(11) -0.029(11) -0.001(10)
C52 0.16(2) 0.064(13) 0.16(3) -0.047(16) -0.020(18) -0.025(14)
O200 0.038(4) 0.049(4) 0.077(5) -0.011(4) -0.031(4) 0.011(3)
C200 0.040(4) 0.050(4) 0.078(5) -0.012(4) -0.030(4) 0.010(3)
O53A 0.101(10) 0.051(7) 0.082(10) -0.019(6) -0.055(8) 0.012(6)
C53A 0.125(18) 0.110(18) 0.033(13) -0.003(11) -0.028(12) 0.008(14)
C54A 0.121(17) 0.100(16) 0.024(11) -0.015(10) -0.021(11) -0.013(13)
C55A 0.125(18) 0.14(2) 0.058(15) -0.022(14) -0.042(13) 0.072(16)
C56A 0.090(18) 0.29(4) 0.11(2) -0.01(2) -0.044(16) 0.07(2)
loop_
_atom_type_symbol
_atom_type_description
_atom_type_scat_dispersion_real
_atom_type_scat_dispersion_imag
_atom_type_scat_source
C C 0.0181 0.0091 'International Tables Vol C Tables 4.2.6.8 and 6.1.1.4'
N N 0.0311 0.0180 'International Tables Vol C Tables 4.2.6.8 and 6.1.1.4'
O O 0.0492 0.0322 'International Tables Vol C Tables 4.2.6.8 and 6.1.1.4'
Ru Ru 0.0552 3.2960 'International Tables Vol C Tables 4.2.6.8 and 6.1.1.4'
H H 0.0000 0.0000 'International Tables Vol C Tables 4.2.6.8 and 6.1.1.4'
loop_
_geom_angle_atom_site_label_1
_geom_angle_atom_site_label_2
_geom_angle_atom_site_label_3
_geom_angle
O200 Ru1 N23 94.5(6)
O200 Ru1 N22 89.3(5)
N23 Ru1 N22 92.9(5)
O200 Ru1 N24 90.8(5)
N23 Ru1 N24 92.0(5)
N22 Ru1 N24 175.0(5)
O200 Ru1 O21 106.9(5)
N23 Ru1 O21 158.6(4)
N22 Ru1 O21 89.1(4)
N24 Ru1 O21 86.2(4)
O200 Ru1 O49 177.8(4)
N23 Ru1 O49 84.6(4)
N22 Ru1 O49 88.8(4)
N24 Ru1 O49 91.2(4)
O21 Ru1 O49 74.1(3)
O200 Ru1 C21 75.6(6)
N23 Ru1 C21 170.1(5)
N22 Ru1 C21 87.4(4)
N24 Ru1 C21 87.8(4)
O21 Ru1 C21 31.3(4)
O49 Ru1 C21 105.3(4)
C21 O21 Ru1 93.7(8)
C49 O49 Ru1 132.5(10)
C49 O49 H49 109.5
Ru1 O49 H49 71.7
C9 N22 C6 106.1(10)
C9 N22 Ru1 125.5(9)
C6 N22 Ru1 128.3(8)
C14 N23 C11 109.8(10)
C14 N23 Ru1 124.7(9)
C11 N23 Ru1 121.8(9)
C16 N24 C19 107.2(11)
C16 N24 Ru1 124.8(9)
C19 N24 Ru1 128.0(10)
C2 C1 C21 106.1(12)
C2 C1 C20 128.7(13)
C21 C1 C20 125.0(12)
C2B C2C C3B 130.9(13)
C2B C2C H2CA 114.6
C3B C2C H2CA 114.6
C2 C2A C2B 130.2(14)
C2 C2A H2AA 114.9
C2B C2A H2AA 114.9
C2C C2B C2A 127.4(14)
C2C C2B H2BA 116.3
C2A C2B H2BA 116.3
C2A C2 C1 127.1(13)
C2A C2 C3 126.5(13)
C1 C2 C3 106.1(11)
C3A C3 C4 121.3(13)
C3A C3 C2 127.0(13)
C4 C3 C2 111.6(11)
C3B C3A C3 128.1(13)
C3B C3A H3AA 116.0
C3 C3A H3AA 116.0
C2C C3B C3A 128.8(13)
C2C C3B H3BA 115.6
C3A C3B H3BA 115.6
C5 C4 C21 123.4(13)
C5 C4 C3 133.5(13)
C21 C4 C3 102.8(11)
C4 C5 C6 127.9(14)
C4 C5 C25 114.7(12)
C6 C5 C25 117.4(12)
N22 C6 C5 127.8(12)
N22 C6 C7 108.9(11)
C5 C6 C7 123.0(13)
C8 C7 C6 104.7(13)
C8 C7 H7A 127.7
C6 C7 H7A 127.7
C7 C8 C9 110.8(12)
C7 C8 H8A 124.6
C9 C8 H8A 124.6
N22 C9 C10 121.8(13)
N22 C9 C8 109.3(11)
C10 C9 C8 128.8(12)
C11 C10 C9 130.9(13)
C11 C10 C31 114.3(12)
C9 C10 C31 114.8(12)
C10 C11 N23 125.3(12)
C10 C11 C12 128.6(13)
N23 C11 C12 106.0(12)
C13 C12 C11 109.2(13)
C13 C12 H12A 125.4
C11 C12 H12A 125.4
C12 C13 C14 105.9(12)
C12 C13 H13A 127.0
C14 C13 H13A 127.0
N23 C14 C15 126.6(12)
N23 C14 C13 108.5(12)
C15 C14 C13 124.6(13)
C16 C15 C14 125.3(14)
C16 C15 C37 116.7(12)
C14 C15 C37 117.7(11)
N24 C16 C15 125.2(13)
N24 C16 C17 110.1(12)
C15 C16 C17 124.3(14)
C18 C17 C16 104.7(12)
C18 C17 H17A 127.6
C16 C17 H17A 127.6
C17 C18 C19 110.6(12)
C17 C18 H18A 124.7
C19 C18 H18A 124.7
C20 C19 N24 128.6(12)
C20 C19 C18 123.2(11)
N24 C19 C18 107.2(11)
C19 C20 C1 126.7(11)
C19 C20 C43 117.5(12)
C1 C20 C43 115.8(12)
O21 C21 C4 124.0(14)
O21 C21 C1 122.2(12)
C4 C21 C1 113.1(13)
O21 C21 Ru1 55.0(6)
C4 C21 Ru1 113.2(8)
C1 C21 Ru1 110.8(9)
C26 C25 C30 116.1(14)
C26 C25 C5 121.2(13)
C30 C25 C5 122.7(14)
C27 C26 C25 123.5(15)
C27 C26 H26A 118.2
C25 C26 H26A 118.2
C26 C27 C28 119.5(16)
C26 C27 H27A 120.2
C28 C27 H27A 120.2
C29 C28 C27 119.5(13)
C29 C28 H28A 120.3
C27 C28 H28A 120.3
C30 C29 C28 120.8(14)
C30 C29 H29A 119.6
C28 C29 H29A 119.6
C29 C30 C25 120.4(15)
C29 C30 H30A 119.8
C25 C30 H30A 119.8
C32 C31 C36 116.9(12)
C32 C31 C10 122.8(12)
C36 C31 C10 120.3(11)
C31 C32 C33 123.0(14)
C31 C32 H32A 118.5
C33 C32 H32A 118.5
C34 C33 C32 118.7(14)
C34 C33 H33A 120.6
C32 C33 H33A 120.6
C35 C34 C33 119.7(13)
C35 C34 H34A 120.1
C33 C34 H34A 120.1
C34 C35 C36 121.5(15)
C34 C35 H35A 119.3
C36 C35 H35A 119.3
C35 C36 C31 120.2(14)
C35 C36 H36A 119.9
C31 C36 H36A 119.9
C38 C37 C42 121.1(16)
C38 C37 C15 118.9(14)
C42 C37 C15 119.7(15)
C37 C38 C39 115.0(17)
C37 C38 H38A 122.5
C39 C38 H38A 122.5
C40 C39 C38 124.5(18)
C40 C39 H39A 117.8
C38 C39 H39A 117.8
C41 C40 C39 119.1(17)
C41 C40 H40A 120.4
C39 C40 H40A 120.4
C40 C41 C42 121.1(19)
C40 C41 H41A 119.5
C42 C41 H41A 119.5
C41 C42 C37 119.0(18)
C41 C42 H42A 120.5
C37 C42 H42A 120.5
C48 C43 C44 118.8(13)
C48 C43 C20 120.9(14)
C44 C43 C20 120.2(15)
C45 C44 C43 117.1(17)
C45 C44 H44A 121.5
C43 C44 H44A 121.5
C46 C45 C44 123.8(18)
C46 C45 H45A 118.1
C44 C45 H45A 118.1
C45 C46 C47 119.5(15)
C45 C46 H46A 120.2
C47 C46 H46A 120.2
C48 C47 C46 118.1(16)
C48 C47 H47A 120.9
C46 C47 H47A 120.9
C47 C48 C43 122.6(16)
C47 C48 H48A 118.7
C43 C48 H48A 118.7
C50 C49 O49 113.3(13)
C50 C49 H49A 108.9
O49 C49 H49A 108.9
C50 C49 H49B 108.9
O49 C49 H49B 108.9
H49A C49 H49B 107.7
C49 C50 C51 112.9(14)
C49 C50 H50A 109.0
C51 C50 H50A 109.0
C49 C50 H50B 109.0
C51 C50 H50B 109.0
H50A C50 H50B 107.8
C52 C51 C50 115.6(16)
C52 C51 H51A 108.4
C50 C51 H51A 108.4
C52 C51 H51B 108.4
C50 C51 H51B 108.4
H51A C51 H51B 107.5
C51 C52 H52A 109.5
C51 C52 H52B 109.5
H52A C52 H52B 109.5
C51 C52 H52C 109.5
H52A C52 H52C 109.5
H52B C52 H52C 109.5
C200 O200 Ru1 175.7(12)
C53A O53A H53C 109.5
C54A C53A O53A 97.9(16)
C54A C53A H53A 112.2
O53A C53A H53A 112.2
C54A C53A H53B 112.2
O53A C53A H53B 112.2
H53A C53A H53B 109.8
C53A C54A C55A 105.1(17)
C53A C54A H54A 110.7
C55A C54A H54A 110.7
C53A C54A H54B 110.7
C55A C54A H54B 110.7
H54A C54A H54B 108.8
C54A C55A C56A 105.3(19)
C54A C55A H55A 110.7
C56A C55A H55A 110.7
C54A C55A H55B 110.7
C56A C55A H55B 110.7
H55A C55A H55B 108.8
C55A C56A H56A 109.5
C55A C56A H56B 109.5
H56A C56A H56B 109.5
C55A C56A H56C 109.5
H56A C56A H56C 109.5
H56B C56A H56C 109.5
loop_
_geom_bond_atom_site_label_1
_geom_bond_atom_site_label_2
_geom_bond_distance
Ru1 O200 1.685(16)
Ru1 N23 2.024(10)
Ru1 N22 2.025(10)
Ru1 N24 2.028(10)
Ru1 O21 2.072(8)
Ru1 O49 2.206(10)
Ru1 C21 2.523(13)
O21 C21 1.314(16)
O49 C49 1.494(16)
O49 H49 0.8200
N22 C9 1.371(16)
N22 C6 1.416(17)
N23 C14 1.345(17)
N23 C11 1.405(17)
N24 C16 1.374(17)
N24 C19 1.413(16)
C1 C2 1.434(17)
C1 C21 1.438(19)
C1 C20 1.445(18)
C2C C2B 1.365(18)
C2C C3B 1.367(18)
C2C H2CA 0.9300
C2A C2 1.376(19)
C2A C2B 1.423(18)
C2A H2AA 0.9300
C2B H2BA 0.9300
C2 C3 1.460(18)
C3 C3A 1.437(17)
C3 C4 1.440(18)
C3A C3B 1.406(17)
C3A H3AA 0.9300
C3B H3BA 0.9300
C4 C5 1.406(17)
C4 C21 1.425(18)
C5 C6 1.416(17)
C5 C25 1.468(19)
C6 C7 1.461(17)
C7 C8 1.356(18)
C7 H7A 0.9300
C8 C9 1.405(18)
C8 H8A 0.9300
C9 C10 1.386(18)
C10 C11 1.359(18)
C10 C31 1.553(16)
C11 C12 1.450(18)
C12 C13 1.368(18)
C12 H12A 0.9300
C13 C14 1.478(17)
C13 H13A 0.9300
C14 C15 1.423(18)
C15 C16 1.406(19)
C15 C37 1.522(19)
C16 C17 1.463(18)
C17 C18 1.367(17)
C17 H17A 0.9300
C18 C19 1.426(17)
C18 H18A 0.9300
C19 C20 1.393(17)
C20 C43 1.493(16)
C25 C26 1.42(2)
C25 C30 1.448(17)
C26 C27 1.342(17)
C26 H26A 0.9300
C27 C28 1.418(19)
C27 H27A 0.9300
C28 C29 1.40(2)
C28 H28A 0.9300
C29 C30 1.373(18)
C29 H29A 0.9300
C30 H30A 0.9300
C31 C32 1.354(18)
C31 C36 1.391(18)
C32 C33 1.401(18)
C32 H32A 0.9300
C33 C34 1.360(19)
C33 H33A 0.9300
C34 C35 1.35(2)
C34 H34A 0.9300
C35 C36 1.389(19)
C35 H35A 0.9300
C36 H36A 0.9300
C37 C38 1.38(2)
C37 C42 1.41(2)
C38 C39 1.40(2)
C38 H38A 0.9300
C39 C40 1.35(2)
C39 H39A 0.9300
C40 C41 1.32(2)
C40 H40A 0.9300
C41 C42 1.38(2)
C41 H41A 0.9300
C42 H42A 0.9300
C43 C48 1.38(2)
C43 C44 1.41(2)
C44 C45 1.41(2)
C44 H44A 0.9300
C45 C46 1.32(2)
C45 H45A 0.9300
C46 C47 1.43(2)
C46 H46A 0.9300
C47 C48 1.368(19)
C47 H47A 0.9300
C48 H48A 0.9300
C49 C50 1.46(2)
C49 H49A 0.9700
C49 H49B 0.9700
C50 C51 1.479(19)
C50 H50A 0.9700
C50 H50B 0.9700
C51 C52 1.44(2)
C51 H51A 0.9700
C51 H51B 0.9700
C52 H52A 0.9600
C52 H52B 0.9600
C52 H52C 0.9600
O200 C200 1.243(16)
O53A C53A 1.54(2)
O53A H53C 0.8200
C53A C54A 1.52(2)
C53A H53A 0.9700
C53A H53B 0.9700
C54A C55A 1.60(2)
C54A H54A 0.9700
C54A H54B 0.9700
C55A C56A 1.63(3)
C55A H55A 0.9700
C55A H55B 0.9700
C56A H56A 0.9600
C56A H56B 0.9600
C56A H56C 0.9600
loop_
_geom_torsion_atom_site_label_1
_geom_torsion_atom_site_label_2
_geom_torsion_atom_site_label_3
_geom_torsion_atom_site_label_4
_geom_torsion
C3B C2C C2B C2A 3(3)
C2 C2A C2B C2C 8(3)
C2B C2A C2 C1 173.3(16)
C2B C2A C2 C3 -14(3)
C21 C1 C2 C2A 176.3(14)
C20 C1 C2 C2A 1(3)
C21 C1 C2 C3 2.3(16)
C20 C1 C2 C3 -173.3(14)
C2A C2 C3 C3A 6(3)
C1 C2 C3 C3A -179.6(15)
C2A C2 C3 C4 -173.0(15)
C1 C2 C3 C4 1.0(18)
C4 C3 C3A C3B -177.5(15)
C2 C3 C3A C3B 3(3)
C2B C2C C3B C3A -4(3)
C3 C3A C3B C2C -3(3)
C3A C3 C4 C5 -10(3)
C2 C3 C4 C5 169.3(16)
C3A C3 C4 C21 176.7(14)
C2 C3 C4 C21 -3.9(17)
C21 C4 C5 C6 31(3)
C3 C4 C5 C6 -141.0(18)
C21 C4 C5 C25 -149.4(15)
C3 C4 C5 C25 39(3)
C9 N22 C6 C5 168.3(15)
Ru1 N22 C6 C5 -16(2)
C9 N22 C6 C7 -5.1(15)
Ru1 N22 C6 C7 170.6(8)
C4 C5 C6 N22 4(3)
C25 C5 C6 N22 -175.4(13)
C4 C5 C6 C7 176.7(15)
C25 C5 C6 C7 -3(2)
N22 C6 C7 C8 4.3(16)
C5 C6 C7 C8 -169.4(15)
C6 C7 C8 C9 -1.9(16)
C6 N22 C9 C10 -172.5(13)
Ru1 N22 C9 C10 11.7(18)
C6 N22 C9 C8 3.8(15)
Ru1 N22 C9 C8 -172.0(9)
C7 C8 C9 N22 -1.2(17)
C7 C8 C9 C10 174.8(14)
N22 C9 C10 C11 -5(2)
C8 C9 C10 C11 179.7(15)
N22 C9 C10 C31 176.4(12)
C8 C9 C10 C31 1(2)
C9 C10 C11 N23 4(3)
C31 C10 C11 N23 -177.2(14)
C9 C10 C11 C12 -172.1(15)
C31 C10 C11 C12 7(2)
C14 N23 C11 C10 -169.2(15)
Ru1 N23 C11 C10 -10(2)
C14 N23 C11 C12 7.6(18)
Ru1 N23 C11 C12 167.0(10)
C10 C11 C12 C13 171.7(15)
N23 C11 C12 C13 -4.9(18)
C11 C12 C13 C14 0.7(18)
C11 N23 C14 C15 165.8(16)
Ru1 N23 C14 C15 7(2)
C11 N23 C14 C13 -7.2(19)
Ru1 N23 C14 C13 -166.0(10)
C12 C13 C14 N23 4.0(19)
C12 C13 C14 C15 -169.3(16)
N23 C14 C15 C16 0(3)
C13 C14 C15 C16 172.1(17)
N23 C14 C15 C37 -173.5(15)
C13 C14 C15 C37 -2(3)
C19 N24 C16 C15 167.7(16)
Ru1 N24 C16 C15 -10(2)
C19 N24 C16 C17 -5.1(17)
Ru1 N24 C16 C17 176.8(9)
C14 C15 C16 N24 2(3)
C37 C15 C16 N24 175.4(14)
C14 C15 C16 C17 173.6(16)
C37 C15 C16 C17 -13(3)
N24 C16 C17 C18 3.7(18)
C15 C16 C17 C18 -169.2(16)
C16 C17 C18 C19 -0.7(19)
C16 N24 C19 C20 -163.5(17)
Ru1 N24 C19 C20 14(2)
C16 N24 C19 C18 4.5(16)
Ru1 N24 C19 C18 -177.5(9)
C17 C18 C19 C20 166.6(16)
C17 C18 C19 N24 -2.3(18)
N24 C19 C20 C1 -12(3)
C18 C19 C20 C1 -178.2(14)
N24 C19 C20 C43 166.8(15)
C18 C19 C20 C43 0(2)
C2 C1 C20 C19 150.2(17)
C21 C1 C20 C19 -25(2)
C2 C1 C20 C43 -28(2)
C21 C1 C20 C43 156.8(15)
Ru1 O21 C21 C4 -96.2(13)
Ru1 O21 C21 C1 94.1(12)
C5 C4 C21 O21 21(2)
C3 C4 C21 O21 -165.0(13)
C5 C4 C21 C1 -168.6(14)
C3 C4 C21 C1 5.5(17)
C5 C4 C21 Ru1 -41(2)
C3 C4 C21 Ru1 132.6(10)
C2 C1 C21 O21 165.6(12)
C20 C1 C21 O21 -19(2)
C2 C1 C21 C4 -5.1(17)
C20 C1 C21 C4 170.7(14)
C2 C1 C21 Ru1 -133.4(10)
C20 C1 C21 Ru1 42.4(17)
C4 C5 C25 C26 62.0(19)
C6 C5 C25 C26 -118.3(15)
C4 C5 C25 C30 -117.6(16)
C6 C5 C25 C30 62(2)
C30 C25 C26 C27 -2(2)
C5 C25 C26 C27 177.9(13)
C25 C26 C27 C28 2(2)
C26 C27 C28 C29 1(2)
C27 C28 C29 C30 -4(2)
C28 C29 C30 C25 4(2)
C26 C25 C30 C29 -1(2)
C5 C25 C30 C29 179.1(13)
C11 C10 C31 C32 107.1(17)
C9 C10 C31 C32 -74(2)
C11 C10 C31 C36 -74.7(19)
C9 C10 C31 C36 104.3(16)
C36 C31 C32 C33 2(2)
C10 C31 C32 C33 -179.8(14)
C31 C32 C33 C34 -1(2)
C32 C33 C34 C35 1(2)
C33 C34 C35 C36 -2(3)
C34 C35 C36 C31 3(3)
C32 C31 C36 C35 -3(2)
C10 C31 C36 C35 178.8(16)
C16 C15 C37 C38 104.8(18)
C14 C15 C37 C38 -81.1(19)
C16 C15 C37 C42 -69(2)
C14 C15 C37 C42 104.7(19)
C42 C37 C38 C39 -3(2)
C15 C37 C38 C39 -176.7(12)
C37 C38 C39 C40 0(2)
C38 C39 C40 C41 4(2)
C39 C40 C41 C42 -6(3)
C40 C41 C42 C37 4(3)
C38 C37 C42 C41 0(3)
C15 C37 C42 C41 174.5(16)
C19 C20 C43 C48 -59(2)
C1 C20 C43 C48 119.5(16)
C19 C20 C43 C44 123.5(17)
C1 C20 C43 C44 -58(2)
C48 C43 C44 C45 -5(2)
C20 C43 C44 C45 172.4(14)
C43 C44 C45 C46 4(3)
C44 C45 C46 C47 -2(3)
C45 C46 C47 C48 0(3)
C46 C47 C48 C43 -1(2)
C44 C43 C48 C47 4(2)
C20 C43 C48 C47 -173.6(14)
Ru1 O49 C49 C50 149.4(12)
O49 C49 C50 C51 -179.2(14)
C49 C50 C51 C52 178.3(18)
O53A C53A C54A C55A 177.8(13)
C53A C54A C55A C56A -172.5(15)
