#------------------------------------------------------------------------------
#$Date: 2015-08-05 20:36:51 +0300 (Wed, 05 Aug 2015) $
#$Revision: 152795 $
#$URL: svn://www.crystallography.net/cod/cif/4/34/30/4343002.cif $
#------------------------------------------------------------------------------
#
# This file is available in the Crystallography Open Database (COD),
# http://www.crystallography.net/
#
# All data on this site have been placed in the public domain by the
# contributors.
#
data_4343002
loop_
_publ_author_name
'Bia\/lek, Micha\/l J'
'Bia\/lo\'nska, Agata'
'Latos-Gra\.zy\'nski, Lechos\/law'
_publ_section_title
;
 Oxidation and Oxygenation of Carbonyl Ruthenium(II) Azuliporphyrin.
;
_journal_issue                   13
_journal_name_full               'Inorganic chemistry'
_journal_page_first              6184
_journal_page_last               6194
_journal_paper_doi               10.1021/acs.inorgchem.5b00324
_journal_volume                  54
_journal_year                    2015
_chemical_absolute_configuration ad
_chemical_formula_moiety         'C102 H62 N6 O4 Ru2, C H2 Cl2'
_chemical_formula_sum            'C103 H64 Cl2 N6 O4 Ru2'
_chemical_formula_weight         1722.64
_chemical_name_systematic
;
 ?
;
_space_group_crystal_system      tetragonal
_space_group_IT_number           96
_space_group_name_Hall           'P 4nw 2abw'
_space_group_name_H-M_alt        'P 43 21 2'
_symmetry_space_group_name_Hall  'P 4nw 2abw'
_symmetry_space_group_name_H-M   'P 43 21 2'
_atom_sites_solution_hydrogens   geom
_audit_creation_method           SHELXL-2014
_cell_angle_alpha                90
_cell_angle_beta                 90
_cell_angle_gamma                90
_cell_formula_units_Z            4
_cell_length_a                   13.427(3)
_cell_length_b                   13.427(3)
_cell_length_c                   44.203(7)
_cell_measurement_reflns_used    416
_cell_measurement_temperature    100.02(10)
_cell_measurement_theta_max      17.6050
_cell_measurement_theta_min      3.1460
_cell_volume                     7969(3)
_computing_cell_refinement
;
CrysAlisPro, Agilent Technologies,
Version 1.171.36.28 (release 01-02-2013 CrysAlis171 .NET)
(compiled Feb  1 2013,16:14:44)
;
_computing_data_collection
;
CrysAlisPro, Agilent Technologies,
Version 1.171.36.28 (release 01-02-2013 CrysAlis171 .NET)
(compiled Feb  1 2013,16:14:44)
;
_computing_data_reduction
;
CrysAlisPro, Agilent Technologies,
Version 1.171.36.28 (release 01-02-2013 CrysAlis171 .NET)
(compiled Feb  1 2013,16:14:44)
;
_computing_structure_refinement  'SHELXL-2014 (Sheldrick, 2014)'
_computing_structure_solution    'SHELXS-2014 (Sheldrick, 2014)'
_diffrn_ambient_temperature      100.02(10)
_diffrn_detector_area_resol_mean 10.3456
_diffrn_measured_fraction_theta_full 0.966
_diffrn_measured_fraction_theta_max 0.991
_diffrn_measurement_device_type  'Xcalibur, Ruby'
_diffrn_measurement_method       '\w scans'
_diffrn_radiation_monochromator  graphite
_diffrn_radiation_source         'Enhance (Mo) X-ray Source'
_diffrn_radiation_type           MoK\a
_diffrn_radiation_wavelength     0.71073
_diffrn_reflns_av_R_equivalents  0.2453
_diffrn_reflns_av_unetI/netI     0.5481
_diffrn_reflns_laue_measured_fraction_full 0.966
_diffrn_reflns_laue_measured_fraction_max 0.991
_diffrn_reflns_limit_h_max       5
_diffrn_reflns_limit_h_min       -15
_diffrn_reflns_limit_k_max       14
_diffrn_reflns_limit_k_min       -11
_diffrn_reflns_limit_l_max       52
_diffrn_reflns_limit_l_min       -31
_diffrn_reflns_number            14677
_diffrn_reflns_point_group_measured_fraction_full 0.963
_diffrn_reflns_point_group_measured_fraction_max 0.988
_diffrn_reflns_theta_full        25.242
_diffrn_reflns_theta_max         24.996
_diffrn_reflns_theta_min         2.759
_exptl_absorpt_coefficient_mu    0.507
_exptl_absorpt_correction_type   none
_exptl_crystal_colour            green
_exptl_crystal_density_diffrn    1.436
_exptl_crystal_description       plate
_exptl_crystal_F_000             3512
_exptl_crystal_size_max          0.18
_exptl_crystal_size_mid          0.10
_exptl_crystal_size_min          0.03
_refine_diff_density_max         0.956
_refine_diff_density_min         -0.455
_refine_diff_density_rms         0.102
_refine_ls_abs_structure_details
;
 Flack x determined using 395 quotients [(I+)-(I-)]/[(I+)+(I-)]
 (Parsons, Flack and Wagner, Acta Cryst. B69 (2013) 249-259).
;
_refine_ls_abs_structure_Flack   -0.08(10)
_refine_ls_extinction_method     none
_refine_ls_goodness_of_fit_ref   0.967
_refine_ls_hydrogen_treatment    constr
_refine_ls_matrix_type           full
_refine_ls_number_parameters     513
_refine_ls_number_reflns         6935
_refine_ls_number_restraints     379
_refine_ls_restrained_S_all      0.947
_refine_ls_R_factor_all          0.3286
_refine_ls_R_factor_gt           0.1055
_refine_ls_shift/su_max          0.000
_refine_ls_shift/su_mean         0.000
_refine_ls_structure_factor_coef Fsqd
_refine_ls_weighting_details
'w=1/[\s^2^(Fo^2^)+(0.0353P)^2^] where P=(Fo^2^+2Fc^2^)/3'
_refine_ls_weighting_scheme      calc
_refine_ls_wR_factor_gt          0.1698
_refine_ls_wR_factor_ref         0.2643
_reflns_Friedel_coverage         0.708
_reflns_friedel_fraction_full    0.958
_reflns_friedel_fraction_max     0.984
_reflns_number_gt                1994
_reflns_number_total             6935
_reflns_threshold_expression     'I > 2\s(I)'
_cod_data_source_file            ic5b00324_si_002.cif
_cod_data_source_block           4
_cod_depositor_comments
'Adding full bibliography for 4343001--4343002.cif.'
_cod_original_cell_volume        7969(4)
_cod_database_code               4343002
_shelx_space_group_comment
;
The symmetry employed for this shelxl refinement is uniquely defined
by the following loop, which should always be used as a source of
symmetry information in preference to the above space-group names.
They are only intended as comments.
;
_shelxl_version_number           2014-3
_shelx_res_file
;
TITL MBIAN in P4(3)2(1)2
CELL 0.71073  13.427  13.427  44.203  90.00  90.00  90.00
ZERR    4.00   0.003   0.003   0.007   0.00   0.00   0.00
LATT -1
SYMM -X, -Y, 0.5+Z
SYMM 0.5-Y, 0.5+X, 0.75+Z
SYMM 0.5+Y, 0.5-X, 0.25+Z
SYMM 0.5-X, 0.5+Y, 0.75-Z
SYMM 0.5+X, 0.5-Y, 0.25-Z
SYMM Y, X, -Z
SYMM -Y, -X, 0.5-Z
SFAC C H N O RU CL
UNIT 412 256 24 16 8 8
omit -4 50
L.S. 5 0   59
BOND
FMAP 2
PLAN 20
SIMU 0.01 0.01 1.6

ACTA
ABIN
WGHT    0.035300
FVAR       0.12223   0.27974   0.34676   0.22270   0.23694   0.31627   0.44720
FVAR      -0.00004   0.15069   1.09779
RU1   5    0.907537    1.089534   -0.007152    11.00000    0.04708    0.05155 =
         0.02627   -0.00407    0.00322   -0.00653
O21   4    1.019722    1.004500   -0.028061    11.00000    0.04998    0.04814 =
         0.03577   -0.00491    0.00709   -0.00107
N22   3    0.816057    0.969593   -0.016909    11.00000    0.04600    0.05554 =
         0.02824   -0.00949   -0.00274   -0.00588
N23   3    0.824338    1.131299    0.026317    11.00000    0.05669    0.07201 =
         0.02294   -0.01242    0.00071   -0.00355
N24   3    1.004402    1.203310   -0.002989    11.00000    0.04904    0.04776 =
         0.03425   -0.00322   -0.00468   -0.00514
C1   1    1.048840    1.126375   -0.066555    11.00000    0.05122    0.04823 =
         0.02481    0.00299    0.01762   -0.00397
C2A   1    1.037165    1.202336   -0.118742    11.00000    0.06006    0.05741 =
         0.02720   -0.00525    0.01388    0.00743
AFIX  43
H2AA  2    1.068051    1.258607   -0.110838    11.00000   -1.20000
AFIX   0
C2    1    1.018016    1.133698   -0.097732    11.00000    0.05572    0.05465 =
         0.02992   -0.00437    0.01937    0.00227
C2C   1    0.975301    1.149231   -0.167630    11.00000    0.06868    0.06922 =
         0.02771    0.00035    0.00770   -0.00197
AFIX  43
H2CA  2    0.976004    1.165993   -0.188043    11.00000   -1.20000
AFIX   0
C2B   1    1.021812    1.208860   -0.149155    11.00000    0.06603    0.06802 =
         0.02581   -0.00686    0.00767    0.00060
AFIX  43
H2BA  2    1.049013    1.265144   -0.158215    11.00000   -1.20000
AFIX   0
C3A   1    0.908917    1.022368   -0.132833    11.00000    0.07229    0.07314 =
         0.03189    0.00484    0.00191   -0.00596
AFIX  43
H3AA  2    0.862333    0.971110   -0.132794    11.00000   -1.20000
AFIX   0
C3B   1    0.925820    1.064707   -0.159777    11.00000    0.06921    0.07396 =
         0.02971    0.00359    0.00739   -0.00709
AFIX  43
H3BA  2    0.898867    1.030073   -0.176054    11.00000   -1.20000
AFIX   0
C3    1    0.952240    1.044804   -0.104243    11.00000    0.05790    0.05994 =
         0.02875    0.00257    0.01026   -0.00273
C4    1    0.941814    0.993010   -0.075505    11.00000    0.05189    0.05359 =
         0.02544    0.00560    0.00856   -0.00623
C5    1    0.870507    0.919404   -0.068426    11.00000    0.05082    0.05609 =
         0.02080   -0.00153    0.00227   -0.00953
C6    1    0.820463    0.905833   -0.041634    11.00000    0.04699    0.05635 =
         0.02135   -0.00528   -0.00093   -0.01068
C7    1    0.744720    0.834644   -0.037544    11.00000    0.05129    0.06016 =
         0.02491   -0.00979   -0.00522   -0.01061
AFIX  43
H7A   2    0.734888    0.779344   -0.049855    11.00000   -1.20000
AFIX   0
C8    1    0.686620    0.858511   -0.012524    11.00000    0.05347    0.06331 =
         0.02710   -0.00372   -0.00515   -0.00777
AFIX  43
H8A   2    0.630348    0.825229   -0.005576    11.00000   -1.20000
AFIX   0
C9    1    0.732500    0.946148    0.000351    11.00000    0.04858    0.05848 =
         0.02289   -0.01195   -0.00076   -0.00460
C10   1    0.695620    1.004003    0.025299    11.00000    0.04855    0.06872 =
         0.02792   -0.01273    0.00067    0.00372
C11   1    0.737593    1.089190    0.037049    11.00000    0.04869    0.07623 =
         0.02396   -0.01198    0.00069   -0.00021
C12   1    0.702572    1.146880    0.063728    11.00000    0.04282    0.07880 =
         0.02637   -0.01374   -0.00131   -0.00551
AFIX  43
H12A  2    0.646172    1.133607    0.075256    11.00000   -1.20000
AFIX   0
C13   1    0.765760    1.219783    0.067995    11.00000    0.04691    0.07055 =
         0.02613   -0.01767   -0.00373   -0.00977
AFIX  43
H13A  2    0.761106    1.268406    0.082912    11.00000   -1.20000
AFIX   0
C14   1    0.846672    1.211820    0.044878    11.00000    0.05073    0.06577 =
         0.02823   -0.01412   -0.00064   -0.00047
C15   1    0.925638    1.275998    0.044022    11.00000    0.05484    0.05774 =
         0.03546   -0.01958    0.00107   -0.00219
C16   1    1.003771    1.267460    0.022157    11.00000    0.04958    0.05332 =
         0.03783   -0.01374    0.00177   -0.00615
C17   1    1.093201    1.323775    0.020168    11.00000    0.06238    0.06156 =
         0.03956   -0.01241    0.00738   -0.00878
AFIX  43
H17A  2    1.113323    1.370223    0.034529    11.00000   -1.20000
AFIX   0
C18   1    1.144658    1.302077   -0.004695    11.00000    0.06134    0.05569 =
         0.02635   -0.00218    0.01240   -0.01219
AFIX  43
H18A  2    1.205769    1.329317   -0.010137    11.00000   -1.20000
AFIX   0
C19   1    1.088702    1.228117   -0.021984    11.00000    0.05260    0.05117 =
         0.02790    0.00579    0.00155   -0.01133
C20   1    1.106118    1.196701   -0.050722    11.00000    0.05073    0.05497 =
         0.02791    0.00680    0.00833   -0.01517
C21   1    1.005938    1.044255   -0.053727    11.00000    0.05115    0.04884 =
         0.03130    0.00149    0.01305   -0.00284
C25   1    0.849486    0.841030   -0.091945    11.00000    0.06262    0.05293 =
         0.02811   -0.00586    0.00761    0.00034
C26   1    0.931053    0.794093   -0.105881    11.00000    0.07067    0.05584 =
         0.04028   -0.01390    0.00113    0.00240
AFIX  43
H26A  2    0.995452    0.809054   -0.099608    11.00000   -1.20000
AFIX   0
C27   1    0.916315    0.726644   -0.128578    11.00000    0.07329    0.05235 =
         0.04198   -0.00803    0.00199    0.00807
AFIX  43
H27A  2    0.970626    0.694469   -0.137237    11.00000   -1.20000
AFIX   0
C28   1    0.821583    0.705973   -0.138724    11.00000    0.06981    0.04869 =
         0.03907    0.00449    0.00123    0.00963
AFIX  43
H28A  2    0.813425    0.659974   -0.154257    11.00000   -1.20000
AFIX   0
C29   1    0.739332    0.750670   -0.126765    11.00000    0.06840    0.04543 =
         0.03610    0.00027    0.00858    0.00988
AFIX  43
H29A  2    0.675478    0.733980   -0.133148    11.00000   -1.20000
AFIX   0
C30   1    0.755394    0.822694   -0.104482    11.00000    0.06806    0.05142 =
         0.03273   -0.00197    0.00862    0.00831
AFIX  43
H30A  2    0.701465    0.859974   -0.097694    11.00000   -1.20000
AFIX   0
C31   1    0.602820    0.961846    0.039673    11.00000    0.05033    0.08195 =
         0.03354   -0.00636   -0.00703    0.00042
C32   1    0.515082    0.989769    0.032199    11.00000    0.05613    0.09410 =
         0.04060    0.00931   -0.00973   -0.00068
AFIX  43
H32A  2    0.510518    1.039094    0.017494    11.00000   -1.20000
AFIX   0
C33   1    0.424643    0.953272    0.044017    11.00000    0.05462    0.09933 =
         0.05274    0.00910   -0.00962    0.00304
AFIX  43
H33A  2    0.363297    0.978675    0.038028    11.00000   -1.20000
AFIX   0
C34   1    0.432376    0.879684    0.064425    11.00000    0.05840    0.09889 =
         0.04945    0.00213   -0.00888   -0.00027
AFIX  43
H34A  2    0.375034    0.852860    0.072961    11.00000   -1.20000
AFIX   0
C35   1    0.521819    0.844332    0.072666    11.00000    0.06643    0.09378 =
         0.04867   -0.00291   -0.00636    0.00038
AFIX  43
H35A  2    0.526530    0.795196    0.087425    11.00000   -1.20000
AFIX   0
C36   1    0.607211    0.881404    0.059073    11.00000    0.05561    0.08885 =
         0.04384   -0.00184   -0.00068   -0.00250
AFIX  43
H36A  2    0.668334    0.851628    0.063088    11.00000   -1.20000
AFIX   0
C37   1    0.942846    1.358195    0.065385    11.00000    0.05287    0.06108 =
         0.03990   -0.02483    0.01027   -0.00025
C38   1    0.952541    1.343835    0.096655    11.00000    0.05517    0.06721 =
         0.04057   -0.02819    0.00331    0.00050
AFIX  43
H38A  2    0.948127    1.279442    0.104288    11.00000   -1.20000
AFIX   0
C39   1    0.967952    1.419335    0.116050    11.00000    0.05253    0.06883 =
         0.03457   -0.03034    0.00597   -0.00022
AFIX  43
H39A  2    0.974652    1.405784    0.136582    11.00000   -1.20000
AFIX   0
C40   1    0.974208    1.519279    0.105838    11.00000    0.05208    0.06984 =
         0.04458   -0.02360    0.00845   -0.00036
AFIX  43
H40A  2    0.983143    1.571805    0.119282    11.00000   -1.20000
AFIX   0
C41   1    0.966637    1.534817    0.075795    11.00000    0.05479    0.07053 =
         0.06013   -0.01997    0.01380   -0.00237
AFIX  43
H41A  2    0.973280    1.599029    0.068171    11.00000   -1.20000
AFIX   0
C42   1    0.948474    1.453649    0.055429    11.00000    0.05035    0.06241 =
         0.05197   -0.02423    0.01803    0.00493
AFIX  43
H42A  2    0.940362    1.466744    0.034916    11.00000   -1.20000
AFIX   0
C43   1    1.188018    1.248663   -0.067120    11.00000    0.05712    0.06374 =
         0.04206   -0.00034    0.00842   -0.01650
C44   1    1.199657    1.355093   -0.067400    11.00000    0.06092    0.07022 =
         0.05029   -0.00577    0.00355   -0.01416
AFIX  43
H44A  2    1.155065    1.394853   -0.056755    11.00000   -1.20000
AFIX   0
C45   1    1.279103    1.400174   -0.083886    11.00000    0.06044    0.07034 =
         0.04760   -0.00262    0.01222   -0.01313
AFIX  43
H45A  2    1.289045    1.468713   -0.084186    11.00000   -1.20000
AFIX   0
C46   1    1.338864    1.336475   -0.099023    11.00000    0.05510    0.07070 =
         0.05084   -0.00369    0.01113   -0.01718
AFIX  43
H46A  2    1.392274    1.363953   -0.109501    11.00000   -1.20000
AFIX   0
C47   1    1.329104    1.244585   -0.100249    11.00000    0.05521    0.07369 =
         0.05033   -0.00762    0.00777   -0.01815
AFIX  43
H47A  2    1.372686    1.208293   -0.112327    11.00000   -1.20000
AFIX   0
C48   1    1.254364    1.192762   -0.084020    11.00000    0.05622    0.06236 =
         0.04401   -0.00754    0.01129   -0.01846
AFIX  43
H48A  2    1.250031    1.123670   -0.084696    11.00000   -1.20000
AFIX   0
O200  1    0.841237    1.156014   -0.035356    11.00000    0.05216
C200  4    0.795885    1.206609   -0.052310    11.00000    0.06943

HKLF 4

REM  MBIAN in P4(3)2(1)2
REM R1 =  0.1055 for    1994 Fo > 4sig(Fo)  and  0.3286 for all    6935 data
REM    513 parameters refined using    379 restraints

END

WGHT      0.0352      0.0000

REM Highest difference peak  0.956,  deepest hole -0.455,  1-sigma level  0.102
Q1    1   0.9049  1.0937  0.0193  11.00000  0.05    0.96
Q2    1   1.0264  1.1567 -0.2544  11.00000  0.05    0.53
Q3    1   0.9072  0.9072  0.0000  10.50000  0.05    0.51
Q4    1   0.9056  1.0964 -0.0310  11.00000  0.05    0.44
Q5    1   1.2850  1.5447  0.0138  11.00000  0.05    0.43
Q6    1   1.3135  1.5161  0.0057  11.00000  0.05    0.43
Q7    1   1.3164  1.5800 -0.0033  11.00000  0.05    0.42
Q8    1   1.0899  1.1854 -0.2404  11.00000  0.05    0.42
Q9    1   1.0787  1.0102 -0.0049  11.00000  0.05    0.42
Q10   1   0.9985  0.9985  0.0000  10.50000  0.05    0.42
Q11   1   0.6521  1.3233 -0.0069  11.00000  0.05    0.40
Q12   1   0.9089  1.0035  0.0087  11.00000  0.05    0.40
Q13   1   1.1091  1.0878 -0.2400  11.00000  0.05    0.39
Q14   1   0.6270  0.8367  0.0364  11.00000  0.05    0.35
Q15   1   0.9142  0.9166 -0.1137  11.00000  0.05    0.35
Q16   1   0.8810  1.1814  0.0099  11.00000  0.05    0.34
Q17   1   1.2417  1.5588  0.0394  11.00000  0.05    0.33
Q18   1   1.0826  1.4550  0.1358  11.00000  0.05    0.32
Q19   1   0.7147  1.0878  0.0058  11.00000  0.05    0.32
Q20   1   1.4531  1.4337 -0.0985  11.00000  0.05    0.32
;
_shelx_res_checksum              83031
_shelx_hkl_file
;
   0   0   6 5.02091 6.75352   1
   0   0   7 2.77047 7.56102   1
   0   0  -7-6.78002 8.08534   1
   0   0  -8 1369.49 67.7931   1
   0   0   8 1419.51 69.5104   1
   0   0   9-8.72417 8.37569   1
   0   0  -9 8.61083 7.06917   1
   0   0 -10 6.70070 6.41511   1
   0   0  10-12.2391 11.5801   1
   0   0  11-18.4244 11.9482   1
   0   0 -11 13.4086 13.3042   1
   0   0  12 853.905 68.3197   1
   0   0 -12 995.752 71.0801   1
   0   0  13 3.39763 11.3891   1
   0   0 -13 11.1255 15.8475   1
   0   0 -14 11.1245 9.52412   1
   0   0  14 15.7972 13.7273   1
   0   0 -15 13.3035 7.96603   1
   0   0  15-6.73176 10.5377   1
   0   0 -16 970.851 80.1538   1
   0   0  16 837.888 77.8096   1
   0   0 -17 16.2628 15.9730   1
   0   0  17 13.4008 8.78736   1
   0   0 -18-0.25170 9.68680   1
   0   0  18 3.10453 14.1533   1
   0   0 -19 14.6123 17.8514   1
   0   0  19 7.53014 17.0183   1
   0   0  20 461.935 65.4166   1
   0   0 -20 444.840 62.2117   1
   0   0  21 13.6506 14.1629   1
   0   0 -21-5.07932 11.0900   1
   0   0 -22-8.87477 14.6913   1
   0   0  22-1.41227 9.27411   1
   0   0 -23 36.3081 23.3869   1
   0   0  23-16.3551 18.4225   1
   0   0  24 23.2996 19.7480   1
   0   0  25-0.25001 9.99213   1
   0   0  26 2.35071 16.6165   1
   0   0  27-25.8302 24.7587   1
   0   0  28 415.118 74.5837   1
   0   0  29 10.9373 21.6257   1
   0   0  30-6.03797 15.2989   1
   0   0  31 2.12132 11.2634   1
   0   0  32 219.213 57.0853   1
   0   0  33-9.28151 14.6404   1
   0   0  34 26.7946 30.0087   1
   0   0  35-2.26619 23.9924   1
   0   0  36 41.2052 27.4855   1
   0   0  37-25.7498 25.0211   1
   0   0  38-34.3114 27.9998   1
   0   0  39-1.47562 15.8098   1
   0   0  40-1.71012 15.4455   1
   0   0  41 16.8458 15.0983   1
   0   0  42 17.3099 13.9286   1
   0   0  43 12.8646 35.5155   1
   0   0  44 40.8985 31.7591   1
   0   0  45-25.0320 41.6433   1
   0   0  46 26.7829 27.6864   1
   0   0  47 53.2928 47.8168   1
   0   0  48 14.2220 20.4399   1
   0   0  49 17.7972 25.9027   1
   0   0  50 30.6226 19.6712   1
   0   0  51-4.93788 31.4367   1
   0   0  52 90.7900 52.9240   1
   0   0  53-5.30121 23.0508   1
   0   0  54 22.7479 43.7788   1
   0   0  55 27.1188 38.1181   1
   0   1   5 20.1477 9.55206   1
  -1   0   5 23.1493 9.23701   1
   1   0  -6 567.097 41.8027   1
   0  -1   6 561.496 33.0988   1
   0  -1  -6 561.970 41.0609   1
  -1   0  -6 540.141 41.3834   1
  -1   0   6 569.100 42.1455   1
   0   1  -6 556.935 33.7553   1
   0   1   6 554.590 41.4312   1
   0  -1   7 30.8028 9.44355   1
   0  -1  -7 14.5416 7.95529   1
   0   1  -7 32.5523 8.94866   1
   1   0  -7 29.4373 10.3675   1
  -1   0  -7 33.0007 13.8624   1
  -1   0   7 29.4857 12.9193   1
   0   1   7 59.2495 17.3710   1
   1   0  -8 312.599 34.8101   1
   0   1  -8 323.342 31.2758   1
   0  -1  -8 318.983 37.7294   1
   1   0   8 338.306 35.2577   1
  -1   0  -8 357.703 36.9518   1
   0  -1   8 310.806 29.2541   1
  -1   0   8 339.246 36.3454   1
   0   1   8 312.146 34.4621   1
  -1   0  -9 152.805 26.1982   1
   0  -1   9 158.630 22.4760   1
   0  -1  -9 123.053 23.3529   1
   0   1  -9 139.759 22.2455   1
   0   1   9 142.249 27.0000   1
   1   0  -9 152.365 26.1518   1
  -1   0   9 100.761 21.6162   1
   1   0   9 147.818 26.8948   1
  -1   0 -10 21.9348 12.5257   1
   1   0  10 5.57953 7.13814   1
   0   1  10 23.3796 10.3218   1
   0   1 -10 18.4274 8.37981   1
   1   0 -10 39.7490 17.9100   1
  -1   0  10 40.7324 17.0224   1
   0  -1 -10 12.0116 9.71003   1
   0  -1  10 24.6143 13.8160   1
   1   0 -11 343.160 42.5229   1
   0  -1 -11 361.540 43.0519   1
   0   1  11 279.595 42.9847   1
  -1   0 -11 361.062 45.1902   1
   1   0  11 365.354 43.7063   1
   0  -1  11 348.853 38.3333   1
   0   1 -11 309.910 37.6561   1
  -1   0  11 355.219 44.6956   1
   1   0 -12 369.026 44.5383   1
   1   0  12 327.197 44.0743   1
   0   1  12 340.307 45.7045   1
   0   1 -12 359.818 40.7533   1
  -1   0 -12 304.430 40.8020   1
   0  -1  12 324.757 42.8395   1
   0  -1 -12 348.436 43.7869   1
  -1   0  12 310.406 41.7862   1
   1   0  13 41.0511 20.0580   1
   0  -1  13-9.46289 13.2086   1
   0   1  13 7.96470 14.6394   1
   0  -1 -13 12.4082 17.1954   1
  -1   0 -13 6.49241 10.9487   1
   0   1 -13-9.66401 10.3300   1
   1   0 -13 32.5872 17.5199   1
  -1   0  13 3.40640 14.0069   1
   1   0  14 43.6910 17.9145   1
  -1   0 -14 31.7897 14.1633   1
   0   1 -14 49.9370 19.3624   1
   0  -1  14 17.4711 15.5831   1
   0   1  14 54.8172 22.5328   1
   1   0 -14 52.7752 20.1037   1
  -1   0  14 31.6937 18.7135   1
   0  -1 -14 58.8741 23.3558   1
   0  -1  15 18.8308 15.7196   1
   1   0  15 14.5330 13.9582   1
   0   1 -15 31.0260 17.4549   1
   0  -1 -15 11.1557 10.5624   1
   1   0 -15 3.34541 10.4904   1
  -1   0  15 6.86335 14.5153   1
  -1   0 -15 19.6876 16.6836   1
   0   1  15 15.1971 13.8162   1
   1   0 -16 19.4126 17.0697   1
   0   1  16 25.0854 13.1566   1
   0  -1 -16 30.3356 18.6879   1
  -1   0 -16 4.60951 11.0927   1
  -1   0  16-6.85235 11.7765   1
   1   0  16 9.26594 11.7839   1
   0  -1  16 0.35676 8.25787   1
   0   1 -16 21.4658 16.4206   1
   0  -1 -17 37.4251 19.4333   1
   0   1 -17 76.2172 24.0793   1
   1   0  17 27.5945 17.0528   1
   0   1  17 59.3979 22.0095   1
  -1   0  17 37.0873 21.6224   1
   0  -1  17 65.0528 23.4602   1
   1   0 -17 72.6745 25.4456   1
  -1   0 -17 38.7709 19.0229   1
   0   1 -18 256.678 44.7771   1
   0  -1 -18 257.775 46.3992   1
  -1   0 -18 273.829 51.4974   1
   0   1  18 231.975 47.1072   1
   0  -1  18 213.250 42.9245   1
  -1   0  18 257.024 46.9364   1
   1   0  18 244.994 46.4907   1
   1   0 -18 313.789 51.0954   1
   0  -1  19 246.593 44.9975   1
   0   1  19 251.165 48.0685   1
   1   0 -19 235.999 42.4822   1
  -1   0 -19 252.997 44.7034   1
   0   1 -19 206.757 41.3599   1
   0  -1 -19 298.152 52.4056   1
   1   0  19 204.432 45.4823   1
  -1   0  19 183.511 42.6096   1
   0  -1 -20 32.5042 22.7280   1
  -1   0 -20 27.1774 18.7132   1
   1   0 -20 20.3909 17.6420   1
   1   0  20 13.0578 18.8246   1
   0  -1  20 42.6096 22.4937   1
  -1   0  20 46.7709 24.6596   1
   0   1  20 44.6661 22.6418   1
   0   1 -20 37.6909 21.5426   1
   0  -1 -21 264.783 51.3286   1
  -1   0 -21 255.819 48.9803   1
   0  -1  21 237.841 47.3946   1
  -1   0  21 295.597 55.1439   1
   0   1 -21 226.724 45.4972   1
   0   1  21 205.301 50.2774   1
   1   0 -21 279.434 51.6449   1
   1   0  21 237.910 51.3263   1
  -1   0  22 23.7700 20.4264   1
  -1   0 -22 6.26942 9.22297   1
   0  -1  22 10.5439 16.3062   1
   0   1 -22 17.1895 15.7766   1
   0  -1 -22 20.0919 17.8708   1
   0   1  22 16.4481 15.3136   1
   1   0  22-9.70152 11.5711   1
   1   0 -22 35.7580 23.3979   1
   0   1 -23 35.4159 20.3388   1
   0   1  23 66.7526 30.6493   1
   0  -1  23 80.9288 29.7570   1
  -1   0 -23 43.8592 15.6776   1
  -1   0  23 30.7659 21.7592   1
   1   0  23 31.7378 20.3807   1
   1   0 -23 29.0946 16.6739   1
  -1   0  24 20.3368 17.9032   1
   0   1 -24 12.8266 14.0004   1
   0   1  24 17.8510 9.72685   1
   1   0  24 34.2960 21.8314   1
   0  -1  24 11.7335 17.6324   1
   1   0  25 216.464 49.8000   1
   0  -1  25 228.016 50.7295   1
   0   1  25 228.554 54.6563   1
  -1   0  25 220.369 51.3783   1
   1   0  26 5.40604 20.4509   1
   0   1  26 17.8528 15.1284   1
  -1   0  26 10.9547 20.0255   1
   0  -1  26 43.6830 28.4052   1
   0  -1  27 108.479 40.5816   1
   0   1  27 84.7363 39.3784   1
  -1   0  27 186.720 49.8438   1
   1   0  27 104.093 36.4611   1
  -1   0  28 1.08512 13.6682   1
   0  -1  28 7.50734 10.0038   1
   1   0  28 5.91153 11.5211   1
   0   1  28 44.9246 24.4255   1
   0   1  29 285.492 61.2019   1
   1   0  29 252.313 57.3825   1
  -1   0  29 243.548 58.6329   1
   0  -1  29 280.056 59.7759   1
   0  -1  30 72.9696 33.1024   1
  -1   0  30 82.7761 35.1729   1
   0   1  30 91.4697 42.1055   1
   1   0  30 123.228 46.0401   1
  -1   0  31 50.2769 34.0704   1
   0   1  31 64.9798 36.0780   1
   1   0  31 72.3547 31.5350   1
   0  -1  31 43.1525 25.5520   1
  -1   0  32 45.1040 28.3703   1
   0   1  32 23.8796 23.5427   1
   1   0  32-3.07440 17.7794   1
   0  -1  32 58.5136 35.6367   1
   1   0  33-26.8579 28.6047   1
   0  -1  33 36.0935 26.3200   1
   0   1  33 13.6989 24.5577   1
  -1   0  33 4.25319 18.5824   1
   0   1  34 44.1085 29.0762   1
   0  -1  34 29.7884 29.6185   1
   1   0  34 25.2134 20.0897   1
  -1   0  34-8.47926 18.0348   1
   0   1  35 163.324 51.7496   1
  -1   0  35 113.055 49.7687   1
   0  -1  35 91.5701 41.3633   1
   1   0  35 86.0462 42.0408   1
   0   1  36 54.1215 37.9172   1
  -1   0  36 7.98422 29.0842   1
   1   0  36-3.86581 23.7970   1
   0  -1  36 32.1684 26.6322   1
  -1   0  37 79.9715 41.0974   1
   0   1  37 20.0372 17.3441   1
   1   0  37 81.3318 41.0598   1
   0  -1  37 57.9520 36.9175   1
   0   1  38-4.01813 20.8772   1
   0  -1  38-4.41457 12.2409   1
   1   0  38 38.5225 34.4300   1
  -1   0  38-24.0677 27.4707   1
   1   0  39 179.358 61.3729   1
   0  -1  39 91.6549 41.6523   1
   0   1  39 108.126 49.3264   1
  -1   0  39 90.0126 43.5545   1
   1   0  40 18.3024 13.3833   1
   0  -1  40 5.67658 29.3570   1
   0   1  40 8.75257 18.0984   1
  -1   0  40 1.40642 18.5687   1
   1   0  41 38.6383 33.2217   1
  -1   0  41 22.0889 21.3068   1
   0   1  41 61.2284 40.5683   1
   0  -1  41 34.9546 16.1795   1
  -1   0  42-17.6919 33.0080   1
   0   1  42 13.8209 30.5099   1
   1   0  42 28.2823 26.8029   1
   0  -1  42-7.17068 15.4558   1
  -1   0  43 122.485 52.3457   1
   0  -1  43 117.730 51.7321   1
   1   0  43 128.164 59.0427   1
   0   1  43 132.790 54.5064   1
  -1   0  44-27.7636 31.5044   1
   0   1  44 54.9710 41.9279   1
   0  -1  44-19.9885 13.6181   1
   1   0  44 21.4276 29.2957   1
   0  -1  45 48.3622 29.4332   1
  -1   0  45 19.2457 20.1510   1
   0   1  45 43.4020 35.9977   1
   1   0  45 4.76304 32.3620   1
   0  -1  46 31.7813 42.1967   1
   1   0  46 31.4448 23.7579   1
  -1   0  46-5.16904 32.5012   1
   0   1  46 44.0158 39.9329   1
   0   1  47 93.8163 49.0069   1
   1   0  47 18.9165 28.7343   1
  -1   0  47-5.55111 14.9787   1
   0  -1  47 51.0463 35.6696   1
  -1   0  48-58.5762 34.5314   1
   0  -1  48 3.98589 17.6687   1
   0   1  48 60.4573 44.2272   1
   0  -1  49-77.3326 54.9709   1
   0   1  49-19.7563 28.7745   1
  -1   0  49 18.1496 31.1295   1
  -1   0  50 94.4664 49.5957   1
   0  -1  50 72.5636 46.0781   1
   0   1  50 54.8917 20.2633   1
   0   1  51-58.0319 37.7732   1
   0  -1  51 53.5881 42.2118   1
  -1   0  51 75.6223 40.2902   1
   0  -1  52 28.5880 32.9957   1
  -1   0  52-17.1755 35.0942   1
   0   1  52-5.31114 37.7468   1
   0  -1  53 2.95027 30.8003   1
  -1   0  53-11.7741 36.2147   1
   0   1  53 40.7351 44.1437   1
  -1   0  54-9.10050 37.5865   1
   0  -1  54-17.6819 36.0325   1
   0   1  54 98.8797 56.9757   1
  -1   0  55 60.8251 49.5376   1
   0   1  55-73.6733 56.4948   1
   0   1  56 27.8903 31.8059   1
  -1   0  56-22.9451 34.9685   1
  -1   0  57 34.1114 38.4404   1
  -1   1   4 800.339 45.1145   1
  -1  -1   5 52.3165 13.1524   1
  -1  -1  -5 39.7649 11.7799   1
  -1   1   5 44.6440 12.1384   1
   1  -1  -5 41.0450 10.6144   1
   1   1  -5 63.3234 12.3463   1
  -1  -1   6 820.292 44.2799   1
   1   1  -6 840.914 45.2139   1
  -1   1   6 781.782 51.9218   1
   1  -1  -6 760.726 51.2356   1
  -1  -1  -6 778.889 51.2352   1
  -1  -1  -7 17.6820 8.06618   1
   1   1  -7 5.40028 5.66374   1
   1  -1  -7 1.74632 5.69456   1
  -1  -1   7 14.2159 8.46829   1
   1   1   7 8.88008 9.57232   1
  -1   1  -7 20.2899 9.13620   1
  -1   1   7 17.0483 10.7731   1
  -1   1  -8 1505.13 69.6899   1
   1   1  -8 1696.82 72.2901   1
  -1  -1   8 1705.99 72.4163   1
   1   1   8 1561.61 82.0782   1
  -1  -1  -8 1538.89 78.6731   1
   1  -1  -8 1677.12 83.9037   1
  -1   1   8 1598.28 81.9849   1
   1   1  -9 163.509 26.1240   1
  -1   1   9 114.657 23.3933   1
   1  -1  -9 110.538 24.2427   1
  -1  -1  -9 107.603 23.6755   1
  -1   1  -9 150.836 24.1197   1
  -1  -1   9 102.746 22.2994   1
   1   1   9 111.912 23.0256   1
  -1  -1 -10 207.286 34.5107   1
   1  -1  10 242.736 33.3478   1
  -1  -1  10 151.959 26.9757   1
  -1   1  10 263.037 37.3215   1
  -1   1 -10 229.262 31.1223   1
   1   1  10 234.683 36.3556   1
   1   1 -10 245.942 31.8829   1
   1  -1 -10 238.181 36.7197   1
  -1  -1 -11-10.0333 15.3155   1
  -1  -1  11-8.95210 12.1834   1
   1  -1 -11 5.51362 11.1787   1
  -1   1 -11 14.4482 12.0692   1
   1   1 -11 4.15742 11.4241   1
   1  -1  11 12.1163 9.97171   1
  -1   1  11 16.9175 11.9728   1
   1   1  11 15.9294 15.2892   1
   1   1  12 1272.15 93.5640   1
   1   1 -12 1389.33 81.1905   1
  -1   1 -12 1527.59 82.1049   1
  -1  -1  12 1336.00 82.7547   1
   1  -1 -12 1452.64 92.1079   1
   1  -1  12 1472.63 84.9226   1
  -1   1  12 1367.68 90.7001   1
  -1  -1 -12 1535.86 93.8756   1
  -1   1 -13 149.656 30.8538   1
   1  -1  13 149.703 28.7062   1
  -1   1  13 162.894 33.4235   1
   1   1 -13 141.155 29.3489   1
   1  -1 -13 161.147 31.2536   1
  -1  -1  13 119.140 28.2313   1
   1   1  13 125.067 29.9240   1
  -1  -1 -13 158.156 32.1450   1
   1  -1 -14 16.7051 16.9508   1
   1   1 -14 3.96464 7.74686   1
  -1  -1 -14 14.3642 14.2497   1
  -1   1 -14 5.03372 11.8283   1
  -1  -1  14 9.42281 11.3234   1
   1   1  14 21.6329 15.2895   1
  -1   1  14-9.65233 10.7437   1
   1  -1  14-10.2841 9.97147   1
   1   1 -15-14.9333 13.2977   1
  -1  -1  15 4.29696 10.1925   1
   1   1  15 11.8312 12.9548   1
  -1   1  15 11.1436 14.9836   1
  -1  -1 -15-12.3154 21.4839   1
   1  -1  15-7.09640 13.7843   1
  -1   1 -15 6.15362 11.2397   1
   1  -1 -15 0.03463 8.35522   1
   1   1 -16 114.549 30.9295   1
   1  -1 -16 92.4093 31.8259   1
  -1   1  16 96.7909 30.6962   1
  -1  -1  16 104.895 30.7158   1
   1  -1  16 67.9462 25.2485   1
   1   1  16 97.5879 30.0579   1
  -1  -1 -16 123.947 31.3709   1
  -1   1 -16 88.5970 26.3367   1
  -1   1  17 236.281 43.2639   1
   1  -1  17 338.678 49.5990   1
   1   1 -17 333.560 48.3237   1
  -1  -1 -17 344.053 54.0224   1
  -1   1 -17 300.839 47.1377   1
   1   1  17 295.397 51.1565   1
  -1  -1  17 283.263 46.9157   1
   1  -1 -17 332.232 52.6902   1
   1   1 -18 128.648 33.4853   1
  -1   1  18 159.981 40.7582   1
   1  -1 -18 190.753 44.3541   1
  -1  -1 -18 126.879 30.9465   1
   1   1  18 107.877 31.7940   1
  -1   1 -18 143.264 34.9198   1
  -1  -1  18 112.986 29.6823   1
   1  -1  18 114.420 31.5508   1
  -1  -1  19 10.2572 12.4456   1
   1  -1  19 30.7427 17.2146   1
   1   1  19 37.5649 21.9998   1
  -1  -1 -19 47.3587 23.4719   1
   1   1 -19 71.1576 26.6587   1
   1  -1 -19 64.2897 22.4817   1
  -1   1  19 71.6026 31.7241   1
  -1   1 -19 13.9765 15.6333   1
  -1  -1  20 204.116 42.2122   1
   1  -1 -20 204.045 45.7052   1
  -1   1 -20 179.707 37.8294   1
   1   1  20 146.386 42.5558   1
  -1   1  20 138.406 41.8777   1
   1  -1  20 151.245 37.1329   1
   1   1 -20 248.275 49.0608   1
  -1  -1 -20 164.404 41.4744   1
  -1  -1  21 243.646 47.4219   1
  -1  -1 -21 253.367 46.8473   1
   1  -1  21 209.270 45.0569   1
  -1   1  21 192.655 47.0719   1
   1   1  21 218.406 50.8721   1
  -1   1 -21 248.054 46.3945   1
   1   1 -21 281.677 51.6866   1
   1  -1 -21 329.706 60.9174   1
   1  -1  22 6.80812 15.9459   1
  -1  -1 -22-16.2013 22.7965   1
  -1   1 -22 7.24029 12.1458   1
   1  -1 -22-29.1302 23.5988   1
   1   1  22 4.27456 18.8126   1
  -1   1  22 11.2979 11.5077   1
   1   1 -22-6.05881 10.6768   1
  -1  -1  22 13.1989 19.5152   1
  -1  -1  23 150.813 38.9144   1
   1  -1  23 145.667 41.9615   1
   1   1  23 187.920 45.4287   1
  -1   1  23 184.426 47.2360   1
   1   1 -23 179.278 43.8309   1
  -1   1 -23 198.872 40.6620   1
  -1  -1  24 118.652 38.0993   1
  -1   1 -24 93.9200 32.4331   1
   1  -1  24 61.7589 31.0398   1
   1   1 -24 86.8506 31.9253   1
  -1   1  24 116.368 36.7915   1
   1   1  24 77.3170 33.3892   1
  -1   1  25 194.377 49.5479   1
  -1  -1  25 161.732 41.9390   1
   1  -1  25 236.381 52.9737   1
   1   1  25 206.118 50.7318   1
  -1   1  26 38.9147 25.5573   1
   1   1  26 35.5366 19.8909   1
   1  -1  26 105.820 36.2180   1
  -1  -1  26 65.4363 30.1453   1
   1  -1  27 256.527 56.3783   1
   1   1  27 234.700 56.8516   1
  -1  -1  27 198.118 50.5564   1
  -1   1  27 242.090 56.9916   1
  -1  -1  28 7.70279 15.1780   1
   1  -1  28 4.29454 11.7025   1
   1   1  28-32.6521 28.8865   1
  -1   1  28 22.9625 14.8207   1
   1   1  29 90.3648 43.0841   1
   1  -1  29 91.1170 37.5915   1
  -1   1  29 87.5987 35.9090   1
  -1  -1  29 60.8802 30.8596   1
   1   1  30-12.6553 12.1995   1
  -1  -1  30 5.85049 19.3633   1
  -1   1  30-18.8062 18.6478   1
   1  -1  30-30.8207 22.1102   1
   1  -1  31 111.873 46.4408   1
  -1   1  31 206.279 57.3291   1
  -1  -1  31 120.287 42.3299   1
   1   1  31 121.924 43.0507   1
  -1   1  32 11.6981 28.6210   1
  -1  -1  32-4.41815 20.4319   1
   1  -1  32 38.2493 27.2788   1
   1   1  32 0.49653 17.4370   1
  -1  -1  33 119.621 47.1092   1
  -1   1  33 125.657 48.6843   1
   1  -1  33 207.721 57.8414   1
   1   1  33 166.899 49.4418   1
  -1   1  34 21.8843 28.6314   1
   1  -1  34-23.3526 16.7461   1
  -1  -1  34 43.0160 29.9455   1
   1   1  34-3.08701 15.9871   1
  -1   1  35 34.2014 37.8496   1
  -1  -1  35 15.0111 21.1502   1
   1   1  35 42.1148 27.8753   1
   1  -1  35 17.4419 17.2191   1
  -1  -1  36-5.86858 22.0258   1
   1  -1  36-34.8292 28.3490   1
  -1   1  36 4.44070 16.5007   1
   1   1  36-0.88209 14.7081   1
   1  -1  37 56.3455 34.5330   1
  -1   1  37 60.9661 31.6378   1
   1   1  37 59.3538 33.3714   1
  -1  -1  37 71.3966 33.8765   1
  -1   1  38 37.6264 29.8689   1
   1   1  38-1.60887 20.4077   1
   1  -1  38 25.3774 28.1073   1
  -1  -1  38 58.6156 34.2846   1
  -1   1  39 7.27151 21.5161   1
  -1  -1  39 47.9803 31.3999   1
   1  -1  39 66.9760 41.6661   1
   1   1  39 18.7668 15.9274   1
   1  -1  40-42.9360 38.5886   1
  -1   1  40 8.89157 19.5252   1
   1   1  40 3.29665 22.8729   1
  -1  -1  40 20.3263 24.0162   1
   1   1  41 123.907 54.3541   1
   1  -1  41 167.910 53.7023   1
  -1   1  41 96.6512 39.2387   1
  -1  -1  41 126.661 58.4079   1
  -1  -1  42 24.4866 31.9384   1
   1   1  42 20.3003 14.3113   1
   1  -1  42 42.0160 37.6992   1
  -1   1  42-3.57370 19.3408   1
  -1  -1  43 9.29255 13.8534   1
   1   1  43-19.2868 14.2258   1
  -1   1  43 1.41610 22.2467   1
   1  -1  43 34.2517 31.9660   1
  -1   1  44 89.2158 53.5821   1
  -1  -1  44 6.74025 22.8944   1
   1   1  44-54.3032 32.1215   1
   1  -1  44-26.3218 14.3997   1
   1  -1  45 30.9645 32.3798   1
   1   1  45 0.67534 18.9789   1
  -1  -1  45-24.6802 31.4059   1
  -1  -1  46 67.1499 47.5838   1
   1   1  46 32.7026 25.3642   1
  -1   1  46-21.6685 28.7050   1
  -1   1  47-17.0458 38.0266   1
   1   1  47 12.7497 21.0342   1
  -1  -1  47 44.1607 40.2306   1
  -1   1  48 63.7012 39.4166   1
  -1  -1  48-2.38606 32.0056   1
   1   1  48 78.0543 50.1561   1
  -1   1  49-12.3913 25.5789   1
  -1  -1  49-22.0536 43.3830   1
  -1  -1  50-23.9425 32.0504   1
  -1   1  50 19.8563 35.3889   1
  -1   1  51 18.4474 37.4113   1
  -1  -1  51-44.6224 36.6118   1
  -1   1  52 72.5009 55.9196   1
  -1  -1  52 5.54916 38.4646   1
  -1  -1  53-23.7297 37.9602   1
  -1   1  53 7.15329 26.3170   1
  -1  -1  54 43.8797 34.7694   1
  -1   1  54-4.22248 33.8274   1
  -1   1  55-2.55984 36.7518   1
  -1  -1  55 30.6960 41.1452   1
  -1  -1  56 31.4497 44.3885   1
  -1   1  56 34.9882 42.5769   1
  -1  -1  57 45.0054 36.5137   1
  -1  -1  58 21.7154 19.1513   1
  -2   1   2 109.774 20.2035   1
  -2   1   3 286.089 32.2333   1
   2  -1  -3 299.105 33.0652   1
   2  -1  -4 100.709 20.6272   1
  -1  -2   4 99.9091 12.7110   1
  -2   1   4 91.8700 18.3727   1
  -1  -2  -4 96.3792 17.3820   1
   2  -1  -5 42.5914 14.5535   1
  -1  -2   5 47.6825 8.76474   1
  -2   1   5 40.5442 14.5374   1
  -1  -2  -5 52.8017 14.0437   1
  -2   1   6 20.2326 12.5976   1
   2  -1  -6 16.8241 10.4777   1
  -1  -2   6 11.1309 4.99775   1
   1   2   6-2.81221 9.05047   1
  -1  -2  -6 13.0400 10.3100   1
   1   2  -6 18.0246 6.50694   1
   1   2  -7 468.447 33.3280   1
   2  -1  -7 399.471 43.3073   1
  -1  -2  -7 437.122 42.8428   1
   1   2   7 465.966 44.5892   1
  -2   1   7 414.763 44.4754   1
  -1  -2   7 484.230 32.7898   1
  -1  -2  -8 345.835 38.8916   1
   2  -1  -8 352.394 43.4970   1
  -2   1   8 313.282 40.6283   1
   1   2   8 314.499 40.1050   1
  -1  -2   8 338.064 30.9312   1
   1   2  -8 392.617 32.3266   1
   1   2   9 354.979 41.7194   1
  -1  -2  -9 288.323 37.7649   1
  -1  -2   9 311.267 32.6569   1
   2  -1  -9 342.886 42.8960   1
  -2   1   9 271.656 41.5698   1
   1   2  -9 318.099 30.5327   1
  -1  -2 -10 132.905 30.7872   1
   1   2  10 112.389 28.1409   1
   1   2 -10 137.993 21.3524   1
   2  -1 -10 148.466 31.1328   1
  -1  -2  10 133.612 22.5647   1
  -2   1  10 143.084 29.4950   1
  -2   1 -11 200.530 32.9172   1
  -1  -2 -11 209.169 35.9947   1
   1   2 -11 216.185 28.6821   1
   2  -1 -11 195.983 34.3474   1
  -2   1  11 143.113 32.9387   1
  -1  -2  11 173.880 26.2824   1
   1   2  11 187.129 34.1711   1
   2  -1 -12 96.5691 25.4786   1
  -2   1  12 82.2449 25.4382   1
  -1  -2 -12 64.5868 20.9387   1
  -1  -2  12 64.2538 18.9582   1
  -2   1 -12 71.8218 22.0332   1
   1   2  12 42.9872 18.8846   1
   1   2 -12 77.6106 18.3837   1
   1   2 -13 326.316 38.8038   1
  -2   1 -13 337.866 42.3011   1
  -1  -2 -13 331.897 46.6012   1
  -2   1  13 293.057 46.2542   1
   2  -1 -13 293.312 45.8636   1
   1   2  13 340.266 48.7394   1
  -1  -2  13 277.746 36.5088   1
   2  -1 -14 334.888 49.2863   1
   1   2 -14 270.406 36.6167   1
  -1  -2 -14 237.453 41.1018   1
   1   2  14 275.948 48.2187   1
  -1  -2  14 309.819 39.2941   1
  -2   1 -14 303.867 42.6140   1
  -2   1  14 241.322 42.6608   1
  -2   1  15 68.0738 22.0209   1
   2  -1 -15 71.0426 28.2982   1
  -1  -2  15 79.7509 19.1226   1
   1   2 -15 49.0298 16.0632   1
  -1  -2 -15 100.743 28.6821   1
  -2   1 -15 113.749 29.4722   1
   1   2  15 56.1840 21.5906   1
  -2   1 -16 1.20438 9.00965   1
   1   2 -16-6.12790 11.5780   1
  -1  -2 -16-33.2492 18.9220   1
  -2   1  16 7.99068 19.7142   1
  -1  -2  16 0.05804 7.49906   1
   1   2  16 22.7372 22.1302   1
   2  -1 -16 16.3037 18.8633   1
  -1  -2 -17 110.716 31.2857   1
  -2   1 -17 74.3297 20.9197   1
  -1  -2  17 92.0635 26.4434   1
  -2   1  17 75.1908 31.7878   1
   1   2  17 71.9218 26.3623   1
   1   2 -17 99.8364 23.2695   1
   2  -1 -17 117.401 32.8496   1
  -2   1  18 20.4746 20.8408   1
  -1  -2  18 9.50479 10.4244   1
   1   2 -18 35.4696 18.1624   1
  -1  -2 -18 28.7084 21.1636   1
  -2   1 -18 42.5666 15.8526   1
   1   2  18 25.0381 17.7104   1
   2  -1 -18 34.7531 17.7173   1
  -2   1  19 300.676 51.6127   1
  -2   1 -19 373.102 55.8027   1
  -1  -2  19 287.067 45.9993   1
   1   2  19 347.337 60.7855   1
  -1  -2 -19 374.172 63.6551   1
   1   2 -19 384.373 53.7066   1
   2  -1 -19 362.431 56.8243   1
  -1  -2  20 152.041 35.8179   1
  -2   1  20 162.281 44.1095   1
   2  -1 -20 129.815 31.0335   1
  -2   1 -20 172.945 38.1272   1
   1   2 -20 175.039 37.0940   1
  -1  -2 -20 155.911 39.3912   1
   1   2  20 145.412 42.5172   1
   2  -1 -21 246.055 46.9555   1
  -2   1 -21 281.556 47.5844   1
   1   2 -21 242.415 46.9446   1
  -1  -2  21 237.820 44.2599   1
  -2   1  21 153.561 44.4543   1
   1   2  21 212.897 47.8297   1
  -1  -2 -21 292.355 54.1531   1
   1   2  22 12.6149 16.8272   1
  -1  -2  22-6.36546 8.01050   1
   1   2 -22 21.4504 15.0847   1
  -2   1  22-18.6929 16.6989   1
  -2   1 -22-1.01277 15.8452   1
   1   2  23 164.620 46.2928   1
  -1  -2  23 179.503 42.0610   1
  -2   1  23 136.466 42.5110   1
  -2   1 -23 157.624 40.6694   1
   1   2 -23 154.168 37.5623   1
  -2   1  24 62.3534 29.9528   1
   1   2  24 12.4007 18.0506   1
  -1  -2  24 48.4658 25.9023   1
   1   2 -24 30.1653 14.9600   1
  -2   1  25 173.566 46.6559   1
   1   2 -25 200.450 46.0130   1
  -1  -2  25 260.577 52.2149   1
   1   2  25 202.132 51.5927   1
   1   2  26-66.6780 30.0282   1
  -2   1  26-3.72042 16.7123   1
  -1  -2  26-6.80144 15.0085   1
  -1  -2  27 124.005 37.6100   1
   1   2  27 126.644 42.9143   1
  -2   1  27 107.768 41.4413   1
  -2   1  28-5.48606 17.8939   1
   1   2  28 39.2676 27.6770   1
  -1  -2  28-0.39131 13.1525   1
  -2   1  29 125.395 45.4259   1
   1   2  29 113.669 41.2978   1
  -1  -2  29 74.5853 30.8642   1
   1   2  30 31.3091 14.5105   1
  -2   1  30 18.2969 25.0968   1
  -1  -2  30 16.0697 15.8259   1
  -1  -2  31 157.318 46.4063   1
  -2   1  31 227.731 59.9665   1
   1   2  31 195.636 58.3727   1
  -1  -2  32-18.8692 22.9792   1
   1   2  32 0.54298 22.2809   1
  -2   1  32 46.2968 32.8052   1
  -2   1  33 168.374 49.8820   1
   1   2  33 213.357 60.5158   1
  -1  -2  33 135.644 47.8222   1
  -1  -2  34 38.3392 26.1615   1
  -2   1  34-21.1108 21.8720   1
   1   2  34 25.2853 27.1465   1
   1   2  35 166.794 53.6529   1
  -1  -2  35 116.431 43.3835   1
  -2   1  35 177.937 53.5469   1
  -2   1  36 23.8399 29.6588   1
   1   2  36-11.5464 18.5544   1
  -1  -2  36-2.92594 20.6760   1
  -2   1  37 88.2379 38.5192   1
   1   2  37 131.731 51.7704   1
  -1  -2  37 67.3546 32.7854   1
  -1  -2  38 32.5652 29.0714   1
  -2   1  38 6.34996 15.6721   1
   1   2  38-9.84620 27.3081   1
  -2   1  39 42.6377 40.5747   1
   1   2  39 114.335 51.2448   1
  -1  -2  39 53.3464 33.8283   1
   1   2  40-33.9501 35.0497   1
  -2   1  40 15.4404 15.3391   1
  -1  -2  40-8.51524 26.6321   1
  -2   1  41 40.2720 27.6277   1
   1   2  41 74.5900 38.2797   1
  -1  -2  41 73.9032 39.7537   1
  -1  -2  42 20.3761 21.0614   1
  -2   1  42-6.43897 31.6362   1
   1   2  42 70.4432 41.5946   1
   1   2  43 4.75279 25.7722   1
  -2   1  43 57.4193 36.5292   1
  -1  -2  43 80.7431 44.2199   1
   1   2  44-35.7124 42.8784   1
  -2   1  44 22.6545 19.9156   1
   1   2  45 118.447 49.0893   1
  -2   1  45 101.033 49.6559   1
  -1  -2  45 50.1221 30.8505   1
   1   2  46 113.191 56.0485   1
  -2   1  46 69.6005 52.5086   1
  -1  -2  46 28.1135 30.0463   1
  -1  -2  47 38.0201 34.5899   1
  -2   1  47 57.9170 45.3897   1
   1   2  47 48.3245 29.3321   1
  -1  -2  48 7.68756 21.1781   1
  -2   1  48 43.1882 36.5112   1
   1   2  48 62.2597 48.2755   1
   1   2  49-30.5392 29.1231   1
  -1  -2  49 16.4002 22.6392   1
  -1  -2  50 43.9388 34.6403   1
  -2   1  50 4.22832 24.9762   1
  -2   1  51 31.9644 20.1839   1
  -1  -2  51-13.8968 31.4849   1
  -1  -2  52 89.3871 56.1347   1
  -2   1  52 31.8978 40.6974   1
  -2   1  53 29.1059 33.9123   1
  -1  -2  53 97.9865 50.0039   1
  -1  -2  54 25.4809 23.8695   1
  -2   1  54 32.8640 51.7804   1
  -2   1  55 10.6238 30.8482   1
  -1  -2  55 35.4409 27.1015   1
  -1  -2  56 89.1920 46.2207   1
  -2   1  56 40.7216 36.5683   1
  -1  -2  57-37.3635 36.9402   1
  -1  -2  58-38.0713 44.1510   1
   0   2   1 19.6385 5.45396   1
   0  -2  -1 34.2495 7.04019   1
   0   2   2 110.106 14.0466   1
   0  -2  -2 96.5861 12.9528   1
   0  -2  -3 66.1662 11.1556   1
   0   2   3 58.3008 10.3804   1
  -2   0   3 57.3799 15.6083   1
   2   0  -4 246.556 30.4481   1
   0  -2  -4 244.788 26.2817   1
   0   2   4 270.974 26.5786   1
  -2   0   4 205.857 26.6084   1
   0   2   5 228.018 26.6849   1
   0  -2  -5 186.537 25.1704   1
  -2   0   5 190.623 28.5061   1
   2   0  -5 234.845 31.3659   1
   0  -2   6 137.271 14.1693   1
  -2   0   6 110.365 22.6357   1
   2   0  -6 96.5712 19.7668   1
   0   2   6 143.476 22.9241   1
   0  -2  -6 147.266 24.7228   1
   0   2  -6 155.491 14.7655   1
  -2   0   7 103.928 22.8776   1
   0   2  -7 127.785 15.7809   1
   0   2   7 113.071 23.5658   1
   0  -2   7 125.115 15.6805   1
   0  -2  -7 121.432 23.1346   1
   2   0  -7 103.122 23.5842   1
   2   0  -8 85.5693 19.8057   1
   0  -2   8 90.4083 14.9263   1
   0   2   8 94.1612 22.4478   1
   0   2  -8 94.3882 13.5100   1
   0  -2  -8 106.795 24.6085   1
  -2   0   8 50.3247 17.6938   1
   2   0  -9 56.0328 19.4721   1
   0   2   9 32.8812 12.0813   1
   0  -2   9 15.8717 7.45244   1
  -2   0   9 21.0193 8.60351   1
   0  -2  -9 8.58355 7.65642   1
   0   2  -9 46.9055 12.8233   1
   0  -2 -10 186.362 32.6784   1
   0   2  10 164.549 32.4301   1
   2   0 -10 179.542 32.7669   1
  -2   0  10 153.245 31.9537   1
   0   2 -10 189.991 24.3492   1
   0  -2  10 157.511 22.5003   1
  -2   0 -11 37.8109 15.8599   1
   0   2 -11 45.6284 14.0272   1
  -2   0  11 30.3413 17.5180   1
   2   0 -11 46.1131 20.0133   1
   0  -2 -11 43.3482 19.5222   1
   0   2  11 32.6366 18.1041   1
   0  -2  11 42.6195 14.7051   1
   0  -2 -12 93.8136 26.6268   1
   0   2  12 81.6060 23.1763   1
   0  -2  12 86.4647 20.4194   1
   0   2 -12 105.256 20.6233   1
  -2   0  12 116.703 26.4329   1
   2   0 -12 77.7970 22.5041   1
  -2   0 -12 81.2861 21.5283   1
   0  -2 -13 118.583 30.4708   1
   0   2 -13 118.305 24.4171   1
   0  -2  13 116.338 25.4038   1
  -2   0 -13 124.882 29.5613   1
  -2   0  13 74.0339 26.6388   1
   0   2  13 113.596 30.1342   1
   2   0 -13 125.707 30.2335   1
   0  -2  14 25.5722 14.0963   1
   0   2 -14 7.90939 11.4724   1
   0   2  14 20.0540 11.8324   1
  -2   0  14 7.08561 11.7028   1
   0  -2 -14 30.1163 12.5256   1
   2   0 -14 21.5927 13.8598   1
  -2   0 -14 33.1293 18.5980   1
  -2   0 -15 22.4750 15.6403   1
   0   2  15 43.7943 20.2457   1
  -2   0  15-0.88434 10.2367   1
   0   2 -15 24.0244 12.5252   1
   0  -2 -15 53.2333 18.7869   1
   0  -2  15 23.9229 12.9602   1
   2   0 -15 26.8086 18.4763   1
   0   2  16-8.25665 14.0976   1
  -2   0  16 15.4168 20.7248   1
   0  -2 -16 24.7758 17.9575   1
   0  -2  16 28.8328 17.8610   1
   0   2 -16 13.1289 12.7344   1
   2   0 -16 11.3686 10.7663   1
  -2   0 -16-19.8504 17.0295   1
   0   2 -17 127.839 28.4499   1
   0   2  17 115.472 33.4933   1
   0  -2 -17 117.316 31.7352   1
   0  -2  17 129.777 27.0773   1
  -2   0 -17 104.807 26.9465   1
   2   0 -17 181.147 41.3472   1
  -2   0  17 87.0294 29.2338   1
  -2   0  18 25.9581 16.5713   1
  -2   0 -18 90.6964 30.6188   1
   0  -2  18 28.8298 13.0783   1
   0   2 -18 38.2707 15.7947   1
   0   2  18 84.6750 32.4757   1
   0  -2 -18 63.6123 22.3981   1
   2   0 -18 38.5031 20.8983   1
   0  -2 -19 246.434 47.5869   1
   0  -2  19 181.342 38.5594   1
  -2   0  19 166.468 40.8238   1
   0   2  19 136.646 34.0552   1
  -2   0 -19 156.130 38.0973   1
   0   2 -19 159.003 30.3477   1
   2   0 -19 220.766 47.1827   1
   0   2  20-10.8588 14.3616   1
  -2   0  20 4.61120 9.57326   1
   0   2 -20 4.73449 10.0463   1
   0  -2  20 7.15668 11.1094   1
   0  -2 -20 4.74960 14.9264   1
  -2   0 -20-24.3204 24.6647   1
   2   0 -20 6.60862 14.0323   1
   0   2  21 88.7547 32.8220   1
   2   0 -21 49.5397 22.0697   1
   0  -2  21 38.7264 24.0436   1
   0   2 -21 70.7200 26.4384   1
  -2   0  21 53.1772 30.9378   1
  -2   0 -21 61.7985 23.7037   1
   0  -2 -21 75.7264 30.9139   1
   0  -2  22-17.0799 12.7267   1
   0   2  22-0.95542 16.0421   1
  -2   0  22-13.0206 17.7804   1
  -2   0 -22 14.2880 19.7945   1
   2   0 -22 26.6249 20.2225   1
   0   2 -22-11.5464 17.7448   1
   0  -2  23 194.506 44.0463   1
   0   2 -23 209.459 44.3257   1
   0   2  23 218.523 53.9719   1
  -2   0  23 202.080 46.9338   1
   0   2 -24 29.5064 22.9948   1
   0   2  24 9.19066 12.3870   1
  -2   0  24 11.9963 20.5866   1
   0  -2  24-8.92546 14.7689   1
   0   2 -25 257.628 51.7134   1
   0   2  25 198.744 49.5561   1
   0  -2  25 226.491 49.4936   1
  -2   0  25 236.294 53.6968   1
  -2   0  26-4.89495 12.2893   1
   0   2  26 26.7594 19.7351   1
   0  -2  26 55.3178 28.4837   1
   2   0  26 50.0021 31.1357   1
   0   2 -26 31.3169 16.4624   1
   2   0  27 87.8177 37.8618   1
   0   2  27 99.0952 41.1040   1
  -2   0  27 113.994 40.7725   1
   0  -2  27 90.4298 29.4252   1
  -2   0  28 53.8908 33.2632   1
   0   2  28 27.6544 17.1762   1
   2   0  28 24.9259 23.4999   1
   0  -2  28 27.3701 13.6601   1
   0  -2  29 35.8514 28.7276   1
   0   2  29 20.6783 24.1552   1
  -2   0  29 16.5936 12.3155   1
   2   0  29 39.0376 25.9071   1
   0   2  30 7.34926 14.3089   1
  -2   0  30-8.09029 22.8717   1
   2   0  30-5.36197 14.1900   1
   0  -2  30-22.3259 25.5322   1
   0   2  31 139.195 53.5120   1
  -2   0  31 108.960 42.9665   1
   0  -2  31 103.225 35.4588   1
  -2   0  32-6.13813 22.1641   1
   0   2  32-8.30048 13.1989   1
   0  -2  32 8.69757 11.8645   1
   0   2  33 210.334 59.1678   1
   0  -2  33 218.444 54.0325   1
  -2   0  33 217.270 56.5034   1
  -2   0  34 1.01822 12.4932   1
   0   2  34 16.6166 19.3176   1
   0  -2  34-3.05188 16.5714   1
   0  -2  35 35.2257 30.1489   1
   0   2  35 4.20892 14.2433   1
  -2   0  35 2.59245 18.1413   1
   0   2  36 67.8407 33.4744   1
   0  -2  36 40.7420 29.2311   1
  -2   0  36-2.56826 26.3253   1
   0   2  37 219.741 68.4252   1
   0  -2  37 166.622 54.5234   1
  -2   0  37 131.202 45.6650   1
  -2   0  38-15.6065 26.6193   1
   0  -2  38 8.42633 19.7371   1
   0   2  38 10.5206 20.8868   1
  -2   0  39 65.8153 40.0974   1
   0   2  39 137.372 55.5661   1
   0  -2  39 69.7462 37.5807   1
   0   2  40-29.9412 43.5329   1
   0  -2  40 14.0003 17.5245   1
  -2   0  40-25.5292 27.2951   1
   0   2  41 117.534 55.3904   1
  -2   0  41 80.7094 43.2132   1
   0  -2  41 97.0798 45.3866   1
   0   2  42 66.0613 45.0489   1
   0  -2  42 0.34030 27.8036   1
  -2   0  42-13.0449 29.8006   1
   0  -2  43 103.976 45.9901   1
   0   2  43 81.3989 46.6318   1
  -2   0  43 33.0281 26.5372   1
  -2   0  44 37.3426 28.0772   1
   0   2  44 23.2455 14.9169   1
   0  -2  44 2.96518 29.4974   1
   0   2  45 6.36621 35.5761   1
  -2   0  45 9.90582 24.1753   1
   0  -2  45 24.5637 19.5557   1
   0  -2  46 3.11665 26.1321   1
   0   2  46-45.3272 42.7783   1
  -2   0  46 32.5161 32.7525   1
   0   2  47-33.6331 39.9742   1
   0  -2  47-1.65959 20.9048   1
  -2   0  47 28.1881 23.1080   1
   0   2  48 56.5209 56.0259   1
  -2   0  48 58.5788 37.9552   1
   0  -2  48 69.0303 47.1706   1
  -2   0  49-43.7751 33.4249   1
   0  -2  49 31.8187 24.5500   1
   0   2  49-20.5693 28.7110   1
  -2   0  50 0.80486 20.2749   1
   0  -2  50-49.8956 23.5958   1
   0   2  50 12.1386 22.0294   1
   0  -2  51 75.8431 52.1605   1
  -2   0  51 31.2035 27.3884   1
   0   2  51 38.8104 49.3535   1
  -2   0  52-8.40258 21.8581   1
   0   2  52-42.6492 42.8598   1
   0  -2  52-1.28984 21.0800   1
  -2   0  53 37.6264 39.7850   1
   0   2  53 84.6708 54.0485   1
  -2   0  54-8.33548 25.4265   1
   0   2  54 122.492 71.8913   1
   0   2  55 74.5265 48.0010   1
  -2   0  55 76.6284 52.2359   1
  -2   0  56 43.6063 49.2890   1
  -2   0  57 11.1767 18.4125   1
  -1   2   0 30.9501 8.23234   1
   1  -2   0 17.7081 5.48701   1
  -1   2   1 99.4645 14.5891   1
   1  -2  -1 105.259 14.0918   1
  -1   2  -1 82.5389 11.0930   1
   1  -2  -2 100.312 15.1709   1
  -1   2   2 109.552 16.6151   1
  -1   2   3 300.980 28.7384   1
   1  -2  -3 312.752 29.5128   1
   1  -2  -4 54.0842 11.4187   1
  -1   2   4 95.0792 16.5252   1
  -2  -1   4 83.5004 19.3238   1
  -1   2   5 37.1134 12.5889   1
   1  -2  -5 42.2892 13.1144   1
  -2  -1   5 41.1413 13.1808   1
   2   1  -6 20.1142 10.6672   1
  -1   2   6 37.3281 15.7429   1
   1  -2  -6-6.33527 9.79788   1
  -2  -1   6 18.8553 10.9274   1
  -2  -1   7 388.339 41.4936   1
   1  -2  -7 465.712 43.5549   1
   2   1  -7 436.106 41.3547   1
  -1   2   7 461.321 45.1525   1
   1  -2  -8 360.852 42.1438   1
   2   1  -8 330.405 35.2372   1
  -2  -1   8 381.003 38.8155   1
  -1   2  -8 341.694 30.1569   1
  -1   2   8 345.470 40.7623   1
  -1   2  -9 297.885 30.0594   1
   2   1  -9 350.259 39.4823   1
  -2  -1   9 278.639 35.7885   1
   1  -2  -9 306.587 39.2156   1
  -1   2   9 309.703 39.4855   1
  -1   2  10 114.517 25.6934   1
  -2  -1  10 119.423 24.6517   1
   1  -2 -10 140.647 31.3039   1
   2   1 -10 139.467 26.4201   1
  -1   2 -10 146.578 22.7574   1
  -2  -1 -10 132.725 25.9979   1
   2   1 -11 189.534 31.7458   1
  -2  -1 -11 200.176 38.5464   1
   1  -2 -11 195.458 35.4089   1
  -1   2  11 193.135 35.3982   1
  -1   2 -11 190.128 27.3998   1
  -2  -1  11 143.868 28.4896   1
  -1   2 -12 44.1204 12.7314   1
   1  -2 -12 82.2109 24.1087   1
  -2  -1  12 62.1392 21.7661   1
  -2  -1 -12 84.5022 27.2802   1
  -1   2  12 45.7732 20.7386   1
   2   1 -12 73.4020 23.5027   1
  -2  -1 -13 303.522 46.0092   1
   1  -2 -13 359.873 50.2651   1
  -1   2  13 342.348 48.8282   1
   2   1 -13 319.715 43.8124   1
   1  -2  13 301.305 36.9990   1
  -2  -1  13 322.943 44.4533   1
  -1   2 -13 262.027 33.8120   1
   1  -2 -14 295.708 46.9033   1
  -1   2 -14 307.052 38.3381   1
   2   1 -14 334.665 46.2977   1
  -2  -1 -14 310.580 49.9683   1
  -1   2  14 263.406 46.2489   1
   1  -2  14 272.681 38.6090   1
  -2  -1  14 296.392 44.1346   1
   1  -2 -15 77.5711 24.3812   1
   2   1 -15 66.2223 21.6644   1
  -2  -1 -15 89.4535 30.2612   1
  -1   2  15 57.5018 27.4498   1
  -1   2 -15 74.6609 19.7872   1
   1  -2  15 63.1967 20.4059   1
  -2  -1  15 38.5069 15.4968   1
  -1   2  16-14.7798 17.7673   1
   2   1 -16 6.82222 8.37293   1
   1  -2  16 16.8297 12.7317   1
  -2  -1  16-4.86764 9.07607   1
  -1   2 -16 0.24138 12.0560   1
  -2  -1 -16 14.2019 13.5834   1
   1  -2 -16-14.5595 18.5263   1
  -1   2 -17 78.0143 20.9767   1
   1  -2  17 104.836 30.7342   1
  -2  -1 -17 97.0392 29.1465   1
  -2  -1  17 87.3719 25.8738   1
   2   1 -17 97.9919 31.5514   1
  -1   2  17 96.1730 28.4480   1
   1  -2 -17 112.892 31.9801   1
  -2  -1  18 31.9083 15.0985   1
  -1   2  18 41.2810 23.3704   1
  -2  -1 -18 11.8376 9.33687   1
   2   1 -18 18.0601 9.99191   1
   1  -2 -18 19.3870 15.7069   1
  -1   2 -18 42.9575 18.0378   1
   1  -2  18 52.8262 18.9542   1
   1  -2  19 279.049 48.2317   1
  -2  -1  19 341.225 53.9324   1
  -1   2  19 269.756 51.6230   1
   1  -2 -19 337.974 56.0279   1
   2   1 -19 336.086 52.9287   1
  -1   2 -19 419.139 53.2529   1
  -2  -1 -19 396.027 58.4246   1
  -1   2 -20 185.749 40.0598   1
  -2  -1  20 194.495 42.6261   1
   2   1  20 166.020 41.4403   1
   2   1 -20 181.976 40.7065   1
   1  -2 -20 162.701 41.2109   1
  -2  -1 -20 192.611 43.7573   1
   1  -2  20 134.506 31.6727   1
  -1   2  20 161.170 43.8905   1
   1  -2 -21 223.458 51.6870   1
  -1   2  21 224.508 51.2932   1
  -2  -1  21 259.475 49.8289   1
   2   1  21 159.919 46.4928   1
  -1   2 -21 227.589 41.7018   1
  -2  -1 -21 214.325 47.1011   1
   2   1 -21 215.754 44.7102   1
   1  -2  21 254.171 48.2693   1
   2   1  22 31.5688 23.6059   1
  -1   2 -22-24.5213 14.9715   1
  -2  -1  22 6.63387 10.1719   1
   2   1 -22 15.0006 12.0929   1
   1  -2  22 18.0432 17.1052   1
  -1   2  22 7.07891 14.7787   1
   2   1 -23 154.308 41.5690   1
  -1   2  23 173.195 49.2923   1
   1  -2  23 201.052 46.2965   1
  -1   2 -23 162.135 41.1464   1
   2   1  23 171.776 47.0393   1
  -2  -1  23 130.247 37.2811   1
   2   1  24 41.0433 27.2622   1
  -2  -1  24 45.8261 23.4621   1
   1  -2  24 14.6665 10.9586   1
  -1   2 -24 25.1922 21.1451   1
  -1   2  24 13.6429 18.8851   1
  -2  -1  25 145.928 38.5816   1
   1  -2  25 194.689 46.6774   1
  -1   2 -25 198.519 43.9613   1
   2   1  25 155.993 47.9142   1
  -1   2  25 188.619 55.1985   1
   1  -2  26 30.7419 18.9246   1
  -2  -1  26 15.5581 15.2281   1
   2   1  26-16.1903 16.7921   1
  -1   2  26 20.2264 17.6397   1
  -2  -1  27 111.021 39.6770   1
   2   1  27 95.5202 38.0068   1
   1  -2  27 116.291 36.6080   1
  -1   2  27 108.417 37.5642   1
  -2  -1  28-22.6930 12.6911   1
   2   1  28 41.6604 23.4014   1
  -1   2  28 4.74887 19.1257   1
   1  -2  28-3.47669 12.6734   1
   2   1  29 110.846 41.5274   1
  -1   2  29 145.728 46.9740   1
  -2  -1  29 139.559 45.9706   1
   1  -2  29 140.239 42.5377   1
  -2  -1  30 13.2188 11.7901   1
  -1   2  30 44.6881 31.9484   1
   2   1  30 21.8205 24.3952   1
   1  -2  30 26.5534 20.6034   1
  -2  -1  31 188.410 53.4699   1
  -1   2  31 220.748 61.9853   1
   2   1  31 178.322 54.2038   1
   1  -2  31 180.746 53.6460   1
   2   1  32-26.6725 30.0490   1
  -1   2  32-13.7307 21.3752   1
  -2  -1  32 7.04823 21.0394   1
   1  -2  32-29.1059 25.4048   1
  -2  -1  33 178.651 52.0517   1
   1  -2  33 180.533 50.3121   1
  -1   2  33 207.572 58.2004   1
   2   1  33 204.818 58.4765   1
   2   1  34-7.14862 31.7528   1
   1  -2  34 23.9099 26.0257   1
  -2  -1  34-8.07130 22.6219   1
  -1   2  34-3.29242 25.9947   1
   2   1  35 147.094 51.5971   1
   1  -2  35 151.633 49.1831   1
  -2  -1  35 167.368 53.8980   1
  -1   2  35 150.144 56.9888   1
  -1   2  36 14.1765 30.4485   1
  -2  -1  36 24.4779 16.8327   1
   1  -2  36-18.1889 23.9129   1
  -1   2  37 133.152 58.4579   1
   1  -2  37 79.7521 42.9569   1
  -2  -1  37 52.1485 29.7434   1
   1  -2  38 30.6935 30.2190   1
  -2  -1  38 13.3785 23.5908   1
  -1   2  38-20.4819 32.5009   1
  -2  -1  39 85.1330 37.7304   1
  -1   2  39 119.870 53.5320   1
   1  -2  39 94.7965 41.0107   1
  -2  -1  40-18.2511 28.4480   1
   1  -2  40-14.8233 21.8165   1
  -1   2  40 35.3606 31.2812   1
  -1   2  41 31.2682 31.3578   1
  -2  -1  41 55.7975 27.2449   1
   1  -2  41 73.1145 36.4005   1
   1  -2  42-12.7383 12.8934   1
  -2  -1  42 27.0587 31.7897   1
  -1   2  42-15.4832 20.9584   1
  -2  -1  43 57.7049 29.5622   1
  -1   2  43 28.3025 33.9860   1
  -1   2  44 46.0319 34.6439   1
  -2  -1  44 90.9756 48.0204   1
  -2  -1  45 124.237 49.7299   1
  -1   2  45 97.5951 39.2274   1
  -2  -1  46 13.4934 26.3641   1
  -1   2  46 11.5523 32.3399   1
  -2  -1  47-73.5606 48.5573   1
  -1   2  47 46.5726 38.5929   1
  -1   2  48 13.9786 27.0509   1
  -2  -1  48 1.36253 20.3691   1
  -1   2  49-28.3821 27.5249   1
  -2  -1  49-7.16636 28.5770   1
  -2  -1  50-31.0332 34.9075   1
  -1   2  50 25.4666 34.6683   1
  -1   2  51 49.6119 42.8030   1
  -2  -1  51 10.2359 24.8324   1
  -2  -1  52-21.9431 41.9021   1
  -1   2  52-75.4370 59.9260   1
  -2  -1  53 11.8695 20.7958   1
  -1   2  53 81.2183 41.3534   1
  -1   2  54 2.86141 24.2445   1
  -2  -1  54-50.8465 43.7064   1
  -2  -1  55 35.0208 18.9324   1
  -1   2  55 109.192 63.0562   1
  -2  -1  56 87.9081 61.4438   1
  -2  -1  57 16.8620 31.2674   1
  -2   2   0 805.696 49.1213   1
  -2   2   1 221.388 27.3115   1
   2  -2  -2 1441.87 70.7866   1
  -2   2   2 1436.74 70.5620   1
   2  -2  -3 1848.31 83.0555   1
  -2   2   3 1866.47 83.0158   1
  -2   2   4 487.674 43.0998   1
   2  -2  -4 563.758 46.8626   1
   2  -2  -5 578.725 50.4774   1
  -2   2   5 629.417 53.0411   1
  -2  -2   5 544.707 42.1054   1
  -2  -2   6 4776.62 124.410   1
  -2   2   6 4511.66 147.004   1
   2  -2  -6 4844.01 145.910   1
  -2  -2   7 213.619 27.8439   1
   2  -2  -7 293.830 38.7159   1
  -2   2   7 256.915 34.9293   1
   2   2  -8 644.970 47.5329   1
   2  -2  -8 600.102 54.6768   1
  -2   2   8 598.586 56.6954   1
  -2  -2   8 618.696 47.8111   1
  -2  -2  -8 603.029 58.1670   1
   2   2  -9 428.091 39.5764   1
  -2  -2   9 409.787 43.0539   1
   2  -2  -9 454.477 49.1504   1
  -2   2   9 454.532 50.1215   1
  -2  -2  -9 446.543 50.6288   1
  -2  -2  10 476.642 48.2289   1
   2   2 -10 605.600 49.7539   1
  -2   2  10 571.482 59.8300   1
   2  -2 -10 556.556 58.6146   1
  -2  -2 -10 565.974 58.2510   1
  -2   2  11 19.3904 19.5441   1
  -2  -2  11-0.50368 8.75498   1
  -2  -2 -11 1.44419 10.0080   1
   2   2 -11 14.8664 11.6266   1
   2  -2 -11 1.03994 14.3557   1
   2   2 -12 96.8933 20.2378   1
  -2   2 -12 113.578 20.2764   1
  -2   2  12 128.480 29.7010   1
  -2  -2  12 127.689 27.3493   1
   2  -2 -12 95.4340 22.6359   1
  -2  -2 -12 119.372 30.6987   1
  -2  -2  13 6.22120 11.0684   1
  -2   2 -13 41.3328 14.6070   1
  -2  -2 -13 47.8978 18.6301   1
   2   2 -13 70.9570 22.1246   1
   2  -2 -13 44.4717 16.5715   1
  -2   2  13 40.2329 22.1377   1
   2   2 -14 538.631 54.5778   1
  -2  -2  14 543.483 55.7245   1
  -2  -2 -14 569.614 67.1394   1
  -2   2 -14 548.867 55.0608   1
   2  -2 -14 535.019 60.8348   1
  -2   2  14 538.183 66.0524   1
  -2  -2  15 258.860 40.7862   1
   2  -2 -15 300.531 48.2957   1
  -2  -2 -15 263.139 46.2244   1
  -2   2  15 258.212 46.6395   1
   2   2 -15 305.996 41.8683   1
  -2   2 -15 314.685 40.1658   1
  -2   2 -16 21.3763 12.7803   1
  -2  -2 -16 11.4432 10.7652   1
  -2   2  16 25.7520 21.6450   1
   2  -2 -16 12.8271 15.4796   1
  -2  -2  16 25.2683 14.9679   1
   2   2 -16 39.2380 20.6271   1
  -2  -2 -17 96.9442 28.4551   1
  -2   2  17 77.4389 27.5844   1
  -2   2 -17 98.7668 26.4445   1
  -2  -2  17 83.5505 25.3312   1
   2   2 -17 67.2006 23.3798   1
   2  -2 -17 79.6996 27.0023   1
   2  -2 -18 259.015 48.6546   1
  -2   2 -18 229.069 39.8460   1
  -2   2  18 179.339 41.3672   1
  -2  -2 -18 235.928 45.9937   1
   2   2 -18 266.529 43.3703   1
  -2  -2  18 203.427 41.7472   1
   2  -2 -19 57.4405 23.8364   1
  -2   2 -19 35.9229 19.4499   1
   2   2 -19 34.7138 13.4911   1
   2   2  19 20.7883 17.0404   1
  -2  -2  19 30.7096 16.0931   1
  -2   2  19 16.1871 19.9287   1
  -2  -2 -19 31.9844 15.4235   1
   2  -2 -20 6.28867 14.5438   1
   2   2 -20 16.4809 11.5744   1
  -2   2 -20-12.5562 9.36285   1
  -2  -2 -20 30.1223 25.6796   1
   2   2  20-11.5783 12.1463   1
  -2  -2  20 15.3637 11.9548   1
  -2   2  20 1.61487 17.2058   1
   2   2 -21 514.600 64.4733   1
  -2   2  21 489.946 73.0209   1
   2   2  21 487.708 76.4211   1
  -2   2 -21 510.423 65.8724   1
  -2  -2  21 496.983 65.3061   1
  -2   2 -22 111.571 32.3311   1
  -2   2  22 133.159 39.8206   1
  -2  -2  22 149.606 38.6299   1
   2   2 -22 186.635 43.1951   1
   2   2  22 104.083 40.0266   1
  -2   2  23 23.6356 19.9774   1
  -2   2 -23 37.8430 28.8761   1
   2   2 -23-0.63692 10.1575   1
  -2  -2  23 25.1501 14.6619   1
   2   2  23 8.13337 18.5624   1
   2   2  24 62.5921 30.7039   1
   2   2 -24-12.1955 9.69190   1
  -2   2 -24-7.40121 14.0996   1
  -2   2  24 23.1488 26.1142   1
  -2  -2  24 11.8658 15.9514   1
  -2   2 -25 58.0597 25.5270   1
  -2   2  25 41.2303 24.8292   1
   2   2  25 85.9351 34.9883   1
  -2  -2  25 45.0081 22.1217   1
  -2   2  26 93.8910 35.9128   1
  -2  -2  26 126.526 41.4697   1
   2   2  26 82.9663 38.1003   1
   2   2  27 8.59057 14.1424   1
  -2   2  27 25.3730 19.7015   1
  -2  -2  27 41.5941 22.9530   1
  -2  -2  28 25.0935 11.8470   1
   2   2  28 32.1608 27.9300   1
  -2   2  28 7.46757 19.3026   1
  -2  -2  29 144.436 43.0268   1
  -2   2  29 152.575 50.6084   1
   2   2  29 79.9403 38.1556   1
  -2  -2  30 12.7077 20.1725   1
   2   2  30 35.3621 24.9284   1
  -2   2  30 11.3130 15.7223   1
  -2  -2  31 33.5620 25.4265   1
  -2   2  31 39.6109 28.7201   1
   2   2  31 43.7039 24.0661   1
  -2   2  32-55.2754 34.4642   1
   2   2  32 15.6400 30.7932   1
  -2  -2  32-8.63474 27.8708   1
  -2   2  33 127.498 46.8380   1
  -2  -2  33 195.225 52.8212   1
   2   2  33 124.806 45.2921   1
  -2   2  34 17.3291 20.4853   1
  -2  -2  34-7.11263 19.3488   1
   2   2  34-9.90028 23.8490   1
  -2   2  35 110.865 45.2034   1
   2   2  35 118.856 43.5682   1
  -2  -2  35 86.9542 40.2488   1
   2   2  36 9.68399 15.4980   1
  -2  -2  36 10.8226 17.2765   1
  -2   2  36 2.87894 13.1123   1
  -2   2  37 20.8851 25.2989   1
   2   2  37 58.2459 41.2123   1
  -2  -2  37 17.1067 16.1205   1
  -2   2  38-26.3566 34.4416   1
  -2  -2  38 22.2168 25.2589   1
  -2  -2  39-18.6848 13.2773   1
  -2   2  39-20.9857 24.9301   1
  -2   2  40-18.0653 20.3355   1
  -2  -2  40 16.8694 27.3909   1
  -2   2  41-18.7823 24.6379   1
  -2  -2  41-15.4266 17.2643   1
  -2   2  42 54.4943 30.5600   1
  -2  -2  42 5.30620 18.4638   1
  -2   2  43 20.0901 25.1565   1
  -2  -2  43 31.4035 22.6656   1
  -2   2  44 30.5687 33.4749   1
  -2  -2  44-33.3151 22.7119   1
  -2   2  45-17.5809 23.0711   1
  -2  -2  45 16.7845 17.8854   1
  -2  -2  46 52.9348 25.9067   1
  -2   2  46 69.2091 32.8009   1
  -2   2  47 40.2260 39.3339   1
  -2  -2  47 11.0838 29.6668   1
  -2  -2  48-58.9251 43.2965   1
  -2   2  48 111.802 52.9994   1
  -2  -2  49 36.9552 36.8228   1
  -2   2  49 47.0060 30.7868   1
  -2  -2  50 73.3300 49.3597   1
  -2   2  50 3.05070 23.3860   1
  -2   2  51 52.8290 35.5691   1
  -2  -2  51 14.6244 16.5870   1
  -2  -2  52-29.2535 34.0527   1
  -2   2  52 48.4528 26.2238   1
  -2  -2  53-14.0488 18.1224   1
  -2   2  53 53.3023 54.3617   1
  -2  -2  54 46.1699 31.9532   1
  -2   2  54 58.1046 49.2143   1
  -2  -2  55 14.0293 23.6486   1
  -2   2  55 27.4431 38.2249   1
  -2  -2  56 24.9906 35.4086   1
  -2  -2  57 11.2524 27.0530   1
  -2  -2  58 4.88056 34.0160   1
  -3   2   2 446.531 45.3387   1
  -3   2   3 221.431 32.2255   1
   3  -2  -4 809.374 65.3774   1
  -3   2   4 772.194 64.2339   1
  -3   2   5 65.5842 22.0717   1
   3  -2  -5 43.4666 18.5998   1
  -2  -3   6 104.845 19.8323   1
  -3   2   6 105.115 24.2309   1
   3  -2  -6 87.4670 24.5109   1
  -3   2   7 35.2879 13.5713   1
  -2  -3  -7 35.0171 15.9540   1
  -2  -3   7 49.6306 14.7574   1
   3  -2  -7 31.3608 15.9059   1
  -3   2   8 2136.15 116.400   1
  -2  -3   8 2132.75 85.0461   1
   3  -2  -8 2049.80 114.104   1
  -2  -3  -8 2070.66 107.230   1
  -2  -3   9 167.063 25.9002   1
  -2  -3  -9 176.625 30.8917   1
   3  -2  -9 212.211 39.7150   1
  -3   2   9 125.779 30.1961   1
  -2  -3 -10 149.037 27.5569   1
   2   3 -10 181.928 26.4083   1
  -3   2  10 158.642 37.9823   1
  -2  -3  10 152.235 25.4087   1
   3  -2 -10 179.547 36.7827   1
  -2  -3 -11 141.851 30.1585   1
  -3   2  11 118.344 29.9708   1
  -2  -3  11 109.151 21.4358   1
   3  -2 -11 125.747 30.9100   1
   2   3 -11 125.579 24.3989   1
   2   3 -12 673.998 53.5080   1
  -3   2  12 583.832 68.4349   1
  -2  -3  12 674.492 56.5161   1
   3  -2 -12 710.891 72.8615   1
  -2  -3 -12 687.331 69.9516   1
   2   3 -13 33.7714 12.9815   1
  -3   2  13 27.6899 18.9257   1
  -2  -3  13 21.8749 11.4229   1
   3  -2 -13 73.3630 28.1400   1
  -2  -3 -13 34.2732 14.9677   1
  -2  -3 -14 71.2011 25.9687   1
   3  -2 -14 57.6975 26.0811   1
  -2  -3  14 41.0344 15.0049   1
   2   3 -14 70.7671 19.5867   1
  -3   2  14 68.2257 25.7062   1
   3  -2 -15-9.52744 15.0543   1
  -3   2  15-5.37648 13.7069   1
  -2  -3 -15 2.15520 15.1978   1
   2   3 -15 15.9040 12.7339   1
  -2  -3  15 4.76439 9.74675   1
  -2  -3 -16 168.624 40.4080   1
   3  -2 -16 182.172 39.8535   1
  -3   2 -16 161.532 34.9915   1
   2   3 -16 151.165 29.2969   1
  -3   2  16 165.308 41.2567   1
  -2  -3  16 151.234 32.1809   1
   2   3 -17 29.5945 17.2397   1
  -2  -3  17 12.5579 9.54150   1
  -2  -3 -17 37.7223 20.3939   1
   3  -2 -17 26.1161 22.2067   1
  -3   2  17 19.5100 11.9986   1
  -3   2 -17 17.1223 18.9165   1
  -2  -3  18 43.7687 18.1914   1
  -3   2 -18 57.0189 23.0944   1
   3  -2 -18 55.7287 29.8630   1
  -2  -3 -18 63.5316 27.3107   1
  -3   2  18 68.1381 30.2052   1
   2   3 -18 62.2358 23.1818   1
   2   3  18 49.9438 24.1231   1
   2   3  19 58.9960 30.1462   1
  -2  -3  19 27.0695 14.8572   1
  -2  -3 -19 70.0127 31.0048   1
  -3   2 -19 43.8811 18.1504   1
   3  -2 -19 22.0103 21.9560   1
   2   3 -19 78.8760 25.8858   1
  -3   2  19 30.3156 15.3710   1
  -2  -3  20 125.570 31.1049   1
  -3   2 -20 120.107 33.6949   1
   2   3  20 95.9699 31.6929   1
   2   3 -20 97.2375 27.8549   1
  -3   2  20 125.219 39.5034   1
  -2  -3  21 1.11879 12.0533   1
  -3   2  21-4.97422 19.2734   1
   2   3 -21 17.1817 15.6571   1
   2   3  21 13.9624 14.4390   1
  -3   2 -21 14.9579 15.2910   1
  -2  -3  22-8.20801 18.0521   1
  -3   2 -22 9.17049 14.7637   1
   2   3 -22 13.9068 19.6544   1
   2   3  22-20.4664 20.9672   1
  -3   2  22-7.23294 10.0461   1
  -3   2 -23 97.6457 34.4285   1
  -2  -3  23 92.1284 25.0717   1
  -3   2  23 95.2075 31.4260   1
   2   3  23 69.8891 33.5463   1
   2   3 -23 99.1171 28.7772   1
  -2  -3  24 112.501 36.6066   1
  -3   2  24 124.913 40.6288   1
   2   3  24 135.356 46.4548   1
   2   3 -24 96.8696 28.4426   1
   2   3 -25 100.662 29.8416   1
  -2  -3  25 65.8953 28.1371   1
   2   3  25 86.4182 39.0855   1
  -3   2  25 80.4717 34.7095   1
   2   3 -26-2.89382 16.4424   1
  -2  -3  26 15.6864 17.2630   1
  -3   2  26 30.1896 25.6460   1
   2   3  26-16.8391 20.7537   1
   2   3  27 12.5870 13.8802   1
  -3   2  27-2.61389 13.5299   1
  -2  -3  27 21.4193 24.3351   1
  -3   2  28 14.3143 23.5409   1
   2   3  28 31.3238 24.3481   1
  -2  -3  28 21.3002 21.7718   1
  -3   2  29 12.0599 16.1420   1
  -2  -3  29 36.9905 23.4793   1
   2   3  29 2.20513 22.8917   1
  -2  -3  30-9.32002 13.7721   1
   2   3  30-6.17862 28.3809   1
  -3   2  30-5.51173 16.0028   1
   2   3  31 111.694 48.5819   1
  -3   2  31 84.6362 38.2955   1
  -2  -3  31 85.4904 35.1812   1
  -2  -3  32-0.06464 10.7396   1
   2   3  32 1.04122 21.0635   1
  -3   2  32 2.84749 17.7933   1
   2   3  33 62.7207 42.0536   1
  -2  -3  33 53.3625 32.3895   1
  -3   2  33 88.0072 39.9317   1
  -2  -3  34-11.7555 20.4310   1
  -3   2  34 41.4404 25.5327   1
   2   3  34 55.1411 34.6663   1
  -3   2  35-28.4700 36.9773   1
   2   3  35 13.9014 33.0888   1
  -2  -3  35 8.07157 22.7131   1
  -2  -3  36 20.7747 26.4205   1
   2   3  36 24.8829 22.5724   1
  -3   2  36 6.08663 24.9852   1
  -3   2  37 48.4159 43.3386   1
  -2  -3  37 54.2518 38.1965   1
   2   3  37 3.30304 22.2083   1
  -2  -3  38 10.5977 12.5152   1
  -3   2  38 7.21512 23.5362   1
  -2  -3  39 21.0638 24.6401   1
  -3   2  39 20.3775 18.5303   1
  -2  -3  40 13.3040 18.0044   1
  -3   2  40-5.67798 15.5042   1
  -3   2  41 47.5368 36.0155   1
  -2  -3  41 44.9563 33.6849   1
  -3   2  42 90.8933 50.3660   1
  -2  -3  42-14.2519 17.6297   1
  -2  -3  43 14.0148 27.5784   1
  -3   2  43 33.1879 38.5091   1
  -3   2  44 85.3154 39.2407   1
  -2  -3  44 36.3830 38.3087   1
  -3   2  45 25.4332 21.5281   1
  -2  -3  45 27.5294 37.6081   1
  -2  -3  46 17.1179 27.2639   1
  -3   2  46-0.20483 33.6307   1
  -3   2  47 30.5971 26.3160   1
  -2  -3  47 12.7262 14.2700   1
  -2  -3  48 5.63627 17.7233   1
  -3   2  48-14.0050 16.3043   1
  -3   2  49-37.6805 39.1895   1
  -2  -3  49 27.8723 34.2077   1
  -3   2  50 62.2762 45.9652   1
  -2  -3  50 32.1592 40.9231   1
  -2  -3  51-18.4465 29.3447   1
  -3   2  51 39.0824 26.5807   1
  -2  -3  52-18.8373 31.1132   1
  -3   2  52 98.5560 53.6268   1
  -2  -3  53-4.96468 27.3449   1
  -3   2  53 22.4288 42.5805   1
  -3   2  54-2.37018 25.2604   1
  -2  -3  54-34.8269 42.2231   1
  -2  -3  55-18.0093 26.9283   1
  -2  -3  56-1.13795 48.0231   1
  -2  -3  57 35.6235 35.0025   1
  -2  -3  58-50.3584 41.6310   1
  -1  -3  -2 532.390 37.2653   1
  -3   1   3 38.8806 14.1619   1
  -1  -3  -3 25.4710 10.7176   1
  -1  -3  -4 54.0311 14.5103   1
  -3   1   4 70.2986 23.4496   1
  -1  -3  -5 446.669 41.1694   1
  -1  -3   5 446.744 25.5718   1
   3  -1  -5 410.077 48.4386   1
  -3   1   5 411.227 46.8912   1
   3  -1  -6 556.198 56.0560   1
   1   3   6 590.272 51.3959   1
  -3   1   6 577.311 56.6814   1
  -1  -3  -6 661.846 52.5162   1
  -1  -3   6 638.363 32.3502   1
  -1  -3  -7 26.4064 12.6892   1
   3  -1  -7 49.4045 13.2277   1
   1   3   7 47.6094 18.3571   1
  -1  -3   7 55.3633 9.67885   1
  -3   1   7 47.3189 21.1882   1
   1   3  -8 82.9258 14.5416   1
  -1  -3  -8 57.8339 18.4359   1
  -3   1   8 59.9821 23.2267   1
   3  -1  -8 39.6969 14.4571   1
  -1  -3   8 74.0960 13.6929   1
   1   3   8 84.9107 23.8052   1
   1   3  -9 8.70993 6.47665   1
  -3   1   9 9.21874 12.7793   1
   1   3   9 23.1849 16.8690   1
   3  -1  -9 6.27320 12.8006   1
  -1  -3  -9 1.81621 11.0967   1
  -1  -3   9 0.56172 5.80857   1
  -3   1  10 506.816 61.7411   1
  -1  -3  10 586.675 41.7694   1
   3  -1 -10 554.161 63.2912   1
   1   3 -10 615.227 42.3815   1
  -1  -3 -10 588.263 58.6765   1
   1   3  10 589.404 59.3527   1
   1   3 -11 229.143 26.5994   1
  -1  -3  11 235.877 28.5406   1
  -3   1  11 250.842 43.1202   1
   1   3  11 224.420 39.4856   1
  -1  -3 -11 259.468 39.6644   1
   3  -1 -11 258.728 42.8371   1
   3  -1 -12 5.72016 13.9842   1
   1   3  12 9.99564 14.6039   1
  -3   1  12 8.46788 16.3474   1
  -1  -3  12 16.7355 8.39314   1
  -1  -3 -12 4.68506 11.3482   1
   1   3 -12 14.5106 8.83159   1
  -1  -3 -13 94.7360 29.5004   1
   1   3  13 61.8895 19.7609   1
   1   3 -13 70.0156 17.3933   1
   3  -1 -13 84.7483 26.2953   1
  -3   1  13 80.5004 27.4631   1
  -1  -3  13 50.6751 15.4763   1
  -1  -3 -14 79.2257 28.0003   1
  -1  -3  14 57.9459 17.0725   1
  -3   1  14 51.4830 22.6690   1
   1   3 -14 113.543 24.0994   1
   3  -1 -14 75.5155 24.1722   1
   1   3  14 78.2517 27.8331   1
  -1  -3 -15 197.056 38.7636   1
  -1  -3  15 197.655 31.8479   1
   1   3  15 135.466 34.0155   1
  -3   1 -15 153.551 31.6766   1
   1   3 -15 172.970 28.4530   1
   3  -1 -15 236.311 43.8669   1
  -3   1  15 138.358 36.5270   1
   1   3 -16 62.2874 18.1017   1
  -1  -3 -16 83.4752 26.5354   1
  -3   1 -16 71.5104 20.5224   1
  -1  -3  16 50.1012 13.5020   1
   1   3  16 65.0974 26.1577   1
   3  -1 -16 62.0434 24.4330   1
  -3   1  16 44.1607 17.5567   1
  -3   1  17 90.3636 33.3036   1
  -3   1 -17 164.142 36.9265   1
   1   3  17 149.041 37.8060   1
   1   3 -17 131.797 27.2539   1
  -1  -3  17 173.242 32.5107   1
   3  -1 -17 195.829 46.1489   1
  -1  -3 -17 159.753 36.2779   1
   3  -1 -18 43.3145 24.6011   1
  -1  -3  18 53.3174 22.8074   1
  -3   1  18 66.9090 29.5162   1
  -3   1 -18 73.2262 21.3092   1
  -1  -3 -18 40.5668 12.6642   1
   1   3 -18 70.3169 23.0213   1
   1   3  18 44.9106 22.7476   1
   1   3 -19 136.185 30.9220   1
  -1  -3 -19 138.664 38.6961   1
   1   3  19 87.9696 24.7161   1
  -3   1 -19 140.883 37.2802   1
  -1  -3  19 129.888 30.4727   1
   3  -1 -19 125.806 36.0190   1
  -3   1  19 125.555 35.4526   1
  -3   1  20 53.9522 28.3537   1
  -3   1 -20 60.9022 23.2224   1
   1   3 -20 66.3324 20.1238   1
  -1  -3  20 85.1980 26.2491   1
   1   3  20 63.5294 23.7641   1
   3  -1 -20 69.0434 34.5081   1
   1   3 -21 140.811 29.6184   1
  -3   1 -21 133.334 36.0655   1
  -3   1  21 153.046 41.8144   1
   1   3  21 135.253 40.9422   1
  -1  -3  21 122.033 30.8009   1
   1   3  22 134.834 43.2088   1
  -1  -3  22 85.5374 28.8837   1
  -3   1  22 104.754 36.6536   1
  -3   1 -22 125.553 35.8699   1
   1   3 -22 99.6682 26.9108   1
   1   3  23 151.909 44.5574   1
   1   3 -23 163.081 38.4280   1
  -3   1  23 152.175 44.4385   1
  -1  -3  23 162.130 39.3281   1
   1   3  24 74.2699 30.5601   1
   1   3 -24 78.0918 26.4871   1
  -3   1  24 46.2015 21.7031   1
  -1  -3  24 69.9883 25.8365   1
   1   3  25 85.3774 37.5711   1
   1   3 -25 143.361 39.4661   1
  -3   1  25 63.1702 33.2335   1
  -1  -3  25 82.6585 24.9834   1
  -1  -3  26 52.7292 28.2125   1
  -3   1  26 26.7795 20.6367   1
   1   3 -26 47.9618 21.6709   1
   1   3  26 55.6300 29.6956   1
   1   3  27 78.7846 37.2499   1
  -3   1  27 98.3325 37.5800   1
  -1  -3  27 89.6486 31.9569   1
  -3   1  28-17.6475 28.7182   1
   1   3  28 50.4930 26.7779   1
  -1  -3  28 9.43586 11.8793   1
   1   3  29 94.8377 39.7405   1
  -3   1  29 93.6430 40.4681   1
  -1  -3  29 100.632 38.0333   1
   1   3  30 43.1652 26.9185   1
  -3   1  30 79.9566 39.8231   1
  -1  -3  30 56.9887 26.6778   1
   1   3  31 128.826 48.2773   1
  -1  -3  31 146.191 45.8296   1
  -3   1  31 167.758 56.5564   1
  -1  -3  32 10.6775 9.95398   1
   1   3  32-13.6541 20.4869   1
  -3   1  32-19.5455 29.6679   1
   1   3  33 247.137 70.2194   1
  -1  -3  33 216.127 52.9563   1
  -3   1  33 228.199 64.5777   1
  -1  -3  34-14.4267 15.1498   1
   1   3  34-11.5342 22.1199   1
  -3   1  34-12.2688 15.1252   1
  -1  -3  35 2.33194 13.1647   1
  -3   1  35 11.8587 22.0811   1
   1   3  35 54.2950 38.3171   1
  -3   1  36 21.5909 23.5204   1
  -1  -3  36 3.73918 20.6186   1
   1   3  36 45.8603 25.2065   1
  -1  -3  37 103.727 37.7349   1
   1   3  37 68.3716 39.0956   1
  -3   1  37 75.2883 34.5714   1
  -3   1  38 0.72628 23.9705   1
   1   3  38-1.07610 26.1909   1
  -1  -3  38-6.27298 12.8002   1
   1   3  39 105.973 54.3839   1
  -3   1  39 134.885 48.9961   1
  -1  -3  39 148.027 53.0927   1
  -3   1  40 53.9376 38.9655   1
   1   3  40-47.3367 33.2703   1
  -1  -3  40-5.48121 17.5742   1
  -1  -3  41 76.6915 43.0318   1
  -3   1  41 89.7874 55.0407   1
   1   3  41 71.4685 38.8141   1
  -1  -3  42 72.8760 40.4443   1
   1   3  42 30.2531 22.7876   1
  -3   1  42 45.2366 36.2247   1
   1   3  43 56.4122 31.8808   1
  -1  -3  43 92.2179 39.9381   1
  -3   1  43 16.4556 21.7746   1
  -1  -3  44-23.6826 15.7063   1
   1   3  44 3.65394 22.4464   1
  -3   1  44-27.0098 26.4300   1
  -1  -3  45 25.3546 26.4277   1
   1   3  45 75.4362 39.5046   1
  -3   1  45 18.3758 36.6342   1
   1   3  46 18.3306 29.2065   1
  -1  -3  46 1.97426 14.7740   1
  -3   1  46 91.9520 52.4465   1
   1   3  47 17.9948 30.1422   1
  -1  -3  47 45.7429 37.4800   1
  -3   1  47 112.570 53.0058   1
  -1  -3  48 23.1617 21.9758   1
   1   3  48 60.9348 39.8180   1
  -3   1  48 107.343 55.7200   1
  -1  -3  49 63.1339 46.3213   1
   1   3  49 19.1242 23.4329   1
  -3   1  49 82.9927 46.1281   1
  -3   1  50 108.915 63.6711   1
  -1  -3  50 50.2330 25.7093   1
  -3   1  51-13.5490 35.5262   1
  -1  -3  51 75.8963 43.8195   1
  -1  -3  52 9.27408 26.4180   1
  -3   1  52-2.14625 22.5065   1
  -3   1  53 12.2536 28.4757   1
  -1  -3  53 28.3044 35.9924   1
  -3   1  54 35.4918 46.0053   1
  -1  -3  54 10.4342 33.6865   1
  -3   1  55-30.5500 29.1777   1
  -1  -3  55-24.6362 37.6089   1
  -1  -3  56-2.07358 30.7490   1
   0   3   0 2.51996 4.16214   1
   0  -3   0-9.37454 5.95209   1
   0  -3  -1 374.714 25.4354   1
   0   3   1 351.961 24.1800   1
   0  -3  -2-0.00389 6.25735   1
   0   3   2-3.85255 7.77292   1
   0  -3  -3 3.41124 5.67162   1
   0   3   3 2.76929 5.96389   1
   0   3   4 64.3189 16.1088   1
   0  -3  -4 73.6135 15.3558   1
  -3   0   4 40.4933 19.9907   1
   0   3   5 13.6495 6.28287   1
  -3   0   5 14.2011 9.55354   1
   0  -3  -5 22.9770 10.6937   1
   0  -3  -6 113.291 23.3203   1
  -3   0   6 75.9326 19.3506   1
   0   3   6 118.404 23.3108   1
   0  -3  -7 150.838 26.9953   1
  -3   0   7 132.446 27.0644   1
   0   3   7 140.877 24.9553   1
   3   0  -7 149.756 29.5662   1
   3   0  -8 12.0221 15.0434   1
   0  -3   8 17.7423 7.63119   1
   0  -3  -8-13.3485 11.0732   1
  -3   0   8 11.8677 13.5556   1
   0   3  -8 7.31952 5.93727   1
   0   3   8-5.80040 10.4791   1
   3   0  -9 11.7694 11.1534   1
   0  -3  -9 0.38571 11.0004   1
   0   3  -9 19.4594 7.31014   1
  -3   0   9 20.7061 17.0103   1
   0   3   9-0.21836 9.86027   1
   0  -3   9 20.0348 7.83371   1
   3   0 -10 210.515 37.2095   1
  -3   0  10 217.308 39.1054   1
   0   3 -10 201.484 22.1675   1
   0   3  10 186.781 35.0572   1
   0  -3 -10 213.244 32.9630   1
   0  -3  10 194.217 21.4931   1
   0   3 -11 55.6728 15.3396   1
   0  -3 -11 13.8385 14.8425   1
   0   3  11 18.8636 12.1867   1
   0  -3  11 20.3474 10.1379   1
  -3   0  11 65.9950 25.0871   1
   3   0 -11 22.7472 16.8921   1
   0  -3  12 586.599 44.8767   1
   0   3 -12 647.115 45.8463   1
   3   0 -12 606.298 64.5471   1
   0   3  12 573.734 63.0635   1
   0  -3 -12 602.877 62.0583   1
  -3   0  12 538.235 61.9534   1
   0  -3 -13 395.161 53.2009   1
   0   3  13 366.121 53.6240   1
   0  -3  13 385.922 37.6214   1
   0   3 -13 405.783 38.5614   1
  -3   0  13 343.790 50.1323   1
   3   0 -13 385.046 52.3294   1
   0   3 -14 11.5297 6.49610   1
   3   0 -14 9.96050 9.23942   1
   0  -3 -14 16.3367 20.0791   1
   0  -3  14 42.1881 16.5274   1
   0   3  14 3.69082 9.86777   1
  -3   0  14 10.9698 16.7123   1
  -3   0 -15 249.693 43.9235   1
  -3   0  15 166.102 37.1703   1
   0  -3 -15 272.218 46.6037   1
   3   0 -15 237.680 42.5495   1
   0   3 -15 247.893 33.9359   1
   0   3  15 254.684 43.9588   1
   0  -3  15 221.465 32.0208   1
   3   0 -16 135.500 36.7250   1
  -3   0  16 69.1059 27.3922   1
   0  -3 -16 143.349 36.1334   1
   0  -3  16 89.2988 23.6023   1
   0   3 -16 117.750 24.3943   1
   0   3  16 102.840 32.5441   1
  -3   0 -16 118.555 32.9036   1
   0  -3 -17 408.048 60.5881   1
  -3   0 -17 383.395 56.7116   1
   0  -3  17 371.322 45.7408   1
   0   3 -17 375.009 45.3658   1
  -3   0  17 412.651 59.7079   1
   3   0 -17 397.064 58.9278   1
   0   3  17 379.477 59.4709   1
   0   3  18 16.0561 14.5454   1
   0   3 -18 8.55459 7.28305   1
   0  -3  18 20.2352 8.87278   1
  -3   0 -18 1.75107 11.5386   1
   3   0 -18 33.9534 17.7724   1
   0  -3 -18-3.05734 9.51258   1
  -3   0  18 16.6056 14.3834   1
  -3   0 -19 146.712 39.2679   1
   0   3 -19 128.744 29.0269   1
  -3   0  19 142.764 36.9254   1
   0  -3  19 129.885 29.4188   1
   0   3  19 133.772 36.6733   1
   3   0 -19 158.932 35.3913   1
   0  -3 -19 167.570 42.0747   1
   3   0 -20 46.7383 28.0697   1
   0   3 -20 16.9085 14.1119   1
  -3   0  20 39.7870 25.5609   1
   0  -3  20 16.1602 13.7655   1
  -3   0 -20 22.6552 13.1651   1
   0  -3 -20 18.5172 17.2421   1
   0   3  20 9.97135 14.7561   1
   3   0 -21 74.4135 21.3563   1
   0   3 -21 94.6331 25.4357   1
  -3   0 -21 116.965 36.2321   1
   0  -3  21 87.3690 27.0883   1
  -3   0  21 53.9370 21.2528   1
   0   3  21 101.857 37.1963   1
   0   3  22 25.7934 25.8485   1
  -3   0  22 28.5654 18.1702   1
   0   3 -22 20.6026 16.6593   1
   0  -3  22 2.56282 15.2354   1
   0   3  23 101.261 41.3122   1
   0   3 -23 69.6541 24.6507   1
   0  -3  23 50.2348 23.9165   1
  -3   0  23 70.1721 32.3222   1
   0   3 -24 28.1108 15.2510   1
   0  -3  24-35.7178 23.2949   1
   0   3  24-6.16187 16.4864   1
  -3   0  24 17.8265 12.2152   1
   0   3 -25 264.990 48.8332   1
   0   3  25 280.000 60.9278   1
   0  -3  25 246.822 48.8482   1
  -3   0  25 301.737 63.0835   1
   0   3 -26-0.20797 17.9884   1
   0  -3  26-17.1553 16.7530   1
   0   3  26 5.04938 18.3101   1
  -3   0  26 5.24924 20.4248   1
   0  -3  27 89.1702 33.1066   1
   0   3  27 57.1549 33.5545   1
   0   3 -27 58.7825 25.3577   1
  -3   0  27 67.0472 31.8998   1
   0  -3  28-1.53754 12.3995   1
  -3   0  28 19.5807 16.5275   1
   0   3  28 40.4731 29.4835   1
   0  -3  29 121.051 38.5594   1
  -3   0  29 107.718 41.0786   1
   0   3  29 107.620 38.3648   1
   0   3  30-14.1696 13.9929   1
  -3   0  30-9.73495 21.3457   1
   0  -3  30 17.3033 19.9628   1
   0  -3  31 348.333 65.1459   1
  -3   0  31 379.170 74.8440   1
   0   3  31 362.477 77.1084   1
  -3   0  32-2.92128 14.5189   1
   0   3  32-3.72132 14.4202   1
   0  -3  32 12.8550 24.7536   1
   0   3  33 158.404 51.1342   1
   0  -3  33 156.778 48.7127   1
  -3   0  33 115.904 45.0581   1
  -3   0  34 8.01958 18.5239   1
   0  -3  34 2.65282 13.3637   1
   0   3  34-3.71916 16.5612   1
   0   3  35 143.697 49.9652   1
   0  -3  35 133.225 47.8291   1
  -3   0  35 117.474 45.2152   1
   0   3  36 26.7217 36.5706   1
   0  -3  36-20.5830 22.6870   1
  -3   0  36 50.9999 39.1502   1
   0  -3  37 79.0525 35.5853   1
  -3   0  37 108.135 44.0275   1
   0   3  37 71.7940 35.9949   1
   0  -3  38 40.4927 28.6839   1
   0   3  38 22.4307 13.2697   1
  -3   0  38 73.0181 38.5736   1
   0   3  39 216.845 69.8989   1
   0  -3  39 241.287 62.7424   1
  -3   0  39 143.993 51.6629   1
  -3   0  40-38.3445 40.0421   1
   0   3  40-44.3104 35.5978   1
   0  -3  40 19.1557 17.6796   1
  -3   0  41 119.386 51.5425   1
   0  -3  41 104.191 45.5240   1
   0   3  41 110.002 51.6547   1
   0  -3  42-48.6492 34.8173   1
  -3   0  42 18.5345 19.0063   1
   0   3  42-16.5671 29.7143   1
  -3   0  43 75.9009 42.6914   1
   0  -3  43 95.4457 45.3198   1
   0   3  43 69.1114 39.4808   1
   0   3  44 43.1846 33.5607   1
   0  -3  44 48.8208 36.7574   1
  -3   0  44-4.45322 16.1094   1
   0   3  45 78.0797 57.9564   1
  -3   0  45 64.5541 31.9206   1
   0  -3  45 69.1887 34.8638   1
   0   3  46-4.75143 18.5771   1
   0  -3  46-30.4776 28.4063   1
  -3   0  46-48.5480 44.6627   1
  -3   0  47 29.1062 18.3533   1
   0  -3  47 50.6824 30.7123   1
   0   3  47 50.3971 34.4690   1
   0   3  48 18.7329 44.7959   1
  -3   0  48 49.7090 28.6452   1
   0  -3  48 13.4854 30.4208   1
   0  -3  49 78.6926 35.3370   1
  -3   0  49 154.439 60.7158   1
   0   3  49 52.4411 26.0591   1
  -3   0  50 14.7734 19.3730   1
   0   3  50 36.2823 40.6842   1
  -3   0  51 85.3563 41.6967   1
   0   3  51 86.2556 54.9887   1
  -3   0  52 19.2032 23.1489   1
   0   3  52 74.5794 45.1308   1
   0   3  53 49.2848 32.8532   1
  -3   0  53 16.2118 32.6029   1
  -3   0  54 5.11346 48.0505   1
   0   3  54-94.4709 70.4753   1
  -3   0  55-38.4224 34.7433   1
  -3   0  56 10.6009 35.5692   1
  -1   3   0 256.772 22.4026   1
   1  -3   0 259.255 22.2021   1
   1  -3  -1 785.681 42.2809   1
  -1   3   1 770.714 41.9950   1
  -1   3  -1 893.275 38.0588   1
   1  -3   1 841.618 36.6265   1
  -1   3   2 510.146 36.4927   1
   1  -3  -2 546.576 38.4242   1
  -1   3  -2 580.563 28.5821   1
  -1   3   3 47.9368 12.2272   1
   1  -3  -3 38.9850 13.5936   1
  -1   3   4 43.1802 13.2861   1
   1  -3  -4 46.2419 15.4269   1
   1  -3  -5 490.955 42.5829   1
  -3  -1   5 422.662 45.3987   1
  -1   3   5 442.131 42.2170   1
  -1   3   6 606.621 50.8610   1
  -3  -1   6 505.625 51.2819   1
   1  -3  -6 638.042 51.1997   1
  -3  -1   7 70.4627 23.8035   1
   1  -3  -7 49.9483 13.8388   1
  -1   3   7 31.7080 10.5112   1
   3   1  -8 61.4432 16.8809   1
  -1   3  -8 60.6703 11.8192   1
   1  -3  -8 57.4729 19.3992   1
  -1   3   8 68.2920 23.1841   1
  -3  -1   8 74.9945 25.0412   1
   3   1  -9 29.0980 15.4388   1
  -3  -1   9-4.10647 9.78609   1
   1  -3  -9-0.83579 12.7266   1
  -1   3  -9 16.3549 9.43447   1
  -1   3   9 23.4316 15.4244   1
   1  -3 -10 571.781 58.9022   1
   3   1 -10 551.200 56.3872   1
  -3  -1  10 537.318 58.4029   1
  -1   3 -10 564.591 40.4867   1
  -1   3  10 612.333 61.9516   1
  -1   3  11 236.864 38.4821   1
   3   1 -11 202.500 34.2331   1
   1  -3 -11 235.042 39.0469   1
  -1   3 -11 270.059 30.1138   1
  -3  -1  11 226.380 39.1015   1
   3   1 -12 20.0648 17.4784   1
  -3  -1  12 12.2939 14.8153   1
  -1   3 -12 20.4104 11.2632   1
   1  -3 -12 10.8079 11.4214   1
  -1   3  12 6.98627 11.5305   1
   3   1 -13 103.792 28.4911   1
  -3  -1  13 38.4977 15.5598   1
  -1   3 -13 53.6448 14.5555   1
   1  -3 -13 51.8368 20.4940   1
  -1   3  13 13.9475 11.9504   1
  -3  -1 -14 82.8404 26.9999   1
   1  -3 -14 67.2074 21.5102   1
   3   1 -14 82.8469 24.3644   1
  -1   3  14 67.0142 26.7495   1
  -3  -1  14 72.1143 25.6578   1
  -1   3 -14 59.4816 16.1996   1
  -1   3 -15 169.133 29.2580   1
  -3  -1 -15 146.919 34.6431   1
   3   1 -15 147.429 35.4561   1
  -3  -1  15 182.562 36.6882   1
   1  -3 -15 180.533 39.4203   1
  -1   3  15 159.199 34.9624   1
   3   1 -16 64.7508 23.6515   1
   1  -3 -16 86.2141 29.0936   1
  -3  -1  16 31.8267 15.8726   1
  -1   3 -16 49.7504 14.3710   1
  -3  -1 -16 44.6637 11.5589   1
  -1   3  16 58.1122 23.0906   1
  -3  -1 -17 177.833 43.7355   1
   1  -3 -17 128.503 29.7208   1
   3   1 -17 135.449 35.4834   1
  -1   3 -17 160.086 29.2329   1
  -3  -1  17 132.339 34.3639   1
  -1   3  17 132.653 36.2534   1
  -1   3 -18 52.1642 18.2439   1
  -3  -1 -18 42.5541 23.4820   1
  -3  -1  18 71.9817 28.1629   1
   1  -3 -18 81.3152 25.1912   1
   3   1 -18 77.0259 29.1238   1
   1  -3  18 61.5558 21.8563   1
  -1   3  18 29.6825 15.0232   1
   3   1 -19 163.970 40.2421   1
  -1   3 -19 172.475 35.0577   1
  -3  -1  19 117.806 34.3851   1
   1  -3  19 123.563 29.1049   1
   1  -3 -19 181.377 42.9429   1
  -3  -1 -19 129.954 38.2445   1
  -1   3  19 140.508 39.5442   1
  -3  -1  20 55.1923 25.7645   1
  -1   3 -20 68.5668 21.4049   1
  -3  -1 -20 88.4655 33.4355   1
  -1   3  20 60.2267 31.1123   1
   3   1 -20 33.7317 18.8990   1
   1  -3  20 67.4238 24.7597   1
  -1   3  21 127.847 39.3357   1
   1  -3  21 139.223 32.8819   1
   3   1 -21 199.218 45.7881   1
  -1   3 -21 150.189 35.5711   1
  -3  -1  21 127.575 36.2756   1
   1  -3  22 93.0826 27.9121   1
  -3  -1  22 74.4299 24.5496   1
   3   1 -22 119.099 29.7747   1
  -1   3 -22 88.7687 24.0982   1
  -1   3  22 77.0394 31.6590   1
  -3  -1  23 116.439 40.9623   1
   1  -3  23 207.083 45.8854   1
  -1   3 -23 191.468 38.5814   1
  -1   3  23 154.998 46.1570   1
   1  -3  24 66.3102 29.0153   1
  -1   3  24 93.1562 40.1527   1
  -1   3 -24 66.0177 18.2664   1
  -3  -1  24 39.3474 21.5628   1
  -1   3  25 89.0378 36.5581   1
  -1   3 -25 78.2635 26.6045   1
   1  -3  25 63.0318 22.2474   1
  -3  -1  25 72.1551 30.9352   1
  -1   3  26 56.0181 26.4417   1
  -3  -1  26 64.3168 33.3715   1
  -1   3 -26 59.1033 18.9545   1
   1  -3  26 67.6953 27.7188   1
   1  -3  27 83.1105 31.9432   1
  -3  -1  27 91.9853 33.7399   1
  -1   3  27 70.5573 35.9708   1
   1  -3  28 11.5767 12.6355   1
  -1   3  28 3.72415 16.0135   1
  -3  -1  28 25.5776 32.3510   1
  -3  -1  29 150.698 50.0005   1
   1  -3  29 125.721 41.5527   1
  -1   3  29 110.419 38.6224   1
   1  -3  30 44.9235 25.1135   1
  -1   3  30 38.9538 35.4331   1
  -3  -1  30 56.7369 29.2541   1
   1  -3  31 146.526 41.0272   1
  -1   3  31 135.746 51.4106   1
  -3  -1  31 147.376 46.0322   1
  -1   3  32 40.9268 34.8930   1
   1  -3  32 25.4860 16.2242   1
  -3  -1  32-2.15978 19.5070   1
   1  -3  33 223.141 58.7401   1
  -1   3  33 223.711 66.9669   1
  -3  -1  33 247.195 61.7743   1
  -1   3  34 20.1889 27.1982   1
  -3  -1  34 11.5827 24.1420   1
   1  -3  34-5.54474 22.3820   1
   1  -3  35 31.6121 19.4344   1
  -1   3  35 24.4710 20.5870   1
  -3  -1  35 6.63044 16.9157   1
  -1   3  36-59.5564 41.1673   1
   1  -3  36 48.0199 30.5450   1
  -3  -1  36 47.5618 33.0047   1
   1  -3  37 125.340 46.4433   1
  -3  -1  37 95.5910 41.8546   1
  -1   3  37 84.5235 46.4135   1
  -1   3  38-12.8796 24.6238   1
  -3  -1  38-7.65532 27.5553   1
  -3  -1  39 116.026 48.7983   1
  -1   3  39 109.563 44.5291   1
  -3  -1  40-8.96183 24.3673   1
  -1   3  40-0.41552 27.9539   1
  -1   3  41 83.9120 46.1833   1
  -3  -1  41 26.1575 21.4970   1
  -1   3  42 0.66085 22.5187   1
  -3  -1  42 16.3983 20.1374   1
  -3  -1  43 104.332 41.3966   1
  -1   3  43 42.1292 36.2023   1
  -1   3  44 24.6058 28.6975   1
  -3  -1  44-27.9440 32.0449   1
  -1   3  45 42.5758 41.2259   1
  -3  -1  45 6.96229 20.1146   1
  -1   3  46-23.4275 26.9308   1
  -3  -1  46 60.3054 42.7182   1
  -3  -1  47 5.51578 14.8537   1
  -1   3  47 48.5790 30.8808   1
  -1   3  48-34.2880 41.7243   1
  -3  -1  48-8.28836 17.4117   1
  -3  -1  49-0.40759 25.2394   1
  -1   3  49 22.8253 25.0774   1
  -3  -1  50 4.69033 23.2400   1
  -1   3  50-5.40167 19.3894   1
  -1   3  51 14.0973 39.0332   1
  -3  -1  51 5.07552 18.9113   1
  -3  -1  52-24.4667 34.0853   1
  -1   3  52 35.6848 46.0050   1
  -3  -1  53 21.5772 26.9740   1
  -1   3  53 0.93996 24.1634   1
  -1   3  54-59.9212 49.5901   1
  -3  -1  54 61.0236 45.2836   1
  -3  -1  55-11.8793 24.4533   1
  -3  -1  56-67.8977 48.9000   1
  -3  -1  57 37.9561 31.7566   1
  -2   3   0 813.240 51.1767   1
  -2   3   1 193.876 28.1558   1
  -2   3  -1 205.620 24.5679   1
   2  -3  -1 203.094 28.2772   1
   2  -3  -2 521.345 42.4479   1
  -2   3   2 498.099 43.1249   1
  -2   3   3 243.945 29.8609   1
   2  -3  -3 236.613 32.4775   1
   2  -3  -4 891.905 59.8688   1
  -2   3   4 880.306 59.1482   1
  -2   3   5 72.4418 20.3892   1
   2  -3  -5 77.6362 19.0643   1
  -2   3   6 116.787 26.6631   1
  -3  -2   6 97.7030 25.9350   1
   2  -3  -6 130.596 24.2084   1
   2  -3  -7 51.3617 17.8690   1
  -3  -2   7 29.9846 13.9811   1
  -2   3   7 45.7130 21.4415   1
  -2   3   8 2093.84 108.495   1
   2  -3  -8 2238.84 109.526   1
  -3  -2   8 1903.02 99.9759   1
  -2   3   9 153.377 30.6873   1
  -3  -2   9 134.358 27.7291   1
   2  -3  -9 133.839 28.4153   1
  -2   3  10 162.104 35.8084   1
   2  -3 -10 176.295 32.9354   1
   3   2 -10 168.125 29.8351   1
  -3  -2  10 145.663 27.2634   1
  -2   3  11 106.948 28.7381   1
   2  -3 -11 138.535 33.3851   1
   3   2 -11 143.336 29.6911   1
  -3  -2  11 124.785 25.7219   1
  -2   3 -12 671.912 53.2807   1
  -3  -2  12 581.004 62.1812   1
   2  -3 -12 649.784 65.1631   1
   3   2 -12 644.833 61.1813   1
  -3  -2 -12 593.428 65.7226   1
  -2   3  12 650.846 69.8781   1
  -2   3  13 27.7016 16.4324   1
  -3  -2 -13 43.0620 22.6589   1
  -2   3 -13 32.4330 13.9336   1
  -3  -2  13 29.0452 14.0288   1
   3   2 -13 14.1006 14.0163   1
   2  -3 -13 62.2541 25.8981   1
   2  -3 -14 56.0983 20.9451   1
   3   2 -14 71.3919 24.3855   1
  -2   3 -14 64.8890 19.3835   1
  -3  -2  14 33.0574 13.9403   1
  -2   3  14 67.7742 25.1492   1
  -3  -2 -14 41.3842 11.8861   1
  -3  -2  15 17.6379 10.4966   1
   3   2 -15 4.03952 7.82413   1
  -3  -2 -15-4.44369 11.9789   1
   2  -3 -15-8.63445 13.1375   1
  -2   3 -15 2.03223 6.90064   1
  -2   3  15-4.89860 12.3038   1
  -3  -2 -16 173.049 38.9446   1
  -3  -2  16 161.041 34.6203   1
  -2   3  16 150.235 38.6326   1
   3   2 -16 152.933 35.5799   1
  -2   3 -16 157.342 29.2319   1
   2  -3 -16 165.301 39.7660   1
   3   2 -17 30.0399 19.2918   1
  -2   3 -17 14.5590 12.6495   1
  -3  -2  17 25.2375 16.8817   1
  -3  -2 -17 34.6056 24.1529   1
  -2   3  17-5.90149 19.3538   1
   2  -3 -17 23.5779 23.9474   1
   3   2 -18 41.6585 22.0455   1
  -3  -2 -18 27.6728 13.5051   1
  -2   3  18 32.3574 20.6976   1
  -2   3 -18 46.4425 17.8219   1
   2  -3 -18 24.9046 13.6561   1
  -3  -2  18 41.9650 20.7371   1
   3   2 -19 75.7595 27.4282   1
  -2   3 -19 65.6521 23.5186   1
   2  -3 -19 77.9220 33.5626   1
  -3  -2  19 68.1066 25.9320   1
  -2   3  19 55.9514 30.6101   1
   3   2 -20 124.721 37.9389   1
  -2   3  20 141.119 41.2884   1
  -2   3 -20 154.220 35.5111   1
  -3  -2  20 108.982 34.3904   1
   3   2 -21 39.3986 23.8219   1
  -2   3  21-1.13575 12.1708   1
  -3  -2  21 6.69723 11.5074   1
  -2   3 -21 2.79242 7.45131   1
   3   2 -22-2.96455 14.3371   1
  -2   3 -22-14.1012 17.1561   1
  -3  -2  22-3.48202 9.43872   1
  -2   3  22 3.49219 11.3842   1
  -2   3  23 120.760 41.6739   1
  -3  -2  23 112.815 37.7749   1
  -2   3 -23 95.1408 30.5979   1
   3   2 -23 108.290 31.8522   1
  -3  -2  24 103.937 33.2028   1
  -2   3 -24 135.072 33.7382   1
  -2   3  24 148.379 47.7119   1
  -2   3 -25 59.5870 24.0841   1
  -3  -2  25 94.7839 35.4206   1
  -2   3  25 56.2263 28.3406   1
  -2   3 -26-11.7660 14.9929   1
  -2   3  26 4.51770 20.0099   1
  -3  -2  26-9.78538 14.2932   1
  -2   3  27 18.9467 22.4163   1
  -3  -2  27 42.7661 25.1888   1
  -3  -2  28 9.74815 20.5668   1
  -2   3  28 0.71740 11.0695   1
  -2   3  29 50.5388 37.3773   1
  -3  -2  29 73.7494 37.5930   1
  -2   3  30 4.12542 19.8995   1
  -3  -2  30 6.04552 12.1725   1
  -3  -2  31 75.2253 37.6203   1
  -2   3  31 108.621 44.2491   1
  -3  -2  32-14.9314 26.4815   1
  -2   3  32 10.9557 19.7827   1
  -2   3  33 61.3119 38.9107   1
  -3  -2  33 25.3117 24.3472   1
  -3  -2  34 52.6691 32.8962   1
  -2   3  34 21.8802 18.1875   1
  -2   3  35-23.5446 41.8436   1
  -3  -2  35 21.6830 25.0913   1
  -2   3  36 19.7774 22.3272   1
  -3  -2  36-9.02535 26.9858   1
  -2   3  37-17.6343 21.8057   1
  -3  -2  37-5.34076 17.0544   1
  -2   3  38 22.5032 17.3933   1
  -3  -2  38 45.2969 31.2633   1
  -3  -2  39 18.6146 16.8392   1
  -2   3  39 12.7661 14.9060   1
  -3  -2  40-2.52630 24.0072   1
  -2   3  40 45.5758 40.7349   1
  -3  -2  41 73.8616 43.3561   1
  -2   3  41 22.8456 29.9304   1
  -2   3  42 23.3617 27.0954   1
  -3  -2  42-24.8844 32.0193   1
  -3  -2  43 58.0527 39.7124   1
  -2   3  43 8.36774 15.5375   1
  -2   3  44 26.5238 28.7691   1
  -3  -2  44 51.7246 29.9860   1
  -2   3  45 41.2062 33.1244   1
  -3  -2  45-17.8938 25.3571   1
  -2   3  46-28.5659 46.3007   1
  -3  -2  46 45.4961 41.5431   1
  -2   3  47 32.1232 29.5650   1
  -3  -2  47-5.91660 24.8004   1
  -3  -2  48 41.5554 28.1621   1
  -2   3  48 15.5556 23.2681   1
  -3  -2  49 39.8722 39.1959   1
  -2   3  49-54.3994 31.5212   1
  -2   3  50 17.2289 31.3028   1
  -3  -2  50 11.3126 26.8213   1
  -2   3  51-10.4760 30.5696   1
  -3  -2  51 25.5855 20.7640   1
  -2   3  52 94.5427 54.9767   1
  -3  -2  52 60.4524 43.6660   1
  -3  -2  53-3.08548 22.7864   1
  -2   3  53-17.5081 43.1746   1
  -3  -2  54 74.9557 41.4961   1
  -2   3  54 15.0366 42.6071   1
  -3  -2  55 10.8592 31.9873   1
  -3  -2  56 14.7055 40.4342   1
  -3  -2  57-4.04924 21.9081   1
  -3  -2  58 24.4462 32.0967   1
  -3   3   0 56.0577 16.2873   1
  -3   3   1 28.4724 15.4975   1
  -3   3   2 939.872 67.3940   1
  -3   3   3 47.6931 17.0046   1
  -3   3   4 16.3655 12.4847   1
   3  -3  -4 6.69081 10.1049   1
  -3   3   5 218.034 36.4726   1
   3  -3  -5 248.348 39.3384   1
  -3   3   6 1012.44 77.9520   1
   3  -3  -6 1044.09 80.1686   1
   3  -3  -7 101.080 25.5378   1
  -3   3   7 92.3046 26.4574   1
  -3  -3   7 83.6701 17.5290   1
  -3  -3   8 205.819 32.0248   1
  -3   3   8 240.064 39.8160   1
   3  -3  -8 265.405 42.6669   1
  -3  -3   9-10.4495 12.2747   1
   3  -3  -9 11.2619 12.7875   1
  -3   3   9-6.94360 15.4306   1
  -3   3  10 845.288 78.4351   1
  -3  -3  10 826.276 65.0471   1
   3  -3 -10 871.392 77.9677   1
  -3  -3 -11-18.2274 19.2652   1
  -3  -3  11 38.4493 17.6866   1
  -3   3  11 27.3713 16.3671   1
   3  -3 -11 8.06595 12.5541   1
   3  -3 -12 260.741 44.6781   1
  -3  -3 -12 236.828 43.7532   1
  -3  -3  12 211.726 35.3889   1
  -3   3  12 195.827 41.0764   1
  -3  -3 -13 11.2195 8.21014   1
   3  -3 -13 6.08507 11.4856   1
   3   3 -13-2.30587 12.6018   1
  -3  -3  13-25.1051 18.2196   1
  -3   3  13 16.8663 19.5392   1
   3  -3 -14 612.248 72.2564   1
  -3  -3  14 535.897 61.1320   1
   3   3 -14 557.749 59.3893   1
  -3  -3 -14 569.390 68.9791   1
  -3   3  14 519.134 68.0176   1
   3   3 -15 4.48906 7.82791   1
  -3   3  15-3.29930 19.8563   1
  -3  -3 -15 36.0631 19.8118   1
   3  -3 -15-11.7973 12.3724   1
  -3  -3  15 9.40293 13.1189   1
  -3  -3 -16 371.289 60.5046   1
  -3  -3  16 302.913 45.4849   1
  -3   3  16 340.195 57.2988   1
   3  -3 -16 322.762 55.5366   1
  -3   3 -16 300.357 43.1719   1
   3   3 -16 315.314 48.0984   1
  -3  -3 -17 3.51536 13.8527   1
   3   3 -17-6.85834 14.4800   1
  -3   3 -17-7.96361 13.7163   1
  -3  -3  17 18.5268 15.9287   1
   3  -3 -17 12.8235 11.3527   1
  -3   3  17 0.09844 15.5886   1
  -3  -3  18 597.092 69.9246   1
  -3   3 -18 619.315 66.1022   1
  -3   3  18 537.697 79.5340   1
   3   3 -18 657.549 69.3692   1
  -3   3  19 7.85066 16.5540   1
   3   3 -19 20.3531 17.6502   1
  -3  -3  19 0.90562 8.97165   1
  -3   3 -19-10.8156 13.5307   1
  -3   3  20 0.72224 14.7180   1
   3   3 -20 14.4002 14.4560   1
  -3  -3  20 16.5147 12.1036   1
  -3   3 -20 11.6184 9.20577   1
   3   3 -21 8.76339 14.9754   1
  -3   3 -21-1.91727 7.54242   1
  -3   3  21 0.65445 12.9911   1
  -3  -3  21 1.23789 9.68179   1
  -3   3  22 79.0853 30.1276   1
  -3  -3  22 87.5531 32.6995   1
  -3   3 -22 82.3465 27.7433   1
   3   3 -22 113.610 33.7628   1
  -3   3 -23 8.85292 13.1062   1
  -3   3  23 23.2987 21.0187   1
   3   3 -23 62.2031 30.4640   1
  -3  -3  23 22.9334 19.6594   1
  -3  -3  24 25.0571 19.5222   1
  -3   3  24 11.7904 10.5023   1
  -3   3 -24-11.5432 11.6453   1
   3   3 -24-4.21813 17.5300   1
  -3   3  25-39.1762 26.8779   1
  -3  -3  25 11.2858 9.61776   1
  -3   3  26 41.7510 32.5863   1
  -3  -3  26 23.4672 14.4429   1
  -3  -3  27 1.72795 17.1300   1
  -3   3  27 15.4401 17.4277   1
  -3  -3  28 11.8871 11.2337   1
  -3   3  28 19.0619 16.1063   1
  -3   3  29-6.56899 16.0683   1
  -3  -3  29 29.6143 12.0812   1
  -3  -3  30-19.6365 13.0917   1
  -3   3  30-12.3076 17.1216   1
  -3   3  31 3.02773 15.8378   1
  -3  -3  31 19.3626 19.0517   1
  -3  -3  32 36.5250 22.8324   1
  -3   3  32-42.5740 30.9262   1
  -3   3  33 1.77224 12.8737   1
  -3  -3  33 5.14534 14.7498   1
  -3   3  34 3.92535 21.4735   1
  -3  -3  34-16.4708 18.0318   1
  -3  -3  35 86.3722 31.3250   1
  -3   3  35 123.320 61.5625   1
  -3  -3  36-9.42625 14.5966   1
  -3   3  36-17.2864 20.2131   1
  -3  -3  37-12.7637 25.9427   1
  -3   3  37-3.18110 20.4084   1
  -3   3  38 24.0452 25.3423   1
  -3  -3  38-19.5919 32.6318   1
  -3  -3  39-2.93561 19.4834   1
  -3   3  39-8.06547 16.8061   1
  -3  -3  40 9.38598 23.5436   1
  -3   3  40 15.8129 19.3820   1
  -3   3  41-13.2496 26.1169   1
  -3  -3  41 84.2198 41.5702   1
  -3  -3  42 8.98686 27.9444   1
  -3   3  42 1.74113 26.3601   1
  -3  -3  43 5.97203 18.9222   1
  -3   3  43-73.0822 44.6071   1
  -3  -3  44 33.9634 36.2305   1
  -3   3  44-53.5964 40.0104   1
  -3  -3  45 12.7462 31.6014   1
  -3   3  45-9.41145 26.5881   1
  -3  -3  46 60.2560 45.9959   1
  -3   3  46 13.8894 36.6834   1
  -3  -3  47 25.5614 33.7713   1
  -3   3  47-2.21108 27.4043   1
  -3  -3  48 16.3612 29.5914   1
  -3   3  48-22.8783 29.5692   1
  -3   3  49-6.25878 45.1620   1
  -3  -3  49-23.0489 32.0227   1
  -3  -3  50 15.6776 31.5482   1
  -3   3  50 38.2514 28.9967   1
  -3  -3  51-11.8900 19.7788   1
  -3   3  51 2.93330 28.9628   1
  -3  -3  52 36.3071 23.3935   1
  -3   3  52 90.7882 60.3637   1
  -3  -3  53 30.9888 54.3194   1
  -3   3  53 30.0323 46.3432   1
  -3  -3  54 53.0712 49.1198   1
  -3   3  54 83.7425 64.0123   1
  -3  -3  55 39.4868 28.6441   1
  -3  -3  56 16.5044 23.8118   1
  -3  -3  57 22.7975 43.1147   1
  -3  -3  58 37.8365 21.7350   1
  -4   3   1 54.7121 22.9268   1
  -4   3   2 152.201 33.3451   1
  -4   3   3 66.6037 21.0121   1
  -4   3   4 327.122 46.1999   1
  -4   3   5 4.20963 11.3541   1
  -4   3   6 54.8205 16.7394   1
   4  -3  -6 64.7671 20.5703   1
   4  -3  -7 268.538 43.4265   1
  -4   3   7 226.837 42.0578   1
  -4   3   8 644.058 70.3672   1
  -3  -4   8 632.095 53.3707   1
   4  -3  -8 736.454 73.5766   1
   4  -3  -9 67.0369 20.0030   1
  -3  -4  -9 74.8242 24.8821   1
  -4   3   9 68.5448 20.9483   1
  -3  -4   9 54.7940 15.8902   1
  -3  -4  10 2.02737 9.80273   1
   4  -3 -10-3.42729 13.7268   1
  -4   3  10 9.05864 15.0962   1
  -3  -4 -10 18.5601 17.4766   1
  -3  -4 -11 211.067 41.3561   1
  -3  -4  11 220.811 35.2594   1
  -4   3  11 169.109 39.5286   1
   4  -3 -11 221.069 44.0928   1
   4  -3 -12 226.838 43.9375   1
  -3  -4 -12 175.042 41.5737   1
  -3  -4  12 229.259 36.5918   1
  -4   3  12 240.943 47.3980   1
  -4   3  13 46.5383 21.1840   1
   4  -3 -13 13.4449 16.0089   1
  -3  -4 -13 25.4573 11.3487   1
  -3  -4  13 28.3565 15.6902   1
  -4   3  14 44.9339 22.7460   1
  -3  -4 -14 22.4474 16.0889   1
  -3  -4  14 49.4958 18.7723   1
   4  -3 -14 66.4268 27.1187   1
   4  -3 -15 195.597 45.0443   1
  -3  -4  15 160.885 31.7597   1
  -4   3  15 195.955 45.8961   1
  -3  -4 -15 187.853 42.5521   1
   3   4 -15 196.040 34.6025   1
  -3  -4  16 317.099 47.1059   1
  -3  -4 -16 350.716 57.7378   1
   3   4 -16 314.604 42.8782   1
  -4   3  16 288.925 56.4385   1
   3   4 -17 26.5382 17.0076   1
  -3  -4  17 9.70724 10.3283   1
  -4   3  17 4.98207 14.6911   1
   3   4 -18 33.9121 18.4192   1
  -3  -4  18 33.8501 20.1869   1
  -4   3  18 21.4195 19.5666   1
  -4   3  19 15.4496 21.9378   1
   3   4 -19 22.8697 15.9508   1
  -3  -4  19 14.2417 17.5632   1
  -4   3 -19 41.5681 26.5895   1
  -4   3 -20 414.700 60.6921   1
  -3  -4  20 309.526 51.2803   1
  -4   3  20 342.674 67.0138   1
   3   4 -20 319.789 50.1251   1
  -3  -4  21 34.4867 18.2728   1
   3   4 -21 27.6379 16.3401   1
  -4   3  21-5.00437 11.1689   1
  -4   3 -21-6.03502 8.90955   1
   3   4 -22 9.44046 13.9184   1
  -4   3  22 33.4531 24.3400   1
  -3  -4  22 9.41011 14.1748   1
  -4   3 -22 31.0207 22.9366   1
  -3  -4  23 71.0814 26.0274   1
   3   4 -23 74.2410 28.8901   1
  -4   3  23 82.8048 32.0095   1
   3   4 -24 35.9274 21.7248   1
  -3  -4  24 11.2427 15.5237   1
  -4   3  24 26.4512 28.7522   1
  -4   3  25 103.087 39.8634   1
   3   4 -25 97.5608 30.6468   1
  -3  -4  25 65.8379 28.9961   1
  -4   3  26-34.6911 33.8634   1
  -3  -4  26 0.96847 16.5085   1
  -3  -4  27 262.806 54.7395   1
  -4   3  27 336.856 72.7432   1
  -3  -4  28 22.1365 19.9399   1
  -4   3  28-3.43677 21.5184   1
  -4   3  29 57.0571 34.4501   1
  -3  -4  29 33.8628 22.6844   1
  -4   3  30-29.6445 22.7604   1
  -3  -4  30 17.9643 22.5967   1
  -3  -4  31 65.9261 26.7449   1
  -4   3  31 95.0943 43.5769   1
  -3  -4  32 33.0266 24.1417   1
  -4   3  32 34.3644 27.7137   1
  -4   3  33 36.5494 20.8605   1
  -3  -4  33 51.7289 29.7744   1
  -4   3  34 37.4888 32.7393   1
  -3  -4  34 25.3087 16.7978   1
  -3  -4  35 72.8071 34.4310   1
  -4   3  35 79.0813 44.3296   1
  -3  -4  36-24.9118 17.4902   1
  -4   3  36 41.9639 32.5129   1
  -3  -4  37 5.39695 18.9011   1
  -4   3  37 111.788 52.1728   1
  -4   3  38 45.2181 25.3633   1
  -3  -4  38 15.8928 15.1967   1
  -3  -4  39 39.7186 24.5685   1
  -4   3  39 53.3694 43.0950   1
  -3  -4  40 11.8886 22.8925   1
  -4   3  40 9.41452 14.6738   1
  -3  -4  41 31.7551 19.8530   1
  -4   3  41 85.6137 46.5899   1
  -4   3  42-8.54477 23.1420   1
  -3  -4  42-7.31557 13.1417   1
  -4   3  43 53.4654 37.3926   1
  -3  -4  43-15.4651 31.1674   1
  -4   3  44-17.1287 21.0605   1
  -3  -4  44 40.3733 24.3882   1
  -4   3  45-13.1693 23.0468   1
  -3  -4  45 39.7153 38.5731   1
  -3  -4  46-17.9800 29.7252   1
  -4   3  46-5.31231 18.8440   1
  -3  -4  47-29.0142 35.6354   1
  -4   3  47 0.04432 35.5249   1
  -4   3  48 67.9406 51.8197   1
  -3  -4  48 94.0959 41.6061   1
  -3  -4  49 10.3005 29.3761   1
  -4   3  49 35.2645 42.7732   1
  -3  -4  50 34.2599 36.7881   1
  -4   3  50 45.2040 35.7946   1
  -4   3  51 54.5831 46.7774   1
  -3  -4  51 11.0827 19.0517   1
  -3  -4  52 27.4566 25.3340   1
  -4   3  52-2.91539 34.4666   1
  -4   3  53 17.1516 38.4980   1
  -3  -4  53-40.9690 50.8624   1
  -3  -4  54-40.6945 30.1763   1
  -3  -4  55-6.42084 31.7120   1
  -3  -4  56-3.49446 34.8027   1
  -4   2   2 46.2930 17.5945   1
  -4   2   3 24.4560 13.9507   1
  -4   2   4-7.81271 10.5117   1
  -2  -4  -5 55.5604 16.0735   1
  -4   2   5 43.7477 21.0925   1
  -4   2   6 276.027 46.2568   1
  -2  -4  -6 259.583 36.8128   1
  -2  -4   7 206.947 24.2989   1
   4  -2  -7 221.023 38.4716   1
  -4   2   7 166.357 34.9323   1
  -2  -4  -7 219.756 34.7971   1
  -2  -4  -8 26.2025 17.8424   1
   4  -2  -8-16.6093 14.1888   1
  -4   2   8 18.3200 19.8074   1
  -2  -4   8 13.9507 7.92404   1
  -2  -4   9 107.245 19.2375   1
  -2  -4  -9 88.1747 24.5578   1
  -4   2   9 104.120 34.5541   1
   4  -2  -9 62.1353 20.0821   1
  -4   2  10 569.053 67.8412   1
  -2  -4 -10 597.960 63.3933   1
   4  -2 -10 530.970 66.3391   1
  -2  -4  10 620.572 46.0128   1
  -2  -4  11 120.013 23.8313   1
  -4   2  11 101.934 31.2505   1
   4  -2 -11 99.3471 28.1642   1
  -2  -4 -11 98.8289 28.6795   1
   4  -2 -12 202.475 39.8624   1
  -2  -4 -12 243.139 43.8624   1
  -4   2  12 185.343 41.8033   1
  -2  -4  12 223.233 30.3500   1
   2   4 -12 244.960 31.0195   1
   2   4 -13 22.4514 10.6111   1
   4  -2 -13 20.0822 10.2145   1
  -2  -4  13 52.9759 17.4564   1
  -4   2  13 15.0258 18.3131   1
  -2  -4 -13 17.0928 13.1042   1
   4  -2 -14 93.2197 29.0556   1
  -2  -4 -14 73.1925 23.1368   1
  -4   2  14 72.2008 29.6800   1
   2   4 -14 64.1451 16.7370   1
  -2  -4  14 80.8562 20.6513   1
   2   4 -15 8.59730 6.77724   1
  -2  -4  15 7.20720 6.78558   1
  -2  -4 -15-4.32444 8.87523   1
   4  -2 -15 2.90800 11.8614   1
  -4   2  15 13.1940 15.6953   1
  -4   2  16 251.180 49.8677   1
   4  -2 -16 296.616 54.1499   1
  -2  -4 -16 392.188 60.5732   1
  -2  -4  16 285.059 40.0026   1
   2   4 -16 303.191 39.8821   1
  -4   2  17 20.9696 22.0862   1
   2   4 -17 22.7826 10.8860   1
  -2  -4 -17 53.5157 24.4829   1
  -2  -4  17 17.8982 11.8823   1
  -2  -4  18 129.013 30.6360   1
  -4   2  18 133.907 44.1067   1
   2   4 -18 85.6364 21.0729   1
  -4   2 -19 29.2857 22.3813   1
  -2  -4  19 36.1767 16.7305   1
   2   4  19 33.0038 20.5104   1
  -4   2  19 18.5736 21.2274   1
   2   4 -19 20.0464 10.5196   1
  -2  -4  20 26.7084 15.0142   1
   2   4 -20 44.7120 17.6958   1
  -4   2  20 51.5584 20.0693   1
  -4   2 -20 28.9526 13.4371   1
   2   4  20 29.8832 22.5976   1
  -4   2 -21 69.3390 28.0714   1
  -2  -4  21 61.9847 22.3461   1
  -4   2  21 66.8859 27.4286   1
   2   4 -21 71.0604 23.7048   1
   2   4  21 55.7436 25.4956   1
  -4   2  22 83.6838 30.6055   1
  -2  -4  22 119.087 34.4807   1
   2   4  22 88.7215 35.5496   1
   2   4 -22 88.3950 25.4250   1
  -2  -4  23 75.4188 27.7473   1
  -4   2  23 50.7001 27.3062   1
   2   4 -23 70.1392 24.3260   1
   2   4  23 72.9421 30.6126   1
  -4   2  24 41.2308 33.9012   1
   2   4 -24 31.1194 19.7476   1
   2   4  24 0.15184 11.1149   1
  -2  -4  24 18.1991 14.7299   1
   2   4  25 117.990 43.7938   1
  -4   2  25 94.2597 41.2527   1
  -2  -4  25 96.6429 32.5657   1
   2   4 -25 68.8729 30.1281   1
  -2  -4  26 19.0866 14.4005   1
   2   4 -26 14.0580 10.1879   1
  -4   2  26 1.53857 15.6502   1
   2   4  26 20.1959 20.2249   1
   2   4 -27 167.265 40.1350   1
   2   4  27 161.304 50.6607   1
  -4   2  27 134.943 50.7029   1
  -2  -4  27 130.125 39.0530   1
   2   4  28-38.9267 33.2973   1
  -4   2  28 7.58846 22.7056   1
  -2  -4  28 13.2383 15.4218   1
   2   4  29 78.7207 41.2355   1
  -4   2  29 114.694 47.0778   1
  -2  -4  29 108.760 38.1183   1
   2   4  30-7.88666 23.6861   1
  -4   2  30 3.20772 19.5179   1
  -2  -4  30 50.0171 28.5332   1
   2   4  31 98.9694 41.7451   1
  -4   2  31 90.4960 36.2540   1
  -2  -4  31 123.048 38.7154   1
  -2  -4  32 7.52968 15.6726   1
  -4   2  32 14.4398 29.0015   1
   2   4  32-4.25005 17.6486   1
   2   4  33-16.7516 19.8942   1
  -4   2  33 54.7735 31.8593   1
  -2  -4  33-0.14978 12.6100   1
  -2  -4  34-4.40256 12.9660   1
   2   4  34 17.6159 28.1553   1
  -4   2  34 15.2794 23.5015   1
  -2  -4  35 181.751 50.8812   1
   2   4  35 73.6322 42.4119   1
  -4   2  35 109.007 42.2147   1
  -2  -4  36 46.3404 29.6623   1
  -4   2  36 55.2698 43.4273   1
   2   4  36 38.3518 30.0056   1
   2   4  37 77.4339 39.7440   1
  -4   2  37 143.016 58.2010   1
  -2  -4  37 44.3373 20.4434   1
  -2  -4  38 2.52003 23.9316   1
  -4   2  38 15.4898 24.6916   1
  -4   2  39 34.3677 25.8375   1
  -2  -4  39 74.9028 32.5368   1
  -4   2  40 25.4427 31.5098   1
  -2  -4  40 28.6914 34.4404   1
  -2  -4  41 66.1259 37.4705   1
  -4   2  41-20.1525 19.5941   1
  -4   2  42 26.5544 42.0128   1
  -2  -4  42-17.9405 21.1433   1
  -2  -4  43 64.7479 26.8207   1
  -4   2  43 47.4185 42.2939   1
  -4   2  44-9.18695 15.5520   1
  -2  -4  44-26.5472 20.6407   1
  -2  -4  45 34.2374 30.2831   1
  -4   2  45 59.1917 46.0084   1
  -2  -4  46 0.26665 17.6627   1
  -4   2  46 28.9862 29.7474   1
  -4   2  47 32.1692 26.0300   1
  -2  -4  47-32.2862 36.8793   1
  -4   2  48 31.6467 42.0732   1
  -2  -4  48 35.4473 30.2252   1
  -4   2  49-41.9055 29.3568   1
  -2  -4  49 10.8531 18.1789   1
  -2  -4  50 22.2613 38.8194   1
  -4   2  50 106.771 55.5771   1
  -4   2  51 7.20447 20.0180   1
  -2  -4  51 77.5951 55.1241   1
  -2  -4  52 6.06338 21.9798   1
  -4   2  52 50.7276 35.9146   1
  -4   2  53-2.30646 27.3909   1
  -2  -4  53 3.95034 22.7508   1
  -4   2  54 18.0342 33.7244   1
  -2  -4  54-17.3603 29.2515   1
  -2  -4  55 14.4311 42.1784   1
  -2  -4  56-13.2233 25.4828   1
  -2  -4  57-28.6208 22.6369   1
  -1  -4   0 21.9032 8.42426   1
  -1  -4   1 5.52547 5.89723   1
  -1  -4  -1-6.11340 7.11729   1
  -1  -4  -2 298.430 30.3351   1
  -1  -4  -3 69.8151 16.3848   1
  -1  -4  -4 50.5967 12.0980   1
  -4   1   4 50.1507 22.5515   1
  -1  -4  -5 70.0029 20.3041   1
  -4   1   5 85.5095 27.4627   1
  -1  -4   6 112.659 12.5252   1
  -1  -4  -6 126.284 25.0184   1
  -4   1   6 119.095 28.0698   1
  -1  -4  -7 299.953 38.8030   1
  -4   1   7 245.227 41.7415   1
   1   4   7 283.161 40.6839   1
  -1  -4   7 278.957 20.7715   1
  -1  -4   8 78.5707 11.7251   1
   1   4   8 90.5835 21.0085   1
   4  -1  -8 116.587 33.5319   1
  -4   1   8 73.3827 25.4811   1
  -1  -4  -8 126.787 28.6881   1
   1   4   9 16.5163 14.1751   1
  -1  -4   9 35.2604 9.68122   1
   4  -1  -9 34.8137 14.4808   1
  -4   1   9 31.6136 21.1143   1
  -1  -4  -9 35.6363 12.7420   1
  -1  -4  10 194.454 21.8953   1
   1   4 -10 191.688 20.8594   1
  -1  -4 -10 178.694 31.6251   1
  -4   1  10 140.859 32.0422   1
   4  -1 -10 188.470 40.7015   1
   1   4  10 195.294 37.2221   1
   4  -1 -11 35.9626 13.3226   1
   1   4  11 56.9677 20.9845   1
  -1  -4  11 58.2702 13.7922   1
  -4   1  11 61.1089 24.6801   1
   1   4 -11 90.0057 15.5899   1
  -1  -4 -11 40.8915 17.6859   1
  -1  -4  12 249.567 28.2114   1
   1   4 -12 281.716 28.4806   1
   4  -1 -12 272.775 47.1599   1
  -1  -4 -12 272.418 45.7671   1
   1   4  12 238.361 43.1646   1
  -4   1  12 223.866 46.1981   1
  -1  -4 -13 259.047 46.0524   1
   4  -1 -13 202.268 41.5038   1
  -4   1  13 262.493 50.3405   1
   1   4 -13 254.535 29.2737   1
  -1  -4  13 242.590 29.7080   1
   1   4  13 225.322 43.3076   1
   1   4 -14 91.7443 18.6186   1
   1   4  14 80.7137 28.2679   1
  -4   1  14 79.3228 30.9447   1
   4  -1 -14 84.8893 27.5879   1
  -1  -4  14 88.7300 18.8707   1
  -1  -4 -14 103.781 33.3935   1
  -1  -4  15 5.38316 7.50267   1
   1   4 -15 7.57788 5.22521   1
   4  -1 -15 31.8110 15.8359   1
  -1  -4 -15 5.82686 10.9754   1
  -4   1  15 22.0857 21.3422   1
   1   4  15 3.41496 15.9823   1
  -4   1  16 62.8627 24.5633   1
   1   4 -16 107.999 23.1932   1
   1   4  16 77.9768 30.7320   1
  -1  -4 -16 95.2627 24.0601   1
   4  -1 -16 115.997 34.4486   1
  -1  -4  16 107.940 22.2080   1
   4  -1 -17 24.0054 21.7052   1
  -4   1  17 39.9270 20.8946   1
   1   4 -17 34.9756 14.0578   1
  -1  -4  17 25.4704 11.1330   1
  -1  -4 -17 36.8641 22.3062   1
   1   4  17 17.3560 13.9499   1
  -1  -4  18 110.458 26.5204   1
   1   4 -18 106.344 24.0482   1
  -1  -4 -18 117.185 39.7888   1
  -4   1 -18 54.7188 19.7549   1
   4  -1 -18 128.668 36.2646   1
   1   4  18 108.261 33.6784   1
  -4   1  18 81.5597 31.3472   1
  -4   1 -19 90.2729 23.9740   1
   1   4 -19 149.333 29.7285   1
   1   4  19 120.990 38.2668   1
  -1  -4  19 154.867 33.1331   1
  -4   1  19 127.923 39.5734   1
  -1  -4  20 71.4508 25.5498   1
   1   4  20 74.1593 30.8926   1
  -4   1  20 89.3882 37.3641   1
  -4   1 -20 90.6363 34.4510   1
   1   4 -20 70.7118 18.5627   1
   1   4 -21 96.0295 26.1205   1
   1   4  21 107.186 42.1866   1
  -1  -4  21 120.863 30.4054   1
  -4   1  21 86.0641 36.1371   1
   1   4 -22 66.2647 21.8790   1
  -1  -4  22 69.3534 23.2681   1
  -4   1  22 59.7945 30.0244   1
   1   4  22 86.6785 33.1129   1
   1   4 -23 107.842 28.8098   1
  -4   1  23 73.8792 33.4291   1
  -1  -4  23 72.0608 24.3394   1
   1   4  23 95.2841 40.9086   1
  -1  -4  24 53.1098 22.9144   1
   1   4  24 41.6214 26.1367   1
   1   4 -24 54.4828 19.8109   1
  -4   1  24 40.7722 27.3174   1
  -1  -4  25 107.055 31.3297   1
  -4   1  25 86.8862 38.6863   1
   1   4  25 69.5870 32.4433   1
   1   4 -25 116.738 32.3073   1
   1   4  26 28.8780 24.0174   1
   1   4 -26 33.4909 19.4526   1
  -4   1  26 16.6885 13.0295   1
  -1  -4  26 52.0287 25.7933   1
   1   4 -27 84.7294 24.2952   1
  -1  -4  27 76.8187 27.2259   1
   1   4  27 86.3341 36.4668   1
  -4   1  27 65.7292 32.0169   1
  -1  -4  28 21.2795 17.5299   1
   1   4 -28 5.68108 12.8921   1
  -4   1  28 25.7686 24.5158   1
   1   4  28 7.54850 11.6413   1
  -4   1  29-6.63672 20.4838   1
   1   4  29 94.9048 42.0610   1
  -1  -4  29 90.8980 34.6291   1
  -4   1  30 26.4675 25.2592   1
  -1  -4  30 11.9325 8.98602   1
   1   4  30-3.49207 14.1872   1
   1   4  31 127.035 51.7531   1
  -4   1  31 138.477 45.1242   1
  -1  -4  31 129.767 38.4581   1
  -1  -4  32-3.53506 17.8710   1
   1   4  32-5.24684 23.7611   1
  -4   1  32 0.92605 23.0310   1
   1   4  33 117.369 50.3936   1
  -4   1  33 140.745 50.8698   1
  -1  -4  33 179.361 48.1922   1
  -1  -4  34 9.55181 17.2435   1
  -4   1  34-26.7347 31.7451   1
   1   4  34-5.62436 27.1552   1
   1   4  35 20.3116 26.8175   1
  -4   1  35 6.50807 23.7560   1
  -1  -4  35 5.90041 19.4072   1
  -1  -4  36-7.43927 12.9959   1
   1   4  36 40.6864 30.0155   1
  -4   1  36 51.5515 32.5168   1
   1   4  37 78.1424 40.9525   1
  -1  -4  37 47.8794 23.3535   1
  -4   1  37 104.007 48.3787   1
  -1  -4  38 37.2633 21.4152   1
   1   4  38 82.8893 39.6134   1
  -4   1  38 93.8137 42.7519   1
  -4   1  39 114.997 50.4013   1
  -1  -4  39 165.170 51.8114   1
   1   4  39 172.187 66.1379   1
  -1  -4  40-14.3981 20.5670   1
  -4   1  40 37.9695 34.9266   1
   1   4  40 43.1484 35.7442   1
   1   4  41 151.472 60.5194   1
  -1  -4  41 64.0357 30.2589   1
  -4   1  41 74.8834 39.7667   1
  -1  -4  42 39.3357 34.9902   1
   1   4  42-11.9273 27.0790   1
  -4   1  42-12.7191 30.7848   1
  -1  -4  43 90.8550 38.8130   1
  -4   1  43 26.4158 15.3297   1
   1   4  43 52.3932 46.7533   1
  -4   1  44 0.27034 19.1088   1
   1   4  44 22.4972 31.6453   1
  -1  -4  44 3.79398 27.1793   1
  -4   1  45 45.6755 38.0644   1
  -1  -4  45 29.8957 32.5055   1
   1   4  45 43.8552 31.3233   1
   1   4  46-22.9146 36.0803   1
  -4   1  46 59.4750 36.5663   1
  -1  -4  46 35.0117 23.6410   1
  -1  -4  47 61.5310 37.9044   1
   1   4  47 112.251 63.4790   1
  -4   1  47 96.2852 52.7105   1
   1   4  48-12.6248 23.3510   1
  -4   1  48-15.3009 21.7136   1
  -1  -4  48-5.30447 18.8941   1
  -1  -4  49-13.3716 18.4560   1
  -4   1  49-14.1168 18.0810   1
   1   4  49 15.0300 43.4210   1
  -4   1  50 67.8106 51.7509   1
  -1  -4  50-25.6082 40.4609   1
  -4   1  51 45.4622 38.0462   1
  -1  -4  51 15.3462 22.6827   1
  -4   1  52-43.7667 39.7033   1
  -1  -4  52-0.86166 35.3824   1
  -4   1  53 41.5037 34.0973   1
  -1  -4  53-20.0521 17.2990   1
  -4   1  54-19.6186 33.5820   1
  -4   1  55 6.87184 22.7064   1
   0   4   0 50.0767 10.5998   1
   0  -4   0 32.7340 9.58051   1
   0  -4  -1 152.011 20.3878   1
   0  -4   1 116.156 13.6063   1
   0   4   1 137.926 18.2454   1
   0   4  -1 128.064 13.6995   1
   0   4   2 52.9990 14.7573   1
   0  -4  -2 40.5264 12.4244   1
   0   4   3 265.368 29.8299   1
   0  -4  -3 257.771 27.6573   1
   0  -4  -4 644.961 47.0688   1
   0   4   4 597.895 46.5093   1
   0   4   5 30.4068 13.8154   1
  -4   0   5 38.0778 20.4087   1
   0  -4  -5 41.0148 15.0734   1
   0  -4  -6 68.9573 15.8968   1
   0   4   6 88.4892 21.7742   1
  -4   0   6 81.6668 26.7210   1
   0  -4  -7-4.85004 10.7909   1
  -4   0   7 26.8562 13.8200   1
   0   4   7 5.09617 8.22259   1
   0  -4  -8 7.17631 8.29261   1
  -4   0   8 3.70739 14.1652   1
   0   4   8 15.2981 12.0413   1
  -4   0   9 78.6273 24.7989   1
   0   4  -9 113.070 12.6284   1
   0  -4  -9 131.570 28.5438   1
   0   4   9 147.519 30.5012   1
   4   0  -9 131.870 32.5626   1
  -4   0  10 18.4328 13.1825   1
   0  -4  10 51.2413 10.6436   1
   0   4 -10 46.3228 9.73607   1
   0  -4 -10 48.3858 19.6819   1
   0   4  10 63.0114 19.9689   1
   4   0 -10 39.1118 18.3477   1
   0   4  11 16.9159 17.2074   1
   0  -4 -11 7.75857 11.4688   1
   4   0 -11 16.5103 12.0231   1
  -4   0  11 20.0516 20.9417   1
   0   4 -11 12.4450 7.60694   1
   0  -4  11 10.7158 6.25335   1
  -4   0  12 476.947 61.3564   1
   4   0 -12 475.892 61.5581   1
   0  -4 -12 542.524 61.3614   1
   0   4  12 457.436 58.2101   1
   0   4 -12 494.589 35.7848   1
   0  -4  12 537.185 38.2842   1
   0  -4 -13 21.1189 8.24431   1
   0   4 -13 20.9080 8.50336   1
   0   4  13 12.8991 12.4083   1
  -4   0  13 13.4362 14.3339   1
   4   0 -13 13.1361 14.2798   1
   0  -4  13 12.2224 5.83348   1
   0   4 -14 20.0833 9.65571   1
   0  -4 -14-3.39629 9.71264   1
   0  -4  14 0.05408 5.22407   1
   4   0 -14-14.2340 21.5994   1
   0   4  14-14.1704 23.4515   1
  -4   0  14 2.79379 14.3601   1
  -4   0  15 431.549 61.0279   1
   0  -4  15 451.282 43.0137   1
   4   0 -15 465.979 64.0835   1
   0   4  15 447.525 62.3410   1
   0  -4 -15 494.607 61.8917   1
   0   4 -15 473.409 42.7829   1
   4   0 -16 270.026 50.0194   1
   0   4 -16 266.897 35.4392   1
  -4   0  16 215.304 44.9360   1
   0  -4  16 222.893 31.7206   1
   0  -4 -16 268.787 49.5797   1
   0   4  16 255.770 48.5553   1
   0  -4  17 49.2327 17.3724   1
   0  -4 -17 52.2963 24.1527   1
  -4   0  17 22.7785 9.56763   1
   0   4  17 53.6169 24.6065   1
   0   4 -17 50.4005 16.1407   1
   4   0 -17 40.5488 10.7585   1
   4   0 -18 390.448 64.2051   1
  -4   0 -18 406.053 60.4972   1
   0  -4  18 399.231 47.4649   1
   0   4 -18 398.591 44.8078   1
   0   4  18 388.647 64.3611   1
  -4   0  18 315.873 61.5046   1
   0  -4 -18 411.910 61.3141   1
   4   0 -19 281.991 53.0826   1
  -4   0 -19 288.972 53.9246   1
   0   4  19 282.908 55.6176   1
  -4   0  19 307.616 56.2916   1
   0  -4  19 241.449 37.6702   1
   0   4 -19 293.491 41.8049   1
  -4   0  20 162.437 43.2117   1
   0  -4  20 196.619 36.2289   1
   0   4 -20 212.153 35.7009   1
   0   4  20 189.217 44.1744   1
  -4   0  21 139.995 46.4853   1
   0   4  21 108.992 34.1485   1
   0   4 -21 133.370 30.6570   1
   0  -4  21 113.197 29.4606   1
   0  -4  22 9.46213 10.3663   1
  -4   0  22 44.1719 29.9764   1
   0   4  22 6.94951 13.6586   1
   0   4 -22 23.9341 16.4207   1
  -4   0  23 161.332 45.5811   1
   0   4  23 130.866 41.8738   1
   0  -4  23 138.543 35.1564   1
   0   4 -23 176.116 35.3377   1
  -4   0  24 41.4960 26.7470   1
   0   4  24 23.1138 15.5994   1
   0  -4  24 36.8640 21.7043   1
   0   4 -24 16.4700 11.3797   1
   0  -4  25 9.97198 15.4090   1
   0   4  25 18.4195 23.1160   1
  -4   0  25 27.7032 25.3418   1
   0   4 -25 21.3185 11.7873   1
  -4   0  26-8.03282 11.7685   1
   0   4  26 29.9208 19.3276   1
   0  -4  26 15.7649 15.6310   1
   0   4 -26 23.7144 22.2930   1
  -4   0  27 145.892 49.8858   1
   0  -4  27 142.718 39.5843   1
   0   4  27 164.519 53.3706   1
   0   4 -27 176.791 41.4391   1
  -4   0  28 10.7672 25.2226   1
   0  -4  28 3.54282 11.3187   1
   0   4  28-27.0145 24.4251   1
   0   4 -28-12.2195 17.5889   1
  -4   0  29 48.9159 33.3140   1
   0   4  29 57.2218 33.2177   1
   0  -4  29 55.1769 24.0311   1
   0  -4  30-8.15972 10.3840   1
   0   4  30 2.94829 24.9693   1
  -4   0  30-11.3525 27.0936   1
   0  -4  31 199.093 50.1903   1
  -4   0  31 203.562 60.4296   1
   0   4  31 193.150 53.1788   1
  -4   0  32-14.7632 15.5990   1
   0  -4  32 25.9470 19.4541   1
   0   4  32 8.28561 12.4590   1
   0   4  33 90.2413 43.3399   1
  -4   0  33 118.544 47.4268   1
   0  -4  33 153.021 45.5616   1
   0   4  34 25.9215 14.2816   1
  -4   0  34 25.1024 28.2333   1
   0  -4  34 10.9790 23.9569   1
  -4   0  35 102.358 39.1882   1
   0   4  35 130.781 50.7253   1
   0  -4  35 88.9674 36.7120   1
   0   4  36 64.9822 48.4784   1
  -4   0  36-8.24934 15.1115   1
   0  -4  36 65.6392 35.9469   1
   0  -4  37 59.6819 32.5657   1
   0   4  37 27.3104 22.8864   1
  -4   0  37 30.6883 25.9685   1
  -4   0  38 0.50580 32.7464   1
   0  -4  38 3.24694 15.9977   1
   0   4  38 14.5112 30.8388   1
   0   4  39 112.521 52.8658   1
  -4   0  39 108.761 52.5202   1
   0  -4  39 107.989 40.7569   1
   0   4  40 48.1862 34.3136   1
   0  -4  40 82.9464 33.9949   1
  -4   0  40 95.0719 49.0081   1
   0   4  41 143.224 55.9985   1
  -4   0  41 109.254 51.0619   1
   0  -4  41 131.765 45.3473   1
   0   4  42-6.05436 16.6915   1
  -4   0  42 3.08673 33.5136   1
   0  -4  42 27.0744 26.1517   1
   0   4  43 56.8709 18.3557   1
   0  -4  43 92.0009 41.2956   1
  -4   0  43 18.3909 14.2073   1
   0   4  44 49.6374 37.9427   1
   0  -4  44 22.9016 15.3481   1
  -4   0  44-13.1313 32.5024   1
   0   4  45 38.9301 33.0332   1
  -4   0  45 63.5143 37.9099   1
   0  -4  45 6.90020 23.0264   1
  -4   0  46-0.71329 23.2647   1
   0   4  46 54.7268 42.9082   1
   0   4  47 98.3307 49.9092   1
  -4   0  47 17.7487 20.0478   1
   0   4  48 66.6750 58.3640   1
  -4   0  48 32.9019 22.2411   1
   0   4  49 11.0435 21.5052   1
  -4   0  49 41.8069 40.4870   1
   0   4  50 40.0287 44.6330   1
  -4   0  50-33.0422 40.4878   1
  -4   0  51-35.8037 49.2527   1
   0   4  51 33.1123 42.5464   1
  -4   0  52 12.7064 20.8054   1
   0   4  52 6.63538 44.6459   1
   0   4  53 1.57431 21.5287   1
  -4   0  53 13.2683 21.5296   1
  -4   0  54-32.9099 37.1195   1
  -4   0  55-1.74891 18.3057   1
  -1   4   0 10.4219 9.33712   1
   1  -4   0 10.1719 8.12026   1
  -1   4   1-3.33498 7.87204   1
   1  -4   1 5.65281 6.13434   1
   1  -4  -1-0.43397 6.04432   1
  -1   4  -1 10.3527 7.44024   1
   1  -4  -2 250.164 28.4573   1
  -1   4   2 228.304 27.2734   1
  -1   4  -2 257.750 21.6266   1
   1  -4  -3 77.1029 16.4114   1
  -1   4   3 79.6119 19.0669   1
  -1   4  -3 56.1334 9.45728   1
   1  -4  -4 63.6538 17.1695   1
  -1   4   4 62.2774 17.2485   1
   1  -4  -5 64.5716 19.3858   1
  -1   4   5 63.1992 21.4740   1
  -1   4   6 111.585 24.1562   1
  -4  -1   6 120.307 26.5831   1
   1  -4  -6 118.543 22.4828   1
   1  -4  -7 294.581 39.6022   1
  -4  -1   7 276.135 43.7778   1
  -1   4   7 287.627 39.2315   1
   1  -4  -8 73.5120 18.8389   1
  -4  -1   8 93.2893 25.5031   1
  -1   4  -8 72.9296 11.0340   1
  -1   4   8 99.1192 25.4698   1
  -1   4   9 30.8456 17.4792   1
  -1   4  -9 25.8270 7.28939   1
  -4  -1   9 35.1056 17.3965   1
   1  -4  -9 37.1407 16.7890   1
  -4  -1  10 145.616 31.7786   1
  -1   4  10 158.135 31.6907   1
   1  -4 -10 190.835 34.6728   1
  -1   4 -10 164.595 18.8510   1
  -4  -1  11 57.6266 22.5314   1
   1  -4 -11 68.6621 22.8763   1
  -1   4 -11 52.7558 11.3481   1
  -1   4  11 62.4138 22.3684   1
   4   1 -11 74.2871 23.8514   1
  -4  -1  12 260.153 47.2061   1
   1  -4 -12 259.564 44.1431   1
   4   1 -12 234.154 42.9343   1
  -1   4  12 270.287 44.4386   1
  -1   4 -12 252.415 27.2675   1
   4   1 -13 296.018 48.7904   1
   1  -4 -13 267.669 43.8377   1
  -4  -1  13 183.144 41.6786   1
  -1   4  13 239.457 43.9144   1
  -1   4 -13 250.486 29.4896   1
   4   1 -14 106.106 33.6065   1
  -1   4 -14 89.3916 18.3681   1
  -4  -1  14 58.2684 21.5902   1
   1  -4 -14 99.6723 29.0177   1
  -1   4  14 93.4158 28.0322   1
  -1   4 -15 15.0659 10.2384   1
   1  -4 -15-12.8246 13.2987   1
  -4  -1  15-5.45216 12.7732   1
   4   1 -15 23.7481 19.8186   1
  -1   4  15-16.5077 9.17854   1
  -1   4 -16 113.512 23.4941   1
   4   1 -16 98.4127 27.8625   1
  -1   4  16 107.983 28.9945   1
  -4  -1  16 92.9460 32.4765   1
   1  -4 -16 75.5319 23.5861   1
  -4  -1  17 9.84085 14.4516   1
   1  -4 -17 39.6803 22.5572   1
  -4  -1 -17 50.1576 28.7324   1
  -1   4  17 11.1458 16.2072   1
   4   1 -17 50.3355 23.6243   1
  -1   4 -17 27.2130 12.4684   1
  -1   4 -18 85.8046 21.2990   1
  -1   4  18 93.4665 29.2120   1
   4   1 -18 100.139 32.1362   1
   1  -4 -18 85.6368 25.1699   1
  -4  -1  18 40.0987 20.0651   1
  -4  -1 -18 118.757 38.1840   1
  -1   4 -19 138.577 28.7810   1
   4   1 -19 113.900 36.5233   1
  -4  -1  19 127.468 39.3938   1
  -1   4  19 115.265 34.8183   1
   4   1 -20 46.8827 16.8117   1
  -1   4  20 56.1115 24.9507   1
  -4  -1  20 78.9227 29.9348   1
  -1   4 -20 108.848 26.3837   1
  -1   4 -21 112.909 26.6645   1
  -4  -1  21 113.052 35.6034   1
  -1   4  21 54.8553 26.0639   1
  -1   4 -22 70.9255 21.0034   1
  -1   4  22 65.4076 26.2184   1
  -4  -1  22 38.9324 23.9427   1
  -4  -1  23 116.055 39.1402   1
  -1   4  23 63.1650 26.8879   1
  -1   4 -23 112.837 30.6376   1
  -1   4 -24 83.4152 29.3006   1
  -1   4  24 29.7014 22.0352   1
  -4  -1  24 66.7152 29.3347   1
  -4  -1  25 99.2638 33.7363   1
  -1   4  25 108.924 37.6028   1
  -1   4 -25 92.4299 30.0918   1
  -4  -1  26 18.2967 21.0871   1
  -1   4 -26 16.7595 10.0537   1
  -1   4  26 17.8237 19.0821   1
  -1   4  27 82.7266 34.4624   1
  -1   4 -27 84.6353 27.5304   1
  -4  -1  27 40.8770 29.1556   1
  -1   4  28 43.5957 38.0457   1
  -1   4 -28-13.7964 20.7261   1
  -4  -1  28-11.0707 21.5259   1
  -4  -1  29 94.3959 37.5038   1
  -1   4  29 103.825 45.0057   1
  -1   4  30-2.67665 23.8264   1
  -4  -1  30-1.66747 19.6379   1
  -4  -1  31 128.996 40.5783   1
  -1   4  31 170.878 56.5810   1
  -1   4  32 1.26202 13.2354   1
  -4  -1  32 15.5884 16.4694   1
  -1   4  33 143.535 53.6847   1
  -4  -1  33 112.173 41.5740   1
  -1   4  34 8.16409 22.4537   1
  -4  -1  34-7.12776 19.2069   1
  -1   4  35-18.7614 23.2597   1
  -4  -1  35 36.9096 39.9412   1
  -1   4  36 33.0348 22.9480   1
  -4  -1  36-7.98815 16.8338   1
  -4  -1  37 49.9773 25.6392   1
  -1   4  37 84.5493 39.5796   1
  -4  -1  38 61.2797 33.2715   1
  -1   4  38 82.4267 39.5208   1
  -4  -1  39 150.316 57.6308   1
  -1   4  39 171.621 63.3735   1
  -4  -1  40 41.1554 29.9760   1
  -1   4  40 76.4872 46.4090   1
  -1   4  41 181.927 64.3351   1
  -4  -1  41 83.2678 39.8170   1
  -1   4  42 6.49416 42.0332   1
  -4  -1  42 5.71776 15.5274   1
  -1   4  43 22.5005 19.0152   1
  -4  -1  43 43.5179 32.8020   1
  -4  -1  44 7.47204 35.8939   1
  -1   4  44-22.9755 28.0138   1
  -1   4  45 55.7399 41.6444   1
  -4  -1  45 37.8519 39.2525   1
  -1   4  46 16.5897 33.2242   1
  -4  -1  46 64.6023 40.8531   1
  -1   4  47 58.3197 33.2723   1
  -4  -1  47 41.2081 31.0141   1
  -4  -1  48 45.0566 41.5565   1
  -1   4  48-17.0103 43.5722   1
  -1   4  49-47.7973 46.4406   1
  -4  -1  49 14.0736 33.3965   1
  -4  -1  50 9.26091 26.9175   1
  -1   4  50 13.2554 44.8341   1
  -4  -1  51-17.4697 42.8862   1
  -1   4  51 32.7206 46.8147   1
  -1   4  52 117.576 65.5989   1
  -4  -1  52 21.3559 26.2072   1
  -1   4  53 44.5533 26.3493   1
  -4  -1  53 76.3667 58.9704   1
  -4  -1  54 109.363 55.9149   1
  -4  -1  55-4.77037 18.8593   1
  -4  -1  56-30.8763 39.0110   1
  -2   4   0 6.56720 8.32183   1
  -2   4  -1 51.0058 14.2868   1
  -2   4   1 42.9556 14.3483   1
   2  -4  -1 45.8905 12.0788   1
  -2   4  -2 76.7265 16.1358   1
   2  -4  -2 62.5999 16.0149   1
  -2   4   2 79.2834 18.7114   1
  -2   4  -3 46.4448 12.7129   1
  -2   4   3 35.1178 15.8443   1
   2  -4  -3 35.6533 12.2162   1
   2  -4  -4 10.6509 8.63829   1
  -2   4   4 22.5009 11.1460   1
   2  -4  -5 58.3689 19.9108   1
  -2   4   5 64.8312 19.6519   1
  -2   4   6 287.525 40.6575   1
   2  -4  -6 295.379 38.8669   1
  -4  -2   7 174.549 33.1901   1
   2  -4  -7 190.606 32.0279   1
  -2   4   7 192.635 35.5984   1
  -4  -2   8 14.3119 16.1426   1
   2  -4  -8-5.94971 13.0525   1
  -2   4   8 15.7943 9.52689   1
  -4  -2   9 98.6252 25.7669   1
   2  -4  -9 115.785 26.9289   1
  -2   4   9 93.9924 25.4343   1
  -2   4  10 543.222 62.3978   1
  -4  -2  10 559.987 60.5697   1
   2  -4 -10 642.017 63.6030   1
   2  -4 -11 99.5067 22.9486   1
  -2   4  11 82.6403 23.3095   1
  -4  -2  11 80.7439 26.9963   1
  -4  -2  12 200.633 38.7552   1
   2  -4 -12 243.410 43.2016   1
  -2   4 -12 206.219 28.0912   1
  -2   4  12 226.159 40.3848   1
  -2   4 -13 14.2791 10.0885   1
  -2   4  13-18.4175 17.9928   1
  -4  -2  13 35.7724 17.2643   1
   4   2 -13 27.2306 14.9954   1
   2  -4 -13 35.4383 17.8547   1
  -2   4  14 58.0744 22.7247   1
  -2   4 -14 80.5075 20.2167   1
   4   2 -14 67.7327 27.0604   1
  -4  -2  14 72.0207 25.1105   1
   2  -4 -14 110.896 33.6356   1
  -2   4 -15 6.94798 8.05140   1
   2  -4 -15 43.9450 25.5834   1
  -2   4  15 1.14355 15.6327   1
  -4  -2  15 15.1088 16.2445   1
   4   2 -15-0.98808 13.1981   1
  -4  -2 -16 300.352 54.4551   1
  -4  -2  16 294.851 50.5927   1
   4   2 -16 324.511 50.7469   1
   2  -4 -16 324.554 54.3663   1
  -2   4 -16 294.904 39.2478   1
  -2   4  16 278.216 54.0741   1
  -2   4  17 58.9842 25.1503   1
  -2   4 -17 36.7852 13.9057   1
  -4  -2  17 46.5691 22.0648   1
   2  -4 -17 54.2719 23.3984   1
   4   2 -17 12.5072 16.6915   1
  -2   4  18 81.1689 28.8405   1
   4   2 -18 125.249 34.7399   1
  -4  -2  18 108.656 29.4961   1
  -2   4 -18 113.192 28.2338   1
  -2   4 -19 20.7536 7.78559   1
  -2   4  19 26.2968 12.5764   1
  -4  -2  19 52.9742 27.8391   1
   4   2 -19 37.1849 18.5917   1
  -2   4  20 51.8274 25.7961   1
  -4  -2  20 48.7457 27.6982   1
   4   2 -20 52.8592 26.8286   1
  -2   4 -20 50.2946 18.9531   1
  -2   4  21 52.9470 27.5764   1
  -4  -2  21 57.0511 29.1373   1
   4   2 -21 91.4950 32.3391   1
  -2   4 -21 63.2569 23.4483   1
  -2   4  22 104.197 39.8674   1
  -4  -2  22 82.7887 32.9323   1
  -2   4 -22 127.489 30.6858   1
  -2   4  23 43.4150 10.2467   1
  -2   4 -23 68.7245 25.7658   1
  -4  -2  23 65.1915 28.7143   1
  -4  -2  24 16.6683 16.7082   1
  -2   4 -24 50.3368 23.8417   1
  -2   4  24-26.1552 23.2622   1
  -2   4 -25 113.751 32.8453   1
  -4  -2  25 119.935 42.2675   1
  -2   4  25 64.8042 28.3491   1
  -2   4  26 13.7384 15.0308   1
  -4  -2  26 55.7760 32.0325   1
  -2   4 -26 22.7838 14.4351   1
  -4  -2  27 190.298 51.7234   1
  -2   4  27 157.654 52.4235   1
  -2   4 -27 188.965 41.0386   1
  -2   4  28-15.9553 21.1329   1
  -4  -2  28 8.67259 16.3559   1
  -2   4  29 125.563 47.6994   1
  -4  -2  29 56.0327 26.9805   1
  -4  -2  30 40.0843 29.3450   1
  -2   4  30 30.3911 19.6161   1
  -4  -2  31 153.412 49.5413   1
  -2   4  31 118.878 43.5542   1
  -2   4  32-15.3034 21.3753   1
  -4  -2  32 32.2530 27.3211   1
  -2   4  33 60.7438 40.4564   1
  -4  -2  33-21.8252 27.6404   1
  -4  -2  34 13.0777 14.8063   1
  -2   4  34 41.0318 18.6133   1
  -4  -2  35 81.9445 37.5007   1
  -2   4  35 143.624 54.2423   1
  -2   4  36 29.1323 32.6027   1
  -4  -2  36 15.6603 16.7968   1
  -2   4  37 92.9782 51.0598   1
  -4  -2  37 110.938 47.8540   1
  -4  -2  38-18.6728 26.8591   1
  -2   4  38-17.9413 27.0574   1
  -2   4  39 56.1930 40.2090   1
  -4  -2  39 103.784 41.9220   1
  -4  -2  40 28.1504 31.1263   1
  -2   4  40-8.23639 18.7881   1
  -4  -2  41 28.3758 33.8199   1
  -2   4  41 46.0676 25.8684   1
  -2   4  42-2.22708 16.1789   1
  -4  -2  42 1.33706 22.6215   1
  -2   4  43 5.48797 21.3279   1
  -4  -2  43 48.3018 39.0183   1
  -4  -2  44 27.2197 19.7722   1
  -2   4  44 41.3142 52.6022   1
  -4  -2  45-32.5470 31.8966   1
  -2   4  45 0.83408 22.3328   1
  -4  -2  46 2.20852 30.6733   1
  -2   4  46 25.4913 41.0715   1
  -4  -2  47 47.2867 41.0178   1
  -2   4  47-11.6598 26.2364   1
  -4  -2  48 35.7794 35.4111   1
  -2   4  48-10.1191 29.6515   1
  -4  -2  49 13.4422 20.4413   1
  -2   4  49-39.4595 36.7871   1
  -2   4  50 43.4882 38.3758   1
  -4  -2  50-31.9443 37.3363   1
  -2   4  51 39.9753 29.0137   1
  -4  -2  51 37.8441 36.7563   1
  -2   4  52 27.7818 38.6291   1
  -4  -2  52-0.96652 17.8058   1
  -2   4  53-20.4261 32.1492   1
  -4  -2  53 0.31549 31.1685   1
  -4  -2  54 36.9768 41.2838   1
  -4  -2  55 33.2172 37.8464   1
  -4  -2  56-15.7828 25.0100   1
  -4  -2  57 5.72135 22.8613   1
  -3   4   0 1753.04 92.4342   1
  -3   4  -1 33.2872 12.7423   1
  -3   4   1 8.15997 7.63376   1
  -3   4  -2 145.268 23.3624   1
  -3   4   2 130.219 26.6684   1
   3  -4  -3 68.8845 22.8863   1
  -3   4   3 59.3076 17.3352   1
   3  -4  -4 368.772 45.8042   1
  -3   4   4 317.124 42.9138   1
  -3   4   5 26.2023 12.9292   1
   3  -4  -5 13.0571 11.8400   1
   3  -4  -6 75.3773 22.7593   1
  -3   4   6 42.3833 9.03745   1
   3  -4  -7 278.221 43.3430   1
  -3   4   7 215.479 37.3667   1
  -4  -3   8 599.773 61.7056   1
   3  -4  -8 693.664 67.4025   1
  -3   4   8 616.374 66.8228   1
  -4  -3   9 67.4858 22.4642   1
  -3   4   9 64.9357 26.0368   1
   3  -4  -9 35.1042 12.6383   1
  -4  -3  10-1.71920 14.2448   1
  -3   4  10-8.11208 12.6230   1
   3  -4 -10-7.23599 14.8225   1
  -4  -3  11 169.904 32.0418   1
   3  -4 -11 214.999 41.0131   1
  -3   4  11 183.868 34.3727   1
  -4  -3  12 200.624 40.2932   1
   3  -4 -12 257.001 42.9377   1
  -3   4  12 227.710 45.1776   1
  -3   4  13 64.3732 23.5257   1
  -4  -3  13 30.1414 13.9412   1
   3  -4 -13 29.1459 20.5966   1
  -4  -3  14 57.3453 22.2055   1
  -3   4  14 45.0330 21.9521   1
   3  -4 -14 11.7399 13.5352   1
  -4  -3  15 178.202 39.9433   1
   3  -4 -15 161.952 40.4052   1
  -4  -3 -15 195.167 45.2018   1
  -3   4  15 152.872 39.5053   1
  -3   4  16 267.503 53.5261   1
   3  -4 -16 330.306 60.2586   1
  -4  -3  16 288.492 49.9594   1
   4   3 -16 299.939 51.9142   1
  -3   4 -16 345.996 45.3437   1
   4   3 -17-1.09111 13.0454   1
  -3   4 -17 11.7027 11.0782   1
  -3   4  17 8.24600 16.1210   1
  -4  -3  17 45.8161 22.1035   1
  -4  -3  18 23.7145 18.6350   1
   4   3 -18 52.9045 21.4747   1
  -3   4 -18 35.5142 15.0055   1
  -3   4  18 28.4840 17.6694   1
  -3   4 -19 20.7963 11.8294   1
   4   3 -19 24.7953 17.4137   1
  -3   4  19 27.6199 25.0041   1
  -4  -3  19 11.1249 22.0213   1
  -3   4 -20 378.371 53.8741   1
  -3   4  20 334.130 63.9897   1
   4   3 -20 366.390 57.8718   1
  -4  -3  20 288.965 56.0121   1
  -3   4 -21 32.0530 16.8595   1
   4   3 -21 12.3796 18.0992   1
  -3   4  21 28.5867 18.9960   1
  -4  -3  21 4.74727 8.78703   1
  -3   4 -22 15.2057 10.7308   1
  -3   4  22-25.4693 23.3428   1
   4   3 -22-15.2685 20.9923   1
  -4  -3  22 25.3636 22.4724   1
  -3   4  23 96.7608 38.7319   1
  -3   4 -23 95.3225 31.4918   1
  -4  -3  23 107.621 37.5673   1
  -3   4 -24 13.1914 12.2438   1
  -3   4  24 17.7728 19.0419   1
  -4  -3  24 31.4599 21.0151   1
  -4  -3  25 25.4383 13.4049   1
  -3   4 -25 75.4100 29.0499   1
  -3   4  25 23.6656 20.6487   1
  -3   4  26-7.11006 24.1563   1
  -4  -3  26 16.5473 16.0816   1
  -4  -3  27 268.210 57.7331   1
  -3   4  27 288.900 65.8080   1
  -3   4  28-20.0679 19.2030   1
  -4  -3  28 11.4270 12.3594   1
  -4  -3  29 50.4168 25.1068   1
  -3   4  29 48.2204 28.5631   1
  -3   4  30-32.1754 24.0020   1
  -4  -3  30-10.1894 11.4570   1
  -4  -3  31 62.5670 31.3160   1
  -3   4  31 92.5563 47.3478   1
  -4  -3  32 16.8992 27.2360   1
  -3   4  32 6.87414 26.5276   1
  -3   4  33 5.88159 24.6446   1
  -4  -3  33 36.2117 25.7854   1
  -3   4  34 33.8238 32.8570   1
  -4  -3  34 6.58194 19.5535   1
  -4  -3  35 56.8406 28.1397   1
  -3   4  35 129.242 50.3069   1
  -4  -3  36 12.1193 15.3280   1
  -3   4  36 48.3283 24.5155   1
  -3   4  37 107.529 49.2073   1
  -4  -3  37 77.2669 30.7839   1
  -3   4  38-11.5704 28.6158   1
  -4  -3  38 59.5040 32.4938   1
  -3   4  39 43.9134 33.7227   1
  -4  -3  39 83.0417 30.8995   1
  -4  -3  40-11.9701 25.2721   1
  -3   4  40 50.4940 40.4623   1
  -3   4  41 52.0720 16.3185   1
  -4  -3  41 59.9983 34.2490   1
  -3   4  42-38.8645 42.1710   1
  -4  -3  42 18.8269 27.0264   1
  -3   4  43 58.7428 40.8098   1
  -4  -3  43 18.4495 27.7917   1
  -3   4  44-1.36220 21.5790   1
  -4  -3  44 36.2599 33.4783   1
  -3   4  45 41.9723 44.7559   1
  -4  -3  45 16.3213 24.3521   1
  -4  -3  46-7.41210 30.0179   1
  -3   4  46 13.4079 27.3574   1
  -4  -3  47-0.26149 19.9475   1
  -3   4  47 39.9052 42.0924   1
  -4  -3  48 31.8285 33.4563   1
  -3   4  48 61.7270 41.4259   1
  -4  -3  49 11.6763 20.2915   1
  -3   4  49 62.3895 34.1178   1
  -3   4  50 48.2121 36.3621   1
  -4  -3  50 15.7605 26.2986   1
  -3   4  51-19.5971 19.8804   1
  -4  -3  51 0.99836 19.5387   1
  -3   4  52 42.7167 29.6644   1
  -4  -3  52-17.8894 30.4786   1
  -3   4  53-21.1097 44.6084   1
  -4  -3  53 3.98635 24.0901   1
  -4  -3  54-5.39157 18.0650   1
  -4  -3  55 37.8659 27.5025   1
  -4  -3  56 40.8389 44.9078   1
  -4  -3  57-63.0258 53.5236   1
  -4   4   0 419.965 52.7138   1
  -4   4   1 2.68183 9.62051   1
  -4   4  -1-12.5243 10.4845   1
  -4   4   2 785.977 70.6729   1
  -4   4   3 5.88523 10.5120   1
  -4   4   4 324.330 48.6177   1
  -4   4   5 9.50650 18.3770   1
  -4   4   6 157.477 33.6095   1
   4  -4  -6 160.850 35.8486   1
  -4   4   7 17.4843 10.0957   1
   4  -4  -7 36.5804 15.9782   1
  -4   4   8 109.220 26.8968   1
  -4  -4   8 93.2300 26.6030   1
   4  -4  -8 130.559 28.6364   1
  -4  -4   9 417.309 50.5455   1
  -4   4   9 407.283 58.3143   1
   4  -4  -9 385.989 57.6409   1
  -4  -4  10 20.9966 12.1477   1
   4  -4 -10 35.4475 19.7079   1
  -4   4  10 51.4979 23.3816   1
  -4  -4  11 27.3032 16.5659   1
   4  -4 -11 8.42326 16.0251   1
  -4   4  11 25.7923 10.4711   1
   4  -4 -12 30.1363 18.2913   1
  -4  -4  12 55.2588 20.4731   1
  -4   4  12 31.6991 18.6777   1
  -4  -4 -13 693.390 83.7044   1
  -4  -4  13 692.302 70.5367   1
   4  -4 -13 670.531 83.5148   1
  -4   4  13 683.136 81.4518   1
   4  -4 -14 62.1896 27.5188   1
  -4   4  14 57.3081 32.4511   1
  -4  -4  14 23.4669 10.5668   1
  -4  -4 -14 30.9496 22.0870   1
  -4  -4  15 92.9902 25.1826   1
  -4   4  15 92.1215 32.6300   1
  -4   4  16 33.4054 25.6487   1
  -4  -4  16 29.0260 17.6191   1
  -4  -4  17 65.7060 25.1084   1
  -4   4  17 78.2594 26.7500   1
  -4  -4  18 84.0947 29.1622   1
  -4   4  18 70.5724 28.2547   1
  -4   4  19 54.4396 27.0536   1
   4   4 -19 3.92143 16.8185   1
  -4  -4  19 65.9971 27.4338   1
  -4   4 -19 22.2937 13.9927   1
  -4   4 -20 8.38419 11.3363   1
  -4   4  20-9.31345 17.3422   1
   4   4 -20-11.5281 9.15111   1
  -4  -4  20 13.9268 18.7389   1
  -4  -4  21 107.503 34.4688   1
   4   4 -21 105.373 29.2272   1
  -4   4  21 93.3276 36.7675   1
  -4   4 -21 70.8774 23.6708   1
  -4   4  22 15.1938 17.7546   1
  -4   4 -22 27.4827 17.2586   1
  -4  -4  22 30.8220 16.3325   1
   4   4 -22 58.4212 26.5242   1
  -4  -4  23 17.7882 17.2978   1
  -4   4 -23 16.0718 9.04717   1
  -4   4  23 11.6542 13.6663   1
   4   4 -23 18.2710 9.16200   1
  -4   4  24 3.97464 11.4196   1
  -4  -4  24 28.1166 24.0705   1
  -4  -4  25 322.084 60.2309   1
  -4   4  25 248.681 64.2743   1
  -4  -4  26 58.2214 30.8366   1
  -4   4  26 45.2832 34.7620   1
  -4   4  27 112.754 43.4144   1
  -4  -4  27 133.021 39.6605   1
  -4  -4  28-3.41294 24.4664   1
  -4   4  28-11.6286 22.4293   1
  -4  -4  29 109.061 38.6805   1
  -4   4  29 100.111 44.7040   1
  -4  -4  30-0.70282 21.9280   1
  -4   4  30-6.93663 17.7338   1
  -4  -4  31 18.8301 16.2007   1
  -4   4  31-3.64736 16.4451   1
  -4  -4  32 16.1543 16.1260   1
  -4   4  32-6.63540 18.1124   1
  -4   4  33-27.3306 29.6222   1
  -4  -4  33-1.13280 11.2592   1
  -4   4  34-1.83064 23.7533   1
  -4  -4  34 25.6431 11.7319   1
  -4  -4  35 22.7927 22.1779   1
  -4   4  35 16.6905 16.7433   1
  -4   4  36 45.9020 46.9760   1
  -4  -4  36-2.89079 19.8461   1
  -4  -4  37 145.549 52.6303   1
  -4   4  37 74.0309 33.9461   1
  -4  -4  38-36.6575 33.5555   1
  -4   4  38-45.1242 33.3163   1
  -4  -4  39-26.7371 32.5582   1
  -4   4  39 54.9952 36.5185   1
  -4  -4  40-8.11762 25.6270   1
  -4   4  40 38.3225 38.0752   1
  -4  -4  41 71.0151 29.4970   1
  -4   4  41 92.4392 38.4393   1
  -4   4  42-6.25223 28.5339   1
  -4  -4  42 7.64928 15.6848   1
  -4  -4  43 25.4754 32.4471   1
  -4   4  43 36.8337 38.4853   1
  -4  -4  44-1.79508 29.8924   1
  -4   4  44 68.6141 46.7676   1
  -4   4  45 70.9866 48.8823   1
  -4  -4  45 59.8016 41.4585   1
  -4   4  46 115.245 53.0817   1
  -4  -4  46 106.678 44.2597   1
  -4  -4  47 15.2381 18.2472   1
  -4   4  47 74.9529 54.7511   1
  -4   4  48-4.96259 35.2104   1
  -4  -4  48 56.4089 45.0697   1
  -4   4  49 22.6583 36.2786   1
  -4  -4  49 10.9741 23.8094   1
  -4  -4  50 34.3696 36.2796   1
  -4   4  50 27.8041 32.4151   1
  -4   4  51 42.2643 45.4328   1
  -4  -4  51 11.8182 32.4476   1
  -4   4  52 49.4021 26.2990   1
  -4  -4  52 47.4075 33.5651   1
  -4  -4  53 40.3182 28.8801   1
  -4  -4  54 14.4241 31.3784   1
  -4  -4  55 74.7061 45.1669   1
  -4  -4  56 35.2611 36.3065   1
  -5   4   0 449.628 58.5085   1
  -5   4   1 31.3932 18.4988   1
  -5   4  -1 50.2350 23.2503   1
  -5   4   2 649.866 72.4219   1
  -5   4   3 17.2178 9.60746   1
  -5   4   4 66.5997 24.4610   1
  -5   4   5 34.5829 17.3401   1
  -5   4   6 301.855 51.3307   1
  -5   4   7 135.573 35.5137   1
   5  -4  -8 78.4924 26.4996   1
  -5   4   8 95.3971 29.4243   1
  -5   4   9 92.2690 32.8062   1
   5  -4  -9 61.5387 18.4592   1
  -4  -5   9 66.9015 21.9813   1
  -4  -5  10 302.599 44.4746   1
  -5   4  10 285.913 58.7608   1
   5  -4 -10 317.550 53.7252   1
  -4  -5 -11 150.187 36.4010   1
  -5   4  11 115.957 35.9534   1
  -4  -5  11 156.048 33.4124   1
   5  -4 -11 119.972 38.2498   1
  -4  -5 -12 37.5307 21.0959   1
  -5   4  12 14.1957 12.9832   1
  -4  -5  12 7.89197 11.7684   1
  -4  -5  13 105.218 27.2633   1
  -5   4  13 114.633 36.3847   1
  -4  -5  14 400.531 51.1090   1
  -5   4  14 398.538 68.8984   1
  -4  -5  15 132.604 32.2000   1
  -5   4  15 77.7681 31.2817   1
  -4  -5  16 22.6478 18.5609   1
  -5   4  16-30.9866 24.4078   1
  -4  -5  17 119.495 31.2995   1
  -5   4  17 98.6725 37.4338   1
  -5   4  18 103.533 34.7040   1
  -4  -5  18 94.8521 29.2864   1
  -4  -5  19 109.363 32.1681   1
  -5   4  19 84.8314 33.5033   1
  -4  -5  20 39.4997 23.7578   1
  -5   4  20 22.9399 17.0268   1
  -5   4  21 121.800 44.9245   1
  -4  -5  21 65.9355 24.1230   1
   4   5 -22 11.9178 16.2891   1
  -5   4  22 23.2721 31.9428   1
  -4  -5  22 26.5508 17.1628   1
   4   5 -23 116.601 32.0283   1
  -4  -5  23 76.0608 28.2267   1
  -5   4  23 107.543 44.4425   1
  -4  -5  24-23.8553 20.0975   1
   4   5 -24-28.3803 20.1954   1
  -5   4  24 46.6148 36.9530   1
  -4  -5  25 118.196 36.1586   1
  -5   4  25 90.8388 37.3584   1
  -4  -5  26 48.6473 26.0538   1
  -5   4  26 40.9544 20.8698   1
  -4  -5  27 139.620 40.1570   1
  -5   4  27 147.683 53.8481   1
  -5   4  28 10.2232 17.3037   1
  -4  -5  28 49.1937 20.4592   1
  -5   4  29 24.5582 30.1576   1
  -4  -5  29-7.00377 11.6514   1
  -4  -5  30 12.5410 10.4543   1
  -5   4  30 8.43233 19.8059   1
  -4  -5  31 36.8232 25.3505   1
  -5   4  31 39.4312 35.7884   1
  -5   4  32 68.2579 41.9602   1
  -4  -5  32 54.5170 32.4747   1
  -4  -5  33 31.6775 24.0231   1
  -5   4  33 123.251 58.0118   1
  -4  -5  34 18.7631 14.8159   1
  -5   4  34 15.7776 22.6681   1
  -5   4  35 21.4700 25.7788   1
  -4  -5  35 46.1666 26.5111   1
  -5   4  36-12.5295 21.8772   1
  -4  -5  36 32.2189 23.4093   1
  -4  -5  37 82.9902 38.7632   1
  -5   4  37 134.868 60.0283   1
  -5   4  38-2.75528 23.1098   1
  -4  -5  38 2.56362 18.6102   1
  -5   4  39 69.1972 44.0435   1
  -4  -5  39 36.3544 31.8227   1
  -5   4  40-34.4187 34.7904   1
  -4  -5  40 3.61121 13.8472   1
  -4  -5  41 87.9961 39.2285   1
  -5   4  41 97.5178 50.6318   1
  -4  -5  42 11.2133 27.5398   1
  -5   4  42-6.40657 34.2838   1
  -5   4  43 80.8226 46.9201   1
  -4  -5  43 80.8433 35.7354   1
  -4  -5  44 15.0422 18.6032   1
  -5   4  44 25.2704 18.7750   1
  -4  -5  45 49.6270 41.9885   1
  -5   4  45 51.3392 46.8409   1
  -4  -5  46 25.0421 16.7808   1
  -5   4  46 54.2840 46.8797   1
  -4  -5  47 35.5812 28.7928   1
  -5   4  47 0.79694 21.0413   1
  -5   4  48 30.8444 25.1635   1
  -4  -5  48 14.0163 22.9943   1
  -5   4  49-19.8880 30.7096   1
  -4  -5  49 33.3931 28.5216   1
  -4  -5  50-53.6263 29.2280   1
  -5   4  50 98.2868 50.7701   1
  -5   4  51 45.3990 46.1466   1
  -4  -5  51 21.6322 16.8097   1
  -4  -5  52-27.2490 20.4025   1
  -5   3   1 41.5688 20.3749   1
  -5   3   2 73.0821 26.5565   1
  -5   3   3 7.90583 14.0999   1
  -5   3   4 65.4608 23.9265   1
  -5   3   5 126.421 35.2048   1
  -5   3   6 81.0949 28.7693   1
  -3  -5  -7 203.599 40.1150   1
  -5   3   7 172.221 39.8100   1
  -3  -5   8 66.1925 17.0700   1
  -5   3   8 57.0966 25.9312   1
  -3  -5  -8 73.8865 24.2845   1
  -3  -5  -9 188.091 36.1935   1
  -5   3   9 167.360 37.4223   1
   5  -3  -9 159.125 36.2501   1
  -3  -5   9 195.288 29.1891   1
  -5   3  10 12.6652 11.9117   1
   5  -3 -10-7.07041 11.3574   1
  -3  -5  10 33.7813 12.7312   1
  -3  -5 -10 31.8048 22.4426   1
  -5   3  11 95.5880 35.2661   1
   5  -3 -11 118.457 33.5335   1
  -3  -5 -11 96.4967 29.0325   1
  -3  -5  11 100.171 22.5184   1
  -3  -5 -12 36.7643 25.2901   1
  -5   3  12-4.26437 19.2313   1
   5  -3 -12 10.4539 9.83442   1
  -3  -5  12-2.47554 10.1161   1
  -5   3  13 145.844 41.3895   1
  -3  -5 -13 237.351 49.5661   1
  -3  -5  13 193.415 31.2238   1
  -3  -5  14 36.9223 16.0614   1
  -3  -5 -14 15.7083 15.0708   1
  -5   3  14 33.3283 23.3121   1
  -3  -5  15 54.5470 17.2704   1
  -3  -5 -15 78.2906 30.8777   1
  -5   3  15 33.1291 23.7371   1
  -5   3  16 28.7511 21.7010   1
  -3  -5  16 16.4296 8.67762   1
  -5   3  17 71.3015 30.6347   1
  -3  -5  17 82.4279 23.3029   1
  -3  -5  18 108.153 26.7563   1
  -5   3  18 139.995 44.6916   1
  -3  -5  19 196.143 37.4079   1
  -5   3  19 208.019 53.7855   1
   3   5 -19 193.478 35.3107   1
  -3  -5  20 23.7161 15.7566   1
   3   5 -20 11.0869 10.0829   1
  -5   3  20 4.38660 16.3550   1
  -3  -5  21 109.480 29.2062   1
   3   5 -21 101.393 26.4886   1
  -5   3  21 102.433 39.3312   1
  -3  -5  22 12.8540 7.84044   1
  -5   3  22 23.9451 12.7597   1
   3   5 -22-0.66059 9.80656   1
   3   5 -23 59.9798 18.8290   1
  -5   3  23 36.9154 29.2602   1
  -3  -5  23 56.0999 20.2603   1
  -5   3  24 3.91900 15.3703   1
  -3  -5  24 4.86761 13.7856   1
   3   5 -24-1.64304 10.1619   1
  -5   3  25 284.063 68.6591   1
   3   5 -25 232.053 43.6492   1
  -3  -5  25 202.748 45.4269   1
   3   5 -26 22.1344 15.7168   1
  -5   3  26 11.5848 23.1925   1
  -3  -5  26 2.79680 17.3057   1
  -5   3  27 109.913 43.3903   1
  -3  -5  27 146.510 39.0051   1
  -5   3  28-15.5861 21.4902   1
  -3  -5  28-13.5466 18.4862   1
  -3  -5  29 143.333 43.1604   1
  -5   3  29 119.370 43.7062   1
  -5   3  30 21.5995 14.9937   1
  -3  -5  30 20.6782 15.9274   1
  -5   3  31 73.9318 42.3193   1
  -3  -5  31 132.657 44.2893   1
  -3  -5  32 4.76307 19.4636   1
  -5   3  32-3.76029 28.4879   1
  -3  -5  33 96.9313 33.7658   1
  -5   3  33 86.5358 42.6277   1
  -5   3  34 25.9652 25.5695   1
  -3  -5  34-4.20431 26.6997   1
  -3  -5  35 119.166 39.3935   1
  -5   3  35 148.996 60.3664   1
  -5   3  36-6.83381 21.9338   1
  -3  -5  36-4.11403 20.3431   1
  -3  -5  37 90.2596 37.5457   1
  -5   3  37 81.0050 52.0421   1
  -3  -5  38-9.50711 14.4583   1
  -5   3  38 13.2393 23.8952   1
  -3  -5  39 127.333 47.3950   1
  -5   3  39 158.926 66.8304   1
  -5   3  40 3.23448 16.1190   1
  -3  -5  40-21.2016 27.3986   1
  -3  -5  41 38.3454 25.6783   1
  -5   3  41 9.14228 22.0691   1
  -5   3  42 34.2096 29.9780   1
  -3  -5  42 23.1979 29.2501   1
  -3  -5  43 117.540 47.7643   1
  -5   3  43 71.3702 41.8976   1
  -3  -5  44 3.00157 21.2691   1
  -5   3  44 15.2036 30.0057   1
  -3  -5  45 41.8229 36.0949   1
  -5   3  45 15.8133 20.7843   1
  -5   3  46 14.4857 28.2871   1
  -3  -5  46 29.2238 29.2175   1
  -5   3  47 45.1995 45.2337   1
  -3  -5  47 91.2109 53.8908   1
  -5   3  48-31.4837 20.1094   1
  -3  -5  48-39.1068 37.4993   1
  -3  -5  49 45.2256 20.2003   1
  -5   3  49 91.1116 41.2464   1
  -5   3  50-3.97402 26.8186   1
  -3  -5  50 51.7901 48.3106   1
  -5   3  51-11.1586 19.1328   1
  -3  -5  51 3.37506 17.5188   1
  -3  -5  52 64.1023 46.8509   1
  -5   3  52 47.1583 56.5660   1
  -2  -5  -2 100.205 19.8454   1
  -2  -5  -3 17.4140 8.71785   1
  -5   2   3 3.49839 10.0632   1
  -2  -5  -4 20.6782 11.0965   1
  -5   2   4 10.5860 16.2389   1
  -2  -5  -5 122.799 28.2328   1
  -5   2   5 82.9831 26.4795   1
  -5   2   6 51.1824 23.5235   1
  -2  -5  -6 72.9845 16.5295   1
  -5   2   7 11.2765 16.7301   1
  -2  -5   7 26.8361 8.01097   1
  -2  -5  -7 23.7686 9.59308   1
  -5   2   8 10.0318 11.7934   1
  -2  -5   8-4.92917 4.81766   1
  -2  -5  -8-12.4198 13.4719   1
  -5   2   9 137.874 37.1648   1
  -2  -5   9 120.943 18.7921   1
  -2  -5  -9 130.292 31.7848   1
  -5   2  10 69.1093 27.4057   1
  -2  -5  10 107.349 19.0862   1
  -2  -5 -10 102.097 27.0280   1
   5  -2 -10 106.906 33.4261   1
  -2  -5  11 82.3492 17.8731   1
   5  -2 -11 91.4560 33.9717   1
  -2  -5 -11 52.1416 16.0123   1
  -5   2  11 107.463 32.3398   1
  -2  -5 -12 108.084 30.9248   1
   5  -2 -12 120.175 31.3745   1
  -5   2  12 90.9844 30.4043   1
  -2  -5  12 108.588 18.9123   1
  -2  -5 -13 25.2450 17.9834   1
  -5   2  13 14.9325 12.4540   1
   5  -2 -13 4.99694 16.5509   1
  -2  -5  13 29.2465 9.32826   1
  -2  -5  14 256.775 32.3099   1
  -2  -5 -14 243.707 45.1346   1
  -5   2  14 228.840 51.1007   1
  -2  -5 -15 207.832 44.6595   1
  -5   2  15 163.619 45.1438   1
   2   5 -15 191.110 28.3143   1
  -2  -5  15 209.975 31.1359   1
   2   5 -16 27.5558 11.2486   1
  -2  -5  16 7.77063 6.60301   1
  -5   2  16 12.8764 18.5262   1
  -2  -5 -16 21.1941 23.0162   1
  -2  -5  17 42.6682 15.0292   1
  -5   2  17 23.7478 22.2339   1
   2   5 -17 19.8805 9.91818   1
   2   5 -18 70.3350 20.6884   1
  -5   2  18 49.1345 23.4360   1
  -2  -5  18 53.3064 17.6305   1
  -2  -5  19 198.216 36.3129   1
  -5   2  19 126.310 39.9676   1
   2   5 -19 177.220 30.5410   1
  -2  -5  20 33.3696 14.7385   1
   2   5 -20 54.5931 16.4560   1
  -5   2  20 68.8073 34.1139   1
  -5   2  21 102.050 38.8088   1
   2   5  21 100.890 38.2194   1
  -2  -5  21 87.0728 26.1152   1
   2   5 -21 90.1477 26.3579   1
   2   5 -22 25.6228 12.9469   1
  -2  -5  22 0.03609 7.85274   1
  -5   2  22 2.58752 13.6997   1
   2   5  22 27.2019 23.8463   1
  -5   2  23 87.0996 39.2474   1
   2   5  23 45.8770 25.8648   1
   2   5 -23 91.7689 28.6579   1
  -2  -5  23 87.8879 28.4940   1
   2   5 -24 43.9152 22.8495   1
   2   5  24 22.4876 17.3935   1
  -2  -5  24 25.5515 17.3169   1
  -5   2  24 8.44312 24.1095   1
   2   5 -25 139.618 35.2672   1
   2   5  25 69.0506 37.9180   1
  -2  -5  25 111.236 33.2352   1
  -5   2  25 148.751 51.7112   1
  -5   2  26 14.2519 17.7289   1
   2   5 -26 16.4087 16.3552   1
  -2  -5  26 40.4746 21.7827   1
   2   5  26-9.71809 13.8347   1
  -5   2  27 149.064 56.3571   1
  -2  -5  27 109.422 34.0499   1
   2   5 -27 118.228 31.6235   1
   2   5  27 130.441 43.9354   1
  -2  -5  28 29.1485 21.9874   1
   2   5  28 77.2773 38.6934   1
   2   5 -28 1.65088 12.0144   1
  -5   2  28-5.39456 15.8447   1
  -5   2  29 123.650 45.4988   1
  -2  -5  29 139.717 38.5924   1
   2   5  29 86.8815 42.5161   1
  -2  -5  30 3.71155 9.12679   1
  -5   2  30-3.62839 19.9496   1
   2   5  30 41.7457 35.6671   1
  -5   2  31 51.2900 39.7521   1
  -2  -5  31 74.4886 29.4808   1
   2   5  31 44.1609 38.9945   1
  -2  -5  32-8.00422 18.7725   1
  -5   2  32-12.3619 23.5354   1
   2   5  32-1.33670 18.4358   1
  -2  -5  33 27.3932 11.5470   1
   2   5  33 71.0445 34.2153   1
  -5   2  33 36.3349 34.8549   1
   2   5  34 0.91589 25.9575   1
  -2  -5  34-5.29062 9.98299   1
  -5   2  34 9.76741 26.7516   1
  -5   2  35 45.1091 23.9327   1
  -2  -5  35 59.2259 30.9065   1
   2   5  35 5.20720 25.2980   1
  -5   2  36 33.2729 27.1260   1
  -2  -5  36 2.78786 15.2512   1
  -5   2  37 41.9648 35.7786   1
  -2  -5  37 50.3693 27.2554   1
  -5   2  38-2.16876 23.9879   1
  -2  -5  38 26.5573 28.0368   1
  -5   2  39 15.3478 33.1458   1
  -2  -5  39 17.1980 18.6586   1
  -5   2  40 2.91708 21.4924   1
  -2  -5  40 30.2051 28.6304   1
  -5   2  41 88.7447 41.0383   1
  -2  -5  41 84.4216 42.3046   1
  -2  -5  42 8.77701 22.0428   1
  -5   2  42-7.63295 20.7884   1
  -5   2  43-0.55973 32.1145   1
  -2  -5  43 14.3771 12.0440   1
  -2  -5  44 23.2497 32.6812   1
  -5   2  44-28.6844 26.5989   1
  -2  -5  45 67.6368 37.3666   1
  -5   2  45 73.0622 42.3784   1
  -2  -5  46-32.8645 32.4437   1
  -5   2  46-87.1419 56.6742   1
  -2  -5  47 54.2114 31.6702   1
  -5   2  47 95.0119 52.9670   1
  -5   2  48 38.9465 33.6286   1
  -2  -5  48-47.6516 35.4782   1
  -5   2  49-47.7115 52.5204   1
  -2  -5  49 33.9917 13.6674   1
  -2  -5  50-32.0289 30.6211   1
  -5   2  50 26.6497 46.9078   1
  -2  -5  51 57.1755 36.2278   1
  -5   2  51 83.9372 54.4175   1
  -5   2  52-7.12041 20.2457   1
  -2  -5  52-11.1174 17.6569   1
  -5   2  53 3.33847 22.7898   1
  -1  -5   0 165.201 20.8332   1
  -1  -5  -1 139.016 20.1234   1
  -1  -5   1 134.106 16.7622   1
  -1  -5  -2 56.9071 14.9685   1
  -1  -5   2 54.2116 11.1852   1
  -1  -5   3 29.0334 7.58707   1
  -1  -5  -3 8.19441 9.10141   1
  -1  -5  -4 317.990 35.7068   1
  -1  -5   4 246.857 19.8103   1
  -5   1   5-10.8740 16.6079   1
  -1  -5  -5-8.80383 12.5691   1
  -5   1   6 14.6144 19.9128   1
  -1  -5  -6 18.4320 10.5485   1
   1   5   7 24.6791 12.8999   1
  -5   1   7 34.6643 19.3827   1
  -1  -5  -7 22.5731 10.0695   1
   1   5   8 507.025 57.0329   1
  -1  -5  -8 542.844 56.2368   1
  -5   1   8 516.340 64.5468   1
  -1  -5   9 56.1904 9.51746   1
  -5   1   9 30.1023 17.2362   1
  -1  -5  -9 72.0070 22.1216   1
   1   5   9 75.8109 24.1617   1
   1   5  10 66.0871 21.4739   1
  -1  -5  10 49.1502 9.95284   1
  -5   1  10 79.3102 29.5534   1
  -1  -5 -10 33.6224 13.0221   1
   1   5  11 66.1315 23.7815   1
  -5   1  11 84.5349 27.6856   1
  -1  -5  11 79.9597 13.3931   1
  -1  -5 -11 96.4035 28.3184   1
   5  -1 -11 43.2379 16.9533   1
   5  -1 -12 490.385 65.4644   1
  -1  -5  12 444.481 33.2679   1
  -5   1  12 418.581 64.5082   1
  -1  -5 -12 540.952 62.8862   1
   1   5  12 442.616 57.6608   1
  -1  -5 -13 80.7750 25.0519   1
   1   5 -13 73.1123 14.8010   1
  -5   1  13 50.9230 25.3581   1
  -1  -5  13 46.8425 12.4961   1
   1   5  13 52.6687 24.2582   1
   5  -1 -13 46.0256 18.9291   1
   1   5 -14 26.8874 8.30256   1
   5  -1 -14 35.9387 21.4735   1
  -1  -5  14 29.2106 12.2283   1
  -1  -5 -14 9.98359 10.4783   1
  -5   1  14 24.7470 18.7251   1
   1   5  14 16.6743 16.5885   1
  -1  -5  15 253.221 30.5446   1
  -5   1  15 261.094 53.9225   1
   1   5  15 200.586 45.8832   1
  -1  -5 -15 217.414 42.0053   1
   1   5 -15 242.574 29.3102   1
   1   5  16 141.051 39.8294   1
  -1  -5 -16 112.432 37.6580   1
  -5   1  16 107.625 36.5329   1
   1   5 -16 164.623 24.8535   1
  -1  -5  16 164.146 26.4673   1
  -1  -5 -17 123.213 35.9392   1
   1   5 -17 77.9823 19.5136   1
  -5   1  17 59.5077 28.2585   1
   1   5  17 69.9118 28.7528   1
  -1  -5  17 70.1255 17.5831   1
   1   5 -18 73.4987 16.8796   1
  -5   1  18 86.3034 33.4133   1
   1   5  18 67.3239 26.6653   1
  -1  -5  18 65.7144 19.0523   1
  -1  -5  19 23.6996 11.9367   1
   1   5  19 17.6884 15.1256   1
  -5   1  19 17.6233 17.0968   1
   1   5 -19 7.48292 8.20138   1
   1   5 -20 59.7725 18.5642   1
   1   5  20 34.0196 21.6833   1
  -5   1  20 22.3993 21.5311   1
  -1  -5  20 32.9174 16.1419   1
  -1  -5  21 119.652 28.3441   1
   1   5  21 115.746 42.4981   1
   1   5 -21 120.124 28.2807   1
  -5   1  21 90.0096 38.0559   1
  -5   1  22 57.1427 28.8950   1
   1   5  22 65.8771 31.5699   1
  -1  -5  22 25.3061 14.4402   1
   1   5 -22 32.0439 13.7046   1
  -1  -5  23 14.2036 9.92731   1
   1   5 -23 56.4754 21.8487   1
   1   5  23 78.7471 31.2832   1
  -5   1  23 39.8218 24.2367   1
  -1  -5  24 48.5917 22.2505   1
   1   5  24 63.4424 33.1153   1
   1   5 -24 57.9104 18.7593   1
  -5   1  24 33.2463 26.9290   1
  -5   1  25 31.8751 24.2285   1
  -1  -5  25 26.2966 17.5802   1
   1   5 -25 21.5458 13.2343   1
   1   5  25-3.50651 13.8633   1
   1   5 -26 6.97484 11.8665   1
  -1  -5  26-10.9976 14.8244   1
   1   5  26-9.78032 19.3217   1
  -5   1  26-1.26876 16.8384   1
  -1  -5  27 104.755 27.2750   1
   1   5 -27 76.4381 26.1002   1
  -5   1  27 60.2910 29.3622   1
   1   5  27 84.7573 30.5415   1
   1   5 -28 58.5608 22.8214   1
  -5   1  28 21.2900 18.6041   1
  -1  -5  28 53.2570 21.6598   1
   1   5  28 73.3457 35.9968   1
  -5   1  29 16.9578 14.5325   1
  -1  -5  29 48.7477 24.3112   1
   1   5 -29 62.7176 23.2483   1
   1   5  29 45.4505 33.8617   1
   1   5  30 47.5861 31.7557   1
  -1  -5  30 12.7008 8.89422   1
  -5   1  30 12.7443 15.5433   1
   1   5  31 50.5496 27.5051   1
  -5   1  31 13.8484 19.2730   1
  -1  -5  31 31.0542 18.1996   1
   1   5  32 18.5095 14.2197   1
  -5   1  32 2.86327 17.8711   1
  -1  -5  32-12.3691 9.82793   1
  -1  -5  33 54.7642 32.3460   1
  -5   1  33 9.10758 15.5593   1
   1   5  33-24.6549 33.6329   1
  -1  -5  34 13.9970 20.4479   1
  -5   1  34 31.6376 22.3648   1
   1   5  34 58.6154 31.8842   1
  -1  -5  35 41.4397 27.6851   1
  -5   1  35-17.2901 21.9995   1
   1   5  35-9.62861 14.9519   1
  -1  -5  36 22.0223 9.88584   1
  -5   1  36 25.6506 32.7145   1
   1   5  36 39.0648 18.4842   1
  -5   1  37-9.70634 19.8296   1
   1   5  37 47.0933 28.0229   1
  -1  -5  37 29.5050 19.7477   1
  -1  -5  38-10.1634 12.6979   1
  -5   1  38 24.1342 38.5930   1
   1   5  38 44.0042 39.7756   1
  -1  -5  39 47.4817 25.0619   1
  -5   1  39-5.82682 19.8356   1
   1   5  39-4.84045 29.4339   1
   1   5  40 19.9239 33.4039   1
  -1  -5  40 48.8277 34.6618   1
  -5   1  40-12.0836 24.8052   1
   1   5  41-22.2161 19.3243   1
  -1  -5  41 22.6900 22.3305   1
  -5   1  41 18.3093 23.8306   1
   1   5  42 57.6454 48.9003   1
  -5   1  42 48.1342 41.3387   1
  -1  -5  42 34.2550 30.9252   1
  -1  -5  43 44.9925 39.1480   1
   1   5  43-28.8622 18.4623   1
  -5   1  43 17.5653 26.7242   1
  -1  -5  44-8.85027 27.7780   1
   1   5  44 8.30862 15.6707   1
  -5   1  44 36.6279 37.6705   1
   1   5  45 109.947 61.9178   1
  -1  -5  45 25.1305 28.3838   1
  -5   1  45 56.6019 36.9470   1
  -1  -5  46 80.8514 46.8057   1
   1   5  46 80.9240 51.6454   1
  -5   1  46-32.5745 35.2076   1
   1   5  47 6.03164 29.7512   1
  -1  -5  47 60.0008 46.3162   1
  -5   1  47 13.6707 32.3694   1
  -1  -5  48 22.7246 16.8777   1
   1   5  48 35.0698 52.9011   1
  -5   1  48 37.9109 30.1125   1
  -1  -5  49 52.0915 36.1895   1
  -5   1  49 21.6397 24.1392   1
  -5   1  50 10.0469 36.9825   1
  -1  -5  50-38.2602 27.1514   1
  -5   1  51 12.5393 44.4924   1
  -5   1  52 62.3936 43.7378   1
  -5   1  53 45.8024 23.1231   1
  -5   1  54 54.8085 51.1624   1
   0   5   0-12.3675 7.28070   1
   0  -5   0-2.45166 4.67305   1
   0   5   1 8.50545 5.72876   1
   0  -5   1 3.85941 3.83083   1
   0  -5  -1 18.6683 7.12028   1
   0  -5   2 258.901 20.8829   1
   0  -5  -2 307.618 31.4749   1
   0   5   2 335.434 31.7055   1
   0  -5  -3 6.96593 9.01157   1
   0   5   3 0.36818 7.22394   1
   0  -5  -4 79.4066 18.7317   1
   0   5   4 69.6011 16.6202   1
   0   5   5 133.789 26.7747   1
   0  -5  -5 146.461 26.3909   1
  -5   0   6 825.770 83.7969   1
   0   5   6 909.082 67.8806   1
   0  -5  -6 952.172 69.1129   1
   0   5   7 10.5275 9.80896   1
  -5   0   7 25.9198 9.76470   1
   0  -5  -7 42.7163 18.0743   1
   0   5   8 50.5980 16.2030   1
  -5   0   8 62.4059 23.3694   1
   0  -5  -8 53.7641 17.8488   1
   0   5   9 40.4942 17.2821   1
  -5   0   9 34.6508 22.0516   1
   0  -5  -9 74.9706 22.7578   1
   0  -5 -10 781.242 71.7904   1
  -5   0  10 733.654 83.5424   1
   0   5  10 775.091 72.0258   1
   0   5  11 53.4098 20.7838   1
   0  -5 -11 27.4226 16.0240   1
  -5   0  11 41.4389 21.4159   1
   0   5 -11 40.3037 8.31373   1
   0   5  12 43.0112 21.2009   1
   0  -5 -12 51.0055 22.2031   1
  -5   0  12 20.1124 14.2136   1
   0   5 -12 60.2600 10.7008   1
   0   5  13 8.40291 9.32399   1
   0  -5 -13 54.6144 21.0224   1
  -5   0  13 4.20908 9.66641   1
   0   5 -13 27.3325 8.08903   1
   5   0 -13 37.9026 22.4603   1
   5   0 -14 677.351 79.7574   1
  -5   0  14 573.450 79.1087   1
   0   5  14 635.825 74.4347   1
   0   5 -14 639.416 42.0400   1
   0  -5 -14 681.383 72.7319   1
   0  -5 -15-6.08272 16.4826   1
  -5   0  15-34.4252 21.0527   1
   5   0 -15 18.0126 13.1592   1
   0   5  15 12.6394 14.1630   1
   0   5 -15-1.14191 8.12321   1
   5   0 -16-12.8487 17.3398   1
   0  -5  16 0.76924 5.76224   1
   0   5 -16-0.80841 9.13298   1
   0  -5 -16 28.4488 24.3763   1
   0   5  16-15.4149 10.7974   1
   0  -5  17 26.9075 10.5157   1
   0  -5 -17 14.6548 16.9544   1
   0   5  17 22.4074 16.2152   1
   0   5 -17-4.06597 9.82822   1
  -5   0  17 8.48808 11.5798   1
   0  -5  18 139.379 25.4811   1
  -5   0  18 183.059 52.0316   1
   0   5  18 159.389 45.8231   1
   0   5 -18 164.750 27.3485   1
   0  -5  19 2.49693 6.55026   1
   0   5  19 5.19100 19.4658   1
  -5   0  19 18.7704 20.4673   1
   0   5 -19 0.92318 7.59178   1
   0   5  20 5.04134 12.5423   1
   0  -5  20 13.5908 13.5498   1
  -5   0  20 6.53507 17.0280   1
   0   5 -20 1.85932 8.15049   1
   0   5 -21 21.7973 13.4435   1
   0   5  21-5.29377 9.94156   1
  -5   0  21 13.3330 22.3141   1
   0  -5  21 43.6655 20.3785   1
   0  -5  22 161.727 34.1698   1
   0   5  22 170.824 47.4734   1
  -5   0  22 177.308 51.0939   1
   0   5 -22 186.558 33.0512   1
  -5   0  23 34.5370 23.2715   1
   0   5  23 34.0896 25.1126   1
   0   5 -23 41.7260 16.8256   1
   0  -5  23 56.1553 21.5890   1
   0  -5  24 12.4869 13.2570   1
   0   5  24-18.3690 23.2615   1
   0   5 -24-7.77523 10.2042   1
  -5   0  24-0.80453 12.5232   1
   0  -5  25 26.1964 16.3871   1
   0   5 -25 21.6991 18.6642   1
   0   5  25 30.2345 22.1134   1
  -5   0  25 59.1348 40.5037   1
   0  -5  26 13.1435 12.0419   1
   0   5 -26 34.2326 13.0570   1
   0   5  26 33.7746 28.1063   1
  -5   0  26 35.6362 32.6230   1
   0  -5  27 14.7635 13.2388   1
   0   5 -27-8.30431 16.4491   1
   0   5  27-31.3324 21.4712   1
  -5   0  27-2.43418 17.1677   1
  -5   0  28 15.1325 25.4270   1
   0  -5  28 21.3037 20.5998   1
   0   5 -28 16.1822 12.0383   1
   0   5  28 14.0820 25.0957   1
  -5   0  29 70.8410 35.2079   1
   0  -5  29 77.6847 28.3839   1
   0   5  29 63.9475 33.1743   1
   0   5 -29 92.5047 27.1968   1
   0   5  30 86.7754 37.1390   1
   0  -5  30 52.7277 27.0778   1
  -5   0  30 112.214 43.9970   1
  -5   0  31 3.15093 28.0456   1
   0  -5  31 2.15549 16.7624   1
   0   5  31-22.2144 15.1521   1
   0  -5  32 12.5258 12.0394   1
   0   5  32 32.9468 24.8770   1
  -5   0  32 38.4756 31.5915   1
  -5   0  33-41.1357 32.3030   1
   0   5  33-10.2360 24.6125   1
   0  -5  33 24.2657 12.5662   1
   0  -5  34 46.4526 26.0687   1
   0   5  34 4.55270 20.3200   1
  -5   0  34 18.7047 23.6946   1
  -5   0  35-0.30271 19.3343   1
   0   5  35-17.9178 29.0605   1
   0  -5  35-51.3744 34.7598   1
   0   5  36 92.3820 45.8264   1
   0  -5  36 47.9227 26.5624   1
  -5   0  36 23.2992 28.0183   1
   0   5  37 20.7608 42.1537   1
   0  -5  37-34.5889 30.5468   1
  -5   0  37 31.3073 37.0530   1
   0   5  38 38.7475 28.7161   1
   0  -5  38 17.3346 30.6315   1
  -5   0  38-27.0581 28.9922   1
   0   5  39 65.9008 45.0903   1
  -5   0  39 15.8259 25.4059   1
   0  -5  39 33.5349 28.9648   1
   0  -5  40 15.1192 18.3700   1
   0   5  40 31.4316 30.8433   1
  -5   0  40 63.4386 41.1855   1
   0   5  41 37.8987 30.9122   1
  -5   0  41 98.0311 49.7952   1
  -5   0  42-0.58862 25.2168   1
   0   5  42 41.0544 15.3225   1
  -5   0  43-31.4802 28.6526   1
   0   5  43 28.4353 30.7879   1
   0   5  44 0.99354 34.3343   1
  -5   0  44 9.66425 34.3816   1
  -5   0  45-29.8087 27.0268   1
   0   5  45-18.9711 31.9328   1
   0   5  46-6.64139 23.0947   1
  -5   0  46 87.9933 49.6626   1
   0   5  47 25.9342 36.3652   1
  -5   0  47 4.74408 25.8962   1
   0   5  48-15.2467 20.3132   1
  -5   0  48 126.470 62.9206   1
   0   5  49 44.5328 41.1876   1
  -5   0  49 55.1881 43.4147   1
  -5   0  50-11.6908 45.9420   1
   0   5  50 38.5613 31.7972   1
  -5   0  51 26.5274 16.2584   1
   0   5  51-48.8573 45.7109   1
  -5   0  52-65.3328 53.3977   1
   0   5  52-21.3767 20.1405   1
  -5   0  53 82.4644 51.6383   1
  -5   0  54-9.29770 40.8525   1
  -1   5   0 163.165 21.9574   1
   1  -5   0 167.867 19.3825   1
  -1   5   1 128.484 19.2646   1
   1  -5   1 156.311 18.5516   1
   1  -5  -1 137.162 20.9487   1
  -1   5  -1 131.545 17.3428   1
   1  -5  -2 49.6221 10.8170   1
  -1   5   2 49.4610 13.5749   1
  -1   5  -2 55.6021 11.3360   1
  -1   5  -3 9.16320 3.69574   1
  -1   5   3 32.1870 13.8255   1
   1  -5  -3 24.9295 6.25079   1
  -1   5   4 282.938 34.6600   1
   1  -5  -4 308.018 35.6680   1
   1  -5  -5 12.0598 9.10079   1
  -1   5   5-4.76674 7.84318   1
   1  -5  -6 8.61307 7.74845   1
  -1   5   6 1.49676 8.13180   1
  -5  -1   7 36.7765 15.8290   1
   1  -5  -7 18.5889 7.99959   1
  -1   5   7 27.4030 13.8195   1
   1  -5  -8 568.301 58.2826   1
  -5  -1   8 461.857 62.9003   1
  -1   5   8 524.873 57.2392   1
  -5  -1   9 73.6855 26.5054   1
   1  -5  -9 67.1713 19.5836   1
  -1   5   9 67.5494 22.7953   1
   1  -5 -10 44.6625 16.4786   1
  -5  -1  10 61.2088 24.5078   1
  -1   5 -10 37.6330 7.78378   1
  -1   5  10 90.6313 26.2794   1
  -1   5 -11 71.1832 11.8933   1
  -5  -1  11 79.3111 29.6238   1
   1  -5 -11 77.6983 22.7638   1
  -1   5  11 62.3561 22.0789   1
  -1   5  12 440.721 57.3783   1
   1  -5 -12 511.438 60.7415   1
  -1   5 -12 444.527 31.8861   1
  -5  -1  12 347.161 57.2961   1
  -5  -1  13 36.2821 14.3482   1
  -1   5 -13 50.5018 10.6936   1
  -1   5  13 101.704 28.9674   1
   1  -5 -13 60.1345 23.1650   1
  -1   5 -14 9.16494 5.67198   1
  -5  -1  14 4.58368 12.8998   1
  -1   5  14-10.9545 19.4430   1
   1  -5 -14-32.2152 20.8257   1
  -1   5 -15 227.709 27.6229   1
   1  -5 -15 238.780 45.1503   1
   5   1 -15 193.831 44.2584   1
  -5  -1  15 173.273 43.2234   1
  -1   5  15 210.191 45.5882   1
  -1   5 -16 145.883 23.1263   1
  -5  -1  16 97.3872 34.6748   1
  -1   5  16 180.499 41.9566   1
   5   1 -16 149.600 38.8230   1
   1  -5 -16 163.799 40.7420   1
  -5  -1  17 69.7808 27.9536   1
   5   1 -17 62.9867 24.5827   1
  -1   5 -17 97.5925 21.0938   1
   1  -5 -17 109.655 34.5473   1
  -1   5  17 102.283 38.4793   1
  -1   5 -18 94.3155 21.3022   1
  -5  -1  18 81.4700 34.8559   1
  -1   5  18 68.6586 25.7388   1
  -1   5 -19 11.3266 6.22487   1
  -1   5  19 12.6486 13.1316   1
  -5  -1  19 2.76256 12.9833   1
  -1   5  20 28.8903 25.5245   1
  -1   5 -20 61.6143 19.6566   1
  -5  -1  20 40.3464 23.4167   1
  -1   5 -21 100.441 23.9407   1
  -5  -1  21 84.5386 32.5675   1
  -1   5  21 84.4130 30.6901   1
  -1   5 -22 49.5645 19.2369   1
  -1   5  22 36.4999 25.0562   1
  -5  -1  22 44.0773 31.0574   1
  -1   5  23 29.9840 16.0508   1
  -1   5 -23 48.3490 17.2901   1
  -5  -1  23 17.9220 19.7881   1
  -1   5 -24 57.5991 20.7010   1
  -1   5  24 8.77249 20.4022   1
  -5  -1  24 68.8198 35.9719   1
  -1   5 -25 14.3293 16.1640   1
  -1   5  25 28.0423 23.7558   1
  -5  -1  25 6.26909 14.8180   1
  -1   5  26-14.6905 15.6744   1
  -5  -1  26-4.05121 16.8024   1
  -1   5 -26 0.33853 13.3386   1
  -1   5  27 111.792 46.6071   1
  -1   5 -27 85.4737 27.3849   1
  -5  -1  27 81.0228 39.2904   1
  -1   5 -28 39.3244 19.5649   1
  -5  -1  28 31.8406 16.7878   1
  -1   5  28 81.1922 40.8611   1
  -5  -1  29 19.5475 17.6562   1
  -1   5  29 51.8232 33.0655   1
  -1   5 -29 10.5707 14.3519   1
  -5  -1  30 12.5823 19.2234   1
  -1   5  30 46.4800 35.0948   1
  -1   5  31 68.9343 38.1799   1
  -5  -1  31 71.1296 34.8424   1
  -5  -1  32 17.5032 20.6453   1
  -1   5  32-39.4774 27.6768   1
  -5  -1  33-25.8970 27.6451   1
  -1   5  33-16.7377 33.2096   1
  -5  -1  34 32.8039 25.6969   1
  -1   5  34-10.7952 28.9810   1
  -1   5  35 43.0479 26.5744   1
  -5  -1  35 4.61111 26.9479   1
  -5  -1  36 26.7255 27.7108   1
  -1   5  36-17.3567 19.9122   1
  -5  -1  37 14.0315 30.1355   1
  -1   5  37-0.57901 29.5448   1
  -5  -1  38 65.7146 37.7182   1
  -1   5  38 7.92695 24.9104   1
  -5  -1  39 34.9320 27.3360   1
  -1   5  39 23.4336 18.3528   1
  -1   5  40-16.0517 30.3510   1
  -5  -1  40 22.8526 26.6617   1
  -5  -1  41 28.6449 23.8658   1
  -1   5  41 2.79030 23.9872   1
  -1   5  42 23.3095 35.0388   1
  -5  -1  42 4.07811 17.7012   1
  -1   5  43-54.1089 47.1203   1
  -5  -1  43 53.5931 35.1881   1
  -5  -1  44-6.49486 20.3373   1
  -1   5  44 16.7367 17.1018   1
  -1   5  45 54.1040 37.1802   1
  -5  -1  45 45.6843 34.7113   1
  -1   5  46 48.2958 41.5887   1
  -5  -1  46 51.4068 43.6789   1
  -1   5  47 17.6853 23.3365   1
  -5  -1  47 14.5106 29.6143   1
  -5  -1  48 29.6150 44.8904   1
  -1   5  48 23.1433 37.8324   1
  -1   5  49 57.9776 38.2409   1
  -5  -1  49 88.7003 47.6197   1
  -5  -1  50-1.19189 36.3607   1
  -1   5  50-1.65362 32.4911   1
  -1   5  51 62.6538 63.0219   1
  -5  -1  51 15.1645 29.8802   1
  -5  -1  52 38.7025 33.8991   1
  -1   5  52 96.9269 63.4129   1
  -5  -1  53 128.650 70.7155   1
  -5  -1  54-44.7331 34.9813   1
  -5  -1  55 106.112 65.5131   1
  -2   5   0 34.9855 14.3147   1
   2  -5  -1 27.3200 6.46906   1
  -2   5  -1 19.4615 8.70412   1
  -2   5   1 16.2447 6.88583   1
  -2   5  -2 106.510 18.5942   1
  -2   5   2 100.795 23.1149   1
   2  -5  -2 93.5123 20.7194   1
   2  -5  -3 41.0277 14.9047   1
  -2   5  -3 40.5970 11.9195   1
  -2   5   3 16.3345 7.11578   1
  -2   5  -4 13.4860 7.35724   1
  -2   5   4 3.59941 7.62841   1
   2  -5  -4 22.0920 13.8538   1
  -2   5   5 79.0593 21.8927   1
  -2   5  -5 111.279 16.4877   1
   2  -5  -5 89.6099 19.7544   1
  -2   5  -6 78.3232 13.4322   1
   2  -5  -6 83.8657 24.7254   1
  -2   5   6 100.750 23.9140   1
   2  -5  -7 19.5644 13.8143   1
  -2   5   7 20.1464 15.3147   1
  -5  -2   8-4.74295 11.0730   1
   2  -5  -8 3.99349 10.6024   1
  -2   5   8-7.37975 7.96628   1
  -5  -2   9 102.192 30.8319   1
   2  -5  -9 116.765 29.0517   1
  -2   5   9 130.969 31.4937   1
  -5  -2  10 99.1794 31.4048   1
   2  -5 -10 98.1903 28.3281   1
  -2   5  10 74.2858 22.4070   1
  -2   5  11 77.1735 24.7375   1
   2  -5 -11 76.4235 28.2795   1
  -5  -2  11 71.0107 29.3413   1
  -5  -2  12 86.1005 25.2952   1
  -2   5  12 122.297 31.7991   1
   2  -5 -12 123.686 32.0892   1
  -2   5 -12 125.954 20.6253   1
  -2   5  13 34.6898 21.1377   1
   2  -5 -13 44.2238 20.3830   1
  -5  -2  13 38.9707 22.0812   1
  -2   5 -13 18.9228 6.03771   1
  -2   5 -14 263.892 30.9647   1
  -2   5  14 254.096 51.7544   1
   2  -5 -14 327.771 52.9952   1
  -5  -2  14 292.190 53.3360   1
  -5  -2  15 216.147 48.3712   1
  -2   5  15 197.926 42.8760   1
  -2   5 -15 220.170 29.9730   1
   2  -5 -15 242.548 49.7187   1
  -2   5 -16 23.7135 13.4163   1
  -2   5  16 10.8963 18.9565   1
   2  -5 -16 16.8471 13.2542   1
  -5  -2  16-1.88266 17.2196   1
   5   2 -17 58.4383 25.6397   1
  -5  -2  17 31.5694 22.1960   1
  -2   5  17 44.4132 17.7408   1
  -2   5 -17 42.8518 15.9062   1
   5   2 -18 69.7696 31.7861   1
  -2   5 -18 61.3310 17.6627   1
  -5  -2  18 67.6689 31.3753   1
  -2   5  18 90.5374 33.5290   1
  -5  -2  19 126.631 42.3053   1
  -2   5  19 138.330 40.3157   1
  -2   5 -19 154.671 29.5790   1
  -2   5  20 14.9933 16.6782   1
  -5  -2  20 15.8628 16.1772   1
  -2   5 -20 59.6637 21.3188   1
  -2   5 -21 93.3416 27.1284   1
  -5  -2  21 90.7542 31.0613   1
  -2   5  21 82.2210 37.9511   1
  -2   5  22 29.8443 22.7055   1
  -5  -2  22 35.7677 27.0134   1
  -2   5 -22 29.7141 21.0840   1
  -5  -2  23 60.5535 34.6954   1
  -2   5 -23 62.2290 26.6868   1
  -2   5  23 58.4310 31.9801   1
  -5  -2  24 15.1846 15.9136   1
  -2   5 -24 26.3673 15.1851   1
  -2   5  24 8.99121 17.7586   1
  -2   5 -25 96.3822 26.9261   1
  -2   5  25 90.3300 37.3366   1
  -5  -2  25 55.6430 31.5214   1
  -2   5  26 31.8224 29.0376   1
  -5  -2  26 22.9964 22.8000   1
  -2   5 -26 9.68989 11.1407   1
  -2   5 -27 117.322 31.0236   1
  -5  -2  27 84.4167 37.8603   1
  -2   5  27 96.7523 41.4124   1
  -2   5 -28 10.8895 8.93325   1
  -5  -2  28 12.1256 16.6215   1
  -2   5  28 13.1433 15.6292   1
  -2   5  29 121.614 45.8996   1
  -5  -2  29 96.7292 39.0536   1
  -2   5  30-0.89097 18.5325   1
  -5  -2  30 4.29120 26.9184   1
  -5  -2  31 76.7291 40.2779   1
  -2   5  31 76.0917 38.9017   1
  -5  -2  32 3.17919 20.2810   1
  -2   5  32 0.44497 23.5300   1
  -2   5  33 54.7997 15.9464   1
  -5  -2  33 79.1374 37.5070   1
  -2   5  34-19.1796 30.2519   1
  -5  -2  34 11.2044 22.1343   1
  -2   5  35 89.6604 43.9912   1
  -5  -2  35 22.4249 23.3738   1
  -5  -2  36-31.7167 30.1981   1
  -2   5  36 0.46885 21.3310   1
  -2   5  37 24.6569 30.9533   1
  -5  -2  37 52.9465 32.7981   1
  -5  -2  38-9.82245 27.2564   1
  -2   5  38 5.60868 16.1762   1
  -5  -2  39 35.6911 27.9224   1
  -2   5  39 51.7964 39.3159   1
  -2   5  40 16.3451 17.7298   1
  -5  -2  40 8.61880 14.9667   1
  -2   5  41 31.8777 18.1216   1
  -5  -2  41 43.7738 41.9304   1
  -5  -2  42-26.9875 22.1896   1
  -2   5  42-2.38333 23.0521   1
  -2   5  43-13.3082 24.8724   1
  -5  -2  43 33.3138 28.6216   1
  -2   5  44-62.1571 39.7584   1
  -5  -2  44-4.84815 21.2816   1
  -2   5  45 54.9680 37.7716   1
  -5  -2  45 33.2020 28.6760   1
  -2   5  46-44.4108 31.8515   1
  -5  -2  46 6.70334 28.5508   1
  -5  -2  47 27.6091 20.7743   1
  -2   5  47 48.4500 43.1254   1
  -2   5  48 15.8440 33.7299   1
  -5  -2  48 47.1636 29.9672   1
  -5  -2  49-11.1460 29.1206   1
  -2   5  49-14.5822 33.7007   1
  -5  -2  50 69.1652 45.5546   1
  -2   5  50 32.6599 33.9133   1
  -5  -2  51 3.04195 25.9738   1
  -2   5  51 50.8384 43.1567   1
  -5  -2  52-26.5782 23.4437   1
  -2   5  52 25.2590 38.7559   1
  -5  -2  53 9.12708 25.4620   1
  -5  -2  54 37.2192 24.0352   1
  -5  -2  55 28.5456 31.4680   1
  -5  -2  56 12.2004 31.1464   1
  -3   5   0 2.87735 6.39424   1
  -3   5  -1 27.9797 14.4267   1
  -3   5   1 30.6990 17.2334   1
  -3   5  -2 81.8185 20.0446   1
  -3   5   2 91.6730 22.5853   1
  -3   5  -3 0.02927 12.4054   1
   3  -5  -3 0.31659 9.81306   1
  -3   5   3-1.47118 6.98817   1
   3  -5  -4 52.6840 19.1947   1
  -3   5   4 33.1418 14.6390   1
  -3   5  -4 47.5646 14.1727   1
   3  -5  -5 144.551 28.6942   1
  -3   5   5 136.332 30.6141   1
   3  -5  -6 128.277 29.6315   1
  -3   5   6 129.880 29.3671   1
   3  -5  -7 174.619 33.7601   1
  -3   5   7 188.462 37.7631   1
  -5  -3   8 35.0971 15.4717   1
  -3   5   8 35.2601 20.8374   1
   3  -5  -8 48.2121 20.3785   1
  -5  -3   9 164.007 38.0512   1
   3  -5  -9 222.762 39.0377   1
  -3   5   9 221.642 42.2750   1
  -5  -3  10 25.3703 17.7783   1
   3  -5 -10 7.88926 18.2557   1
  -3   5  10 17.9535 13.9503   1
   3  -5 -11 111.955 33.2334   1
  -5  -3  11 118.075 35.2987   1
  -3   5  11 117.313 33.4830   1
  -3   5  12-5.83801 14.5191   1
   3  -5 -12-18.6397 22.3877   1
  -5  -3  12 1.53173 8.94338   1
  -5  -3  13 197.890 44.6127   1
  -3   5  13 210.501 43.2541   1
   3  -5 -13 203.996 40.1257   1
  -5  -3  14 11.1873 14.4009   1
  -3   5  14 16.5493 11.9400   1
   3  -5 -14 33.9363 21.7363   1
  -5  -3  15 62.7013 25.5194   1
   3  -5 -15 18.8562 19.3276   1
  -3   5  15 39.7500 18.4179   1
  -3   5 -15 58.0036 17.9517   1
  -3   5  16 23.6763 20.1713   1
  -5  -3  16 7.53221 14.1467   1
  -3   5 -16 10.9938 6.25527   1
  -3   5  17 57.1974 23.4534   1
  -5  -3  17 57.7695 27.1144   1
  -3   5 -17 69.1166 19.2190   1
  -3   5  18 92.1653 29.0894   1
  -5  -3  18 81.1025 28.6191   1
  -3   5 -18 125.656 28.1475   1
  -3   5  19 148.965 46.7285   1
  -5  -3  19 203.259 50.5474   1
  -3   5 -19 205.425 36.5352   1
  -5  -3  20-21.5755 20.5558   1
  -3   5 -20 4.17411 10.6712   1
  -3   5  20 10.2281 14.8311   1
  -5  -3  21 120.308 41.2530   1
  -3   5  21 125.991 39.3961   1
  -3   5 -21 84.2236 26.7288   1
  -3   5  22 43.3455 27.8298   1
  -3   5 -22 10.7864 13.5543   1
  -5  -3  22 22.9977 14.5405   1
  -3   5  23 47.5550 28.6779   1
  -3   5 -23 58.2310 21.7328   1
  -5  -3  23 57.1879 30.9107   1
  -3   5  24 8.58825 17.6151   1
  -5  -3  24-26.9039 18.8388   1
  -3   5 -24 8.53813 11.9266   1
  -3   5  25 262.728 60.8758   1
  -5  -3  25 215.404 56.2792   1
  -3   5 -25 207.980 43.3017   1
  -5  -3  26 1.84273 17.6490   1
  -3   5  26-8.60616 23.6238   1
  -3   5 -26-5.41344 8.24528   1
  -5  -3  27 172.572 52.1370   1
  -3   5  27 177.671 55.3785   1
  -3   5 -27 145.238 35.8215   1
  -3   5  28-3.49096 24.3107   1
  -5  -3  28 27.4318 28.7117   1
  -5  -3  29 207.508 55.2740   1
  -3   5  29 112.762 49.5835   1
  -3   5  30 33.4903 23.1896   1
  -5  -3  30 47.7572 35.2219   1
  -5  -3  31 63.5485 30.7403   1
  -3   5  31 116.505 48.1949   1
  -3   5  32 42.4765 39.0883   1
  -5  -3  32 21.9083 23.8514   1
  -5  -3  33 129.464 49.8384   1
  -3   5  33 117.807 43.2646   1
  -5  -3  34 23.1660 22.8146   1
  -3   5  34-0.54865 15.0868   1
  -5  -3  35 88.5639 42.2123   1
  -3   5  35 113.685 49.8576   1
  -3   5  36-20.8314 34.4960   1
  -5  -3  36-12.9463 22.7068   1
  -3   5  37 67.7900 36.9787   1
  -5  -3  37 118.251 45.6439   1
  -3   5  38 6.77048 17.0369   1
  -5  -3  38-1.53826 23.7207   1
  -3   5  39 131.279 63.1885   1
  -5  -3  39 84.3404 45.2272   1
  -3   5  40-24.6874 30.9903   1
  -5  -3  40-24.2732 32.9859   1
  -5  -3  41-47.6024 32.4287   1
  -3   5  41 75.8405 48.3457   1
  -3   5  42-58.3604 38.4023   1
  -5  -3  42 31.6540 32.9369   1
  -3   5  43 155.925 58.9815   1
  -5  -3  43 114.642 46.8594   1
  -3   5  44-22.1673 18.9796   1
  -5  -3  44-13.5634 21.4518   1
  -3   5  45 44.3330 38.6018   1
  -5  -3  45 103.089 45.7781   1
  -3   5  46 17.2481 43.6622   1
  -5  -3  46 75.7546 36.0666   1
  -3   5  47 35.2578 60.7407   1
  -5  -3  47 0.65761 18.1857   1
  -3   5  48-46.3329 35.9666   1
  -5  -3  48 13.8197 16.8861   1
  -5  -3  49 15.2020 46.3568   1
  -3   5  49 56.9234 27.6872   1
  -5  -3  50-30.6926 37.7431   1
  -3   5  50-83.4182 42.6517   1
  -5  -3  51-18.3139 32.0533   1
  -3   5  51 33.2748 34.3314   1
  -5  -3  52 6.94853 25.6078   1
  -5  -3  53 25.6053 25.8577   1
  -5  -3  54 31.3197 24.3422   1
  -5  -3  55-49.8758 51.3932   1
  -5  -3  56 29.6560 41.9184   1
  -4   5   0 460.535 54.6694   1
  -4   5  -1 35.5797 12.7805   1
  -4   5   1 23.8206 11.1501   1
  -4   5  -2 676.174 62.0501   1
  -4   5   2 704.108 69.1614   1
  -4   5   3 19.8195 14.4364   1
  -4   5  -3 42.0439 18.0679   1
  -4   5   4 52.3826 18.2294   1
  -4   5  -4 44.4986 18.1937   1
   4  -5  -5 21.3851 14.0862   1
  -4   5   5 27.1401 16.2824   1
  -4   5   6 347.967 49.8524   1
   4  -5  -6 335.266 49.6688   1
  -4   5   7 108.147 27.8943   1
   4  -5  -7 139.401 33.3915   1
   4  -5  -8 101.660 32.3548   1
  -4   5   8 98.4237 31.0235   1
   4  -5  -9 55.0422 24.2859   1
  -5  -4   9 70.0056 21.7237   1
  -4   5   9 94.6748 30.2566   1
  -5  -4  10 265.423 46.1920   1
   4  -5 -10 331.040 54.8530   1
  -4   5  10 285.504 52.2939   1
  -5  -4  11 129.746 31.1336   1
   4  -5 -11 157.592 39.0147   1
  -4   5  11 164.852 38.9086   1
   4  -5 -12 11.8311 15.1747   1
  -4   5  12 7.77631 11.7403   1
  -5  -4  12 27.0215 19.3047   1
   4  -5 -13 114.964 36.8050   1
  -4   5  13 100.945 34.2846   1
  -5  -4  13 89.8069 29.7418   1
  -5  -4  14 397.531 58.2121   1
  -4   5  14 442.447 69.2278   1
  -5  -4  15 111.288 31.9661   1
  -4   5  15 146.443 39.1364   1
  -4   5  16 2.42950 14.3061   1
  -5  -4  16-4.77636 10.1482   1
  -5  -4  17 137.776 36.0187   1
  -4   5  17 106.576 37.5774   1
  -4   5  18 75.8120 32.1839   1
  -5  -4  18 83.6098 26.9826   1
  -5  -4  19 98.5459 32.3475   1
  -4   5 -19 90.7635 25.9903   1
  -4   5  19 45.1942 23.1202   1
  -4   5  20 22.9770 18.4645   1
  -5  -4  20 35.0261 24.4405   1
  -4   5 -20 57.0388 18.9237   1
  -4   5  21 157.744 49.7487   1
  -4   5 -21 117.054 32.6243   1
  -5  -4  21 96.0601 31.6137   1
  -4   5  22 3.09839 14.9987   1
  -5  -4  22-0.10687 15.8549   1
  -4   5 -22-2.57504 8.36211   1
  -4   5  23 108.304 42.8392   1
  -5  -4  23 126.765 41.4393   1
  -4   5 -23 81.1384 26.9974   1
  -4   5 -24 4.38385 8.58440   1
  -4   5  24 5.94455 15.3450   1
  -5  -4  24-3.24472 11.4539   1
  -4   5 -25 102.328 34.4677   1
  -4   5  25 113.907 48.3499   1
  -5  -4  25 79.5467 30.1790   1
  -4   5  26 69.7681 37.6814   1
  -5  -4  26 44.0408 23.8740   1
  -4   5  27 133.993 45.3801   1
  -5  -4  27 80.2557 32.2604   1
  -5  -4  28 64.1351 35.0787   1
  -4   5  28 42.0618 29.6129   1
  -5  -4  29 29.2804 25.2606   1
  -4   5  29 36.4105 30.4686   1
  -4   5  30-12.1277 17.1605   1
  -5  -4  30 24.8897 26.2942   1
  -5  -4  31 46.0277 26.9248   1
  -4   5  31 33.8654 44.6857   1
  -5  -4  32 4.14918 18.9711   1
  -4   5  32 26.2191 33.1699   1
  -5  -4  33 65.5084 30.2800   1
  -4   5  33 97.0972 46.7215   1
  -5  -4  34 47.7614 31.3377   1
  -4   5  34 42.8759 39.8332   1
  -5  -4  35 44.8912 28.8682   1
  -4   5  35 75.8059 50.9912   1
  -4   5  36-19.1175 23.0738   1
  -5  -4  36-24.3519 19.0854   1
  -5  -4  37 84.0172 37.5907   1
  -4   5  37 38.6533 16.1062   1
  -4   5  38 1.22743 16.4963   1
  -5  -4  38-29.2769 31.9769   1
  -5  -4  39 30.7708 25.5667   1
  -4   5  39 76.3165 43.4507   1
  -5  -4  40 34.8874 21.4699   1
  -4   5  40 29.7155 25.8931   1
  -5  -4  41 83.4134 46.6179   1
  -4   5  41 134.317 60.8115   1
  -4   5  42 53.3057 45.7911   1
  -5  -4  42 12.7760 22.9668   1
  -4   5  43 33.2620 32.2983   1
  -5  -4  43 77.1381 47.0143   1
  -4   5  44 13.5137 29.8283   1
  -5  -4  44 8.51812 29.0673   1
  -5  -4  45 1.42336 24.3623   1
  -4   5  45 50.8956 47.1526   1
  -4   5  46 15.6887 21.3906   1
  -5  -4  46 1.09672 23.0352   1
  -4   5  47 18.5815 32.9924   1
  -5  -4  47 19.1858 31.6446   1
  -4   5  48-84.8336 60.0852   1
  -5  -4  48 30.4923 42.8351   1
  -5  -4  49 62.6742 49.1557   1
  -4   5  49 38.7062 36.9471   1
  -5  -4  50 52.3728 42.9458   1
  -4   5  50 18.4388 28.7889   1
  -5  -4  51-41.3115 37.9846   1
  -4   5  51-34.6668 44.4404   1
  -5  -4  52-65.9337 58.4584   1
  -5  -4  53 50.9965 42.1725   1
  -5  -4  54 13.2325 45.4969   1
  -5  -4  55 40.0208 23.9730   1
  -5   5   0 476.191 63.2508   1
  -5   5   1 7.36782 9.82613   1
  -5   5  -1 22.0682 15.1091   1
  -5   5  -2 71.7957 23.1728   1
  -5   5   2 64.3698 24.3729   1
  -5   5   3-1.12151 13.8893   1
  -5   5  -3-20.0769 14.4592   1
  -5   5   4 627.250 74.6849   1
  -5   5   5 30.1235 24.5778   1
  -5   5   6 12.4763 8.84013   1
  -5   5   7 10.0310 13.0647   1
   5  -5  -8 453.540 66.7637   1
  -5   5   8 429.630 62.8422   1
  -5   5   9 26.6781 18.4823   1
   5  -5  -9 7.63839 13.0783   1
  -5  -5   9 3.52243 13.9490   1
  -5  -5  10 37.1408 19.8810   1
  -5   5  10 52.2169 25.9522   1
  -5   5  11 23.3128 19.0296   1
  -5  -5  11 16.6967 11.7527   1
  -5  -5  12 277.510 47.3154   1
  -5   5  12 256.860 54.9827   1
  -5   5  13 74.1705 30.1230   1
  -5  -5  13 52.6730 22.3881   1
  -5  -5  14 27.6839 18.0943   1
  -5   5  14 36.0379 26.3575   1
  -5  -5  15 117.147 32.9579   1
  -5   5  15 68.7952 31.8237   1
  -5  -5  16 271.372 49.8013   1
  -5   5  16 296.073 63.6052   1
  -5  -5  17 80.6216 25.7101   1
  -5   5  17 82.2586 33.2167   1
  -5  -5  18 21.6281 19.6577   1
  -5   5  18-12.4593 19.5603   1
  -5  -5  19 90.3884 31.9469   1
  -5   5  19 72.5054 26.3095   1
  -5  -5  20 137.310 34.2217   1
  -5   5  20 84.1056 34.9373   1
  -5  -5  21 26.4655 16.0602   1
  -5   5  21 2.76872 13.6148   1
  -5   5 -21 41.1033 20.1304   1
  -5  -5  22 60.8879 28.0750   1
  -5   5  22 8.51006 16.5065   1
  -5   5  23-48.8277 34.3472   1
  -5  -5  23-0.53105 10.1116   1
  -5   5  24 80.8509 39.9056   1
  -5  -5  24 89.0992 30.0358   1
  -5  -5  25 20.4237 17.5476   1
  -5   5  25 32.6773 29.1450   1
  -5   5  26 7.80117 24.0230   1
  -5  -5  26-22.3496 25.4785   1
  -5   5  27-27.9868 33.8340   1
  -5  -5  27-24.5198 27.2326   1
  -5   5  28-18.5432 24.6484   1
  -5  -5  28 26.2456 24.6035   1
  -5   5  29 14.1027 17.5856   1
  -5  -5  29-18.1391 16.7551   1
  -5   5  30-22.2200 31.0500   1
  -5  -5  30 1.14932 12.8624   1
  -5  -5  31 35.9438 20.5630   1
  -5   5  31-19.4366 19.9668   1
  -5   5  32 52.1106 36.3812   1
  -5  -5  32 49.4115 26.4094   1
  -5  -5  33 7.11080 21.9889   1
  -5   5  33 33.9636 32.3242   1
  -5  -5  34 12.1875 23.1354   1
  -5   5  34 6.74412 30.3501   1
  -5  -5  35 43.0850 31.6209   1
  -5   5  35 125.945 49.3029   1
  -5  -5  36-34.1146 22.8672   1
  -5   5  36 21.4181 25.4009   1
  -5  -5  37 79.1759 37.6835   1
  -5   5  37 15.1360 35.3567   1
  -5  -5  38-9.00206 26.4496   1
  -5   5  38-24.3846 34.2055   1
  -5  -5  39-5.84084 19.6788   1
  -5   5  39 40.4235 19.1024   1
  -5  -5  40-24.7689 16.7055   1
  -5   5  40 13.8541 20.2519   1
  -5  -5  41 30.9699 20.2790   1
  -5   5  41-41.4360 47.8637   1
  -5  -5  42 48.7430 33.5078   1
  -5   5  42-11.9793 17.4910   1
  -5  -5  43 52.7372 38.4276   1
  -5   5  43 2.14229 34.0326   1
  -5  -5  44 34.9648 29.4241   1
  -5   5  44 44.5593 28.4122   1
  -5   5  45 19.3930 37.7445   1
  -5  -5  45 37.1771 28.0868   1
  -5   5  46 46.7237 40.2852   1
  -5  -5  46 6.82641 26.6516   1
  -5   5  47 17.1339 27.0079   1
  -5  -5  47 58.6382 41.0362   1
  -5   5  48 27.5915 34.2966   1
  -5  -5  48 15.7057 29.0818   1
  -5  -5  49 26.3079 27.3180   1
  -5   5  49-42.3414 36.8276   1
  -5   5  50-27.0740 40.7011   1
  -5  -5  50-14.1068 25.3139   1
  -5  -5  51 0.24185 26.4786   1
  -5  -5  52-11.1597 34.1067   1
  -6   5   0 11.8393 19.3504   1
  -6   5  -1-5.22377 9.06115   1
  -6   5   1-0.01571 16.7272   1
  -6   5  -2 269.301 50.2334   1
  -6   5   2 301.198 53.9291   1
  -6   5   3-26.6045 21.1579   1
  -6   5   4 78.4853 29.3258   1
  -6   5   5 49.7966 23.4261   1
  -6   5   6 494.899 71.3053   1
  -6   5   7 15.0556 20.0884   1
  -6   5   8 24.3926 15.4598   1
  -5  -6   9 30.4169 15.1194   1
  -6   5   9 54.3399 24.5636   1
  -5  -6  10 178.353 37.1273   1
  -6   5  10 195.939 45.0722   1
  -6   5  11 56.3592 31.0829   1
  -5  -6  11 39.4216 20.1851   1
  -6   5  12 11.5423 20.7047   1
  -5  -6  12 18.5473 9.61783   1
  -5  -6  13 34.3043 13.9979   1
  -6   5  13 67.0231 33.0093   1
  -5  -6  14 126.566 34.1363   1
  -6   5  14 139.161 44.4922   1
  -5  -6  15 7.06474 8.43478   1
  -6   5  15 19.7597 24.2513   1
  -5  -6  16 0.48731 15.2606   1
  -6   5  16 6.87167 17.4858   1
  -5  -6  17-29.0916 21.9115   1
  -6   5  17 16.2835 24.6700   1
  -5  -6  18 133.542 35.4633   1
  -6   5  18 194.763 58.0009   1
  -5  -6  19 28.4479 20.7565   1
  -6   5  19 28.0010 27.7232   1
  -5  -6  20-0.40270 13.2833   1
  -6   5  20 48.3129 28.9060   1
  -5  -6  21 9.97032 9.67360   1
  -6   5  21 28.6679 22.4729   1
  -5  -6  22 68.8304 26.6071   1
  -6   5  22 92.9773 41.5061   1
  -5  -6  23 47.4161 27.8051   1
  -6   5  23 49.2104 33.5329   1
  -5  -6  24 38.9329 25.7835   1
  -6   5  24 74.1068 41.5185   1
  -6   5  25 31.9913 26.9615   1
  -5  -6  25-3.64814 10.9373   1
  -5  -6  26 46.8714 25.8275   1
  -6   5  26 41.0720 30.8420   1
  -6   5  27 1.29550 19.9974   1
  -5  -6  27 19.9037 21.8702   1
  -6   5  28-53.4884 31.0051   1
  -5  -6  28-6.63806 16.0583   1
  -5  -6  29 54.2938 28.7740   1
  -6   5  29 25.8540 22.7846   1
  -6   5  30-5.54284 26.6486   1
  -5  -6  30 48.0852 25.2220   1
  -6   5  31-30.7217 38.3536   1
  -5  -6  31 34.8965 24.0124   1
  -6   5  32-30.9102 37.0188   1
  -5  -6  32 10.8086 19.0376   1
  -5  -6  33 85.9585 39.5667   1
  -6   5  33 49.1267 35.5364   1
  -5  -6  34 23.6327 24.9452   1
  -6   5  34-60.7067 43.7466   1
  -5  -6  35 11.5668 16.5594   1
  -6   5  35-12.7218 31.3015   1
  -5  -6  36-48.3651 30.6368   1
  -6   5  36-22.8630 20.1489   1
  -6   5  37-21.7296 29.6741   1
  -5  -6  37-7.65908 22.4797   1
  -6   5  38-54.7213 51.6406   1
  -5  -6  38-10.3326 22.3704   1
  -6   5  39 1.06623 24.4991   1
  -5  -6  39 13.6602 13.3897   1
  -6   5  40-27.7856 29.8968   1
  -5  -6  40-47.6361 28.0001   1
  -5  -6  41-15.9607 30.1787   1
  -6   5  41 19.2575 35.2225   1
  -5  -6  42 59.1161 35.7790   1
  -6   5  42 33.5071 40.9467   1
  -5  -6  43-11.3164 19.6590   1
  -6   5  43 62.1917 49.7975   1
  -6   5  44 135.154 71.3872   1
  -5  -6  44 17.2144 19.2381   1
  -6   5  45 60.9796 50.6691   1
  -5  -6  45-15.5757 25.1978   1
  -6   5  46 94.3722 50.6701   1
  -5  -6  46-1.29414 17.2462   1
  -6   5  47 11.1450 32.9519   1
  -6   5  48 9.47327 40.0894   1
  -6   4   0 181.359 42.6004   1
  -6   4   1 14.4096 16.6346   1
  -6   4   2 85.7691 30.2258   1
  -6   4   3-2.81229 15.8237   1
  -6   4   4 300.248 55.6737   1
  -6   4   5 61.9789 26.1312   1
  -6   4   6-3.82061 17.0749   1
  -6   4   7 2.06410 10.6345   1
  -6   4   8 79.6788 34.3717   1
  -4  -6  -8 66.9460 24.7372   1
  -4  -6   9 37.3610 17.3622   1
  -4  -6  -9 41.1020 22.7914   1
  -6   4   9-1.49550 10.1899   1
  -4  -6  10 40.6976 17.6328   1
  -6   4  10 60.4491 26.5637   1
  -4  -6 -10 52.3818 21.4639   1
  -4  -6  11 17.4428 14.2461   1
  -4  -6 -11 8.74229 9.93790   1
  -6   4  11 11.7188 20.7439   1
  -4  -6  12 163.931 32.9912   1
  -6   4  12 158.179 43.9862   1
  -4  -6  13 35.0902 18.4484   1
  -6   4  13 4.80440 10.9096   1
  -4  -6  14 5.67639 8.14233   1
  -6   4  14-1.20765 12.0209   1
  -6   4  15 53.8383 19.1769   1
  -4  -6  15 57.3732 22.3173   1
  -4  -6  16 49.2835 18.3383   1
  -6   4  16 44.2067 26.5659   1
  -6   4  17 40.1613 22.5939   1
  -4  -6  17 25.4325 15.3360   1
  -4  -6  18 34.4686 16.2411   1
  -6   4  18 22.5038 20.5726   1
  -6   4  19 55.6703 26.8664   1
  -4  -6  19 56.6436 25.6372   1
  -6   4  20 38.0683 17.7601   1
  -4  -6  20 83.0724 29.5508   1
  -6   4  21 54.3646 33.4492   1
  -4  -6  21 124.243 32.3302   1
  -4  -6  22 58.9515 21.3615   1
  -6   4  22 80.2031 38.1825   1
  -6   4  23 92.3985 38.1887   1
  -4  -6  23 74.4257 27.9710   1
  -4  -6  24 14.0973 14.7118   1
  -6   4  24 13.2103 21.5871   1
  -6   4  25 68.1951 29.4560   1
  -4  -6  25 72.0224 26.2499   1
  -4  -6  26-18.8138 12.2535   1
  -6   4  26 17.4016 34.3114   1
  -6   4  27 21.1653 21.3308   1
  -4  -6  27-14.0459 9.75619   1
  -4  -6  28 27.8547 17.2166   1
  -6   4  28 97.6023 50.3220   1
  -6   4  29 54.6019 18.0099   1
  -4  -6  29 51.4297 24.0375   1
  -6   4  30 26.5205 22.9307   1
  -4  -6  30 54.0137 30.5325   1
  -4  -6  31 66.1804 30.6599   1
  -6   4  31 100.855 54.8534   1
  -4  -6  32 23.8772 22.7525   1
  -6   4  32 15.6217 26.7932   1
  -6   4  33 39.6430 30.1154   1
  -4  -6  33 61.8996 28.1238   1
  -4  -6  34 9.63103 22.9279   1
  -6   4  34 64.1437 37.5725   1
  -6   4  35 94.0597 48.4644   1
  -4  -6  35 101.491 34.9466   1
  -6   4  36 59.1999 36.3504   1
  -4  -6  36 39.5346 29.7026   1
  -6   4  37 65.4937 43.7413   1
  -4  -6  37 43.7379 31.6022   1
  -6   4  38-4.92569 31.4107   1
  -4  -6  38 53.8785 33.3907   1
  -4  -6  39 11.0547 14.3291   1
  -6   4  39 127.717 56.8453   1
  -4  -6  40-41.7233 34.0454   1
  -6   4  40-64.9275 40.0889   1
  -4  -6  41 34.1690 28.8263   1
  -6   4  41-37.6303 33.1597   1
  -4  -6  42 6.83889 22.0535   1
  -6   4  42-7.32878 16.5457   1
  -4  -6  43 34.2320 25.3727   1
  -6   4  43 92.2852 52.4830   1
  -4  -6  44 30.5305 27.0860   1
  -6   4  44 13.5028 47.1716   1
  -4  -6  45 21.6165 14.5013   1
  -6   4  45-10.5139 30.3103   1
  -4  -6  46 36.0861 28.8439   1
  -6   4  46-18.2805 22.6755   1
  -4  -6  47 20.4788 26.2937   1
  -6   4  47-0.62892 29.7734   1
  -6   4  48-4.26029 38.2897   1
  -6   4  49 41.0297 45.1516   1
  -6   4  50-11.7322 48.5976   1
  -6   3   2 30.2290 19.6942   1
  -6   3   3 33.5908 27.6094   1
  -6   3   4 169.643 45.2384   1
  -3  -6  -4 217.012 36.7628   1
  -6   3   5 70.6438 28.0813   1
  -3  -6  -5 78.9244 25.1543   1
  -6   3   6-21.4184 17.5320   1
  -3  -6  -6-0.50942 15.7605   1
  -3  -6  -7 40.0135 17.8088   1
  -6   3   7 7.50848 10.2790   1
  -3  -6  -8 9.62712 8.26523   1
  -6   3   8 1.12764 12.3197   1
  -3  -6   8 24.8825 12.9141   1
  -3  -6  -9 13.2072 14.4012   1
  -6   3   9-6.69287 10.2046   1
  -3  -6   9 6.35337 6.62728   1
  -3  -6  10 0.27009 5.72855   1
  -6   3  10-19.8934 23.5415   1
  -3  -6 -10 12.5006 10.4269   1
  -6   3  11 73.0783 25.8891   1
  -3  -6 -11 85.0915 27.8472   1
  -3  -6  11 74.5269 16.4878   1
  -3  -6  12-5.50164 5.35237   1
  -3  -6 -12-14.9433 21.6324   1
  -6   3  12-14.2821 26.1022   1
  -6   3  13 78.2112 34.3522   1
  -3  -6  13 84.9534 21.2122   1
  -3  -6 -13 53.5014 22.2129   1
  -6   3  14-17.2138 20.0403   1
  -3  -6  14 10.5061 11.8455   1
  -6   3  15 48.4718 21.0850   1
  -3  -6  15 87.8401 21.8247   1
  -3  -6  16 20.2890 9.62767   1
  -6   3  16 30.7966 11.9036   1
  -6   3  17 61.1537 29.2969   1
  -3  -6  17 72.8786 21.9009   1
  -6   3  18 37.7939 32.1426   1
  -3  -6  18-6.32889 13.7155   1
  -3  -6  19 65.5808 21.0403   1
  -6   3  19 83.5391 39.4138   1
  -6   3  20 24.5168 28.1255   1
  -3  -6  20 29.1382 15.5174   1
  -3  -6  21 177.577 38.0538   1
  -6   3  21 148.988 47.1284   1
  -6   3  22-22.2615 23.0282   1
  -3  -6  22 5.06202 8.79939   1
  -3  -6  23 176.556 39.2642   1
  -6   3  23 159.603 50.4901   1
   3   6 -23 141.618 33.0231   1
   3   6 -24 14.6137 14.2355   1
  -3  -6  24 11.9505 12.3187   1
  -6   3  24 6.67020 17.5368   1
   3   6 -25 18.2298 12.7540   1
  -3  -6  25 57.8482 25.6904   1
  -6   3  25 76.8963 33.9798   1
   3   6 -26 9.97992 7.95773   1
  -3  -6  26 8.75436 13.9891   1
  -6   3  26-15.2390 22.6518   1
  -6   3  27 129.292 53.0266   1
   3   6 -27 136.690 33.8331   1
  -3  -6  27 98.0720 31.3980   1
   3   6 -28 18.3410 17.8911   1
  -6   3  28-4.39788 24.3697   1
  -3  -6  28-2.46628 15.3920   1
  -6   3  29 90.5054 45.5497   1
  -3  -6  29 136.436 40.0140   1
  -6   3  30-4.33521 27.7693   1
  -3  -6  30 28.3898 21.6939   1
  -6   3  31 235.128 71.1619   1
  -3  -6  31 200.007 51.2360   1
  -6   3  32 40.1181 46.4034   1
  -3  -6  32 9.00824 14.8776   1
  -6   3  33 230.121 67.0217   1
  -3  -6  33 209.428 50.6808   1
  -6   3  34 6.58394 21.6211   1
  -3  -6  34 24.4445 20.3683   1
  -6   3  35 119.869 53.0983   1
  -3  -6  35 87.6029 34.1239   1
  -3  -6  36-7.32354 12.2239   1
  -6   3  36 0.60778 18.6718   1
  -3  -6  37 110.936 43.6744   1
  -6   3  37 144.727 64.6924   1
  -6   3  38-11.5930 21.5064   1
  -3  -6  38 26.1466 24.5760   1
  -3  -6  39 106.693 44.1433   1
  -6   3  39 97.0700 42.6389   1
  -3  -6  40 29.0195 12.4508   1
  -6   3  40-30.0586 38.4177   1
  -3  -6  41 109.451 44.0148   1
  -6   3  41 66.1586 35.8275   1
  -6   3  42-6.12141 21.7333   1
  -3  -6  42 4.66717 22.6314   1
  -6   3  43 28.5172 42.4813   1
  -3  -6  43 6.36891 15.7374   1
  -6   3  44-6.21361 24.0336   1
  -3  -6  44 6.57328 24.1749   1
  -6   3  45 34.6645 27.3557   1
  -3  -6  45 86.4043 45.9243   1
  -3  -6  46-34.4159 35.1199   1
  -6   3  46-70.6700 49.5272   1
  -3  -6  47 36.5327 18.9433   1
  -6   3  47 80.2128 54.6282   1
  -6   3  48 11.8611 34.0674   1
  -6   3  49 57.4740 26.9682   1
  -6   3  50-7.07766 33.0736   1
  -6   3  51 94.6518 59.2067   1
  -2  -6   0 10.1648 8.08325   1
  -2  -6   1 20.7975 11.4609   1
  -2  -6  -1 20.3350 12.9332   1
  -2  -6  -2 81.2684 20.9406   1
  -2  -6  -3 79.4403 19.0565   1
  -2  -6  -4 131.691 25.2695   1
  -6   2   4 78.6474 27.1129   1
  -2  -6  -5 28.8812 15.2126   1
  -6   2   5 1.74667 13.4061   1
  -6   2   6 90.1922 34.5835   1
  -2  -6  -6 81.8544 20.8831   1
  -2  -6   7 92.1543 15.3335   1
  -6   2   7 74.2730 27.8412   1
  -2  -6  -7 51.7980 20.4382   1
  -2  -6   8 106.777 16.3021   1
  -2  -6  -8 135.832 29.1136   1
  -6   2   8 133.296 41.4518   1
  -2  -6   9 148.907 19.1540   1
  -2  -6  -9 98.2675 29.6405   1
  -6   2   9 123.737 41.7883   1
  -2  -6 -10 21.3755 12.4656   1
  -6   2  10 40.0348 24.6840   1
  -2  -6  10 23.1215 6.76062   1
  -6   2  11 10.2982 15.6855   1
  -2  -6 -11 30.4046 14.6069   1
  -2  -6  11 12.1957 5.98854   1
  -2  -6 -12 151.642 35.9001   1
  -6   2  12 117.199 37.6136   1
  -2  -6  12 129.997 20.0184   1
  -6   2  13 71.4515 27.1692   1
  -2  -6 -13 81.2043 26.2681   1
  -2  -6  13 88.1240 17.2128   1
  -6   2  14 20.0245 20.6169   1
  -2  -6  14 27.1887 12.3934   1
  -2  -6 -14-15.7150 20.0816   1
  -6   2  15 75.7956 31.0356   1
  -2  -6 -15 74.6786 26.0842   1
  -2  -6  15 82.6175 17.2561   1
  -2  -6  16 45.4556 14.0406   1
  -6   2  16 36.9530 23.1087   1
  -6   2  17 83.2712 33.9573   1
  -2  -6  17 80.8927 19.5173   1
  -2  -6  18 21.6255 12.2289   1
  -6   2  18 37.2457 23.8747   1
   2   6 -19 192.009 31.9911   1
  -2  -6  19 185.043 31.6618   1
  -6   2  19 174.439 52.2238   1
   2   6 -20 164.824 30.9532   1
  -2  -6  20 172.888 31.8412   1
  -6   2  20 122.682 40.0508   1
  -2  -6  21 127.246 28.3639   1
   2   6 -21 174.965 32.8530   1
  -6   2  21 130.120 42.6256   1
   2   6 -22 7.46172 11.3516   1
  -2  -6  22-3.46367 9.52810   1
  -6   2  22 20.7540 19.3997   1
  -2  -6  23 137.819 33.5991   1
   2   6 -23 115.279 28.4726   1
  -6   2  23 81.5697 39.7031   1
   2   6 -24 31.5533 19.9824   1
  -6   2  24-11.7052 29.2180   1
  -2  -6  24-4.87702 9.98148   1
   2   6 -25 188.134 38.3809   1
  -6   2  25 105.494 43.3699   1
  -2  -6  25 128.427 32.3719   1
  -2  -6  26 17.9903 17.0408   1
   2   6 -26-6.12956 9.28085   1
  -6   2  26-31.2335 25.6057   1
  -2  -6  27 159.324 37.0868   1
   2   6 -27 171.187 37.3824   1
  -6   2  27 165.681 51.7696   1
  -6   2  28 1.84975 23.6570   1
   2   6 -28 21.7116 17.0197   1
  -2  -6  28 45.2731 23.1929   1
  -6   2  29 39.7705 20.0013   1
  -2  -6  29 63.4133 19.7352   1
   2   6 -29 82.2232 28.1844   1
  -6   2  30-12.7525 20.6326   1
  -2  -6  30 40.8955 20.6708   1
  -6   2  31 105.869 48.5469   1
  -2  -6  31 112.135 34.0246   1
  -2  -6  32 0.49520 16.4452   1
  -6   2  32-28.5991 35.8249   1
  -2  -6  33 71.0639 24.1858   1
  -6   2  33 114.539 52.0186   1
  -6   2  34 29.7010 26.7282   1
  -2  -6  34 16.5661 18.7818   1
  -6   2  35 157.345 57.3947   1
  -2  -6  35 135.438 36.7967   1
  -6   2  36-7.60093 24.8720   1
  -2  -6  36-45.5168 32.1324   1
  -6   2  37 53.2237 38.0852   1
  -2  -6  37 17.3039 10.2160   1
  -2  -6  38-6.83675 13.0900   1
  -6   2  38 61.0570 49.5732   1
  -6   2  39 120.239 44.7274   1
  -2  -6  39 87.2402 32.2667   1
  -6   2  40 34.9487 24.8851   1
  -2  -6  40 24.6646 27.3082   1
  -6   2  41 82.9524 53.5508   1
  -2  -6  41 37.8902 28.4046   1
  -2  -6  42-17.6440 25.3435   1
  -6   2  42 10.3664 25.2298   1
  -6   2  43 60.9579 41.8938   1
  -2  -6  43 84.7299 42.1584   1
  -2  -6  44 3.50739 14.0365   1
  -6   2  44 40.4452 22.4258   1
  -6   2  45 53.0254 50.4849   1
  -2  -6  45 60.7521 31.2726   1
  -2  -6  46 22.7414 32.7872   1
  -6   2  46 22.1411 23.0325   1
  -6   2  47 45.3769 33.0623   1
  -2  -6  47 33.5760 25.9032   1
  -6   2  48 45.9733 40.1723   1
  -6   2  49-34.4409 27.7142   1
  -6   2  50-16.8968 27.3632   1
  -6   2  51 39.6958 46.7066   1
  -6   2  52 14.6639 32.2596   1
  -1  -6   0 56.8240 14.1969   1
  -1  -6  -1 51.2918 13.4056   1
  -1  -6   1 73.9135 14.9079   1
  -1  -6  -2 304.361 33.1489   1
  -1  -6   2 287.525 25.3056   1
  -1  -6  -3 44.2336 14.0064   1
  -1  -6   3 46.7053 8.69129   1
  -1  -6  -4 65.9823 18.9548   1
  -1  -6   4 37.4062 8.05348   1
  -1  -6  -5 1.55150 13.7241   1
  -6   1   5 12.1965 16.6175   1
  -6   1   6 326.950 58.8645   1
  -1  -6  -6 354.742 43.3306   1
  -1  -6  -7 32.5222 16.1347   1
  -6   1   7 16.5932 11.1730   1
  -6   1   8 20.4259 21.3985   1
  -1  -6  -8 64.3124 21.1402   1
  -6   1   9 69.2620 30.3739   1
  -1  -6  -9 65.0604 20.2766   1
   1   6   9 52.1563 17.9743   1
  -6   1  10 170.058 40.0198   1
  -1  -6 -10 236.777 42.5571   1
   1   6  10 235.357 41.4828   1
   1   6  11 24.2036 19.2111   1
  -6   1  11 23.4843 17.9636   1
  -1  -6 -11 17.1751 9.94751   1
  -6   1  12 33.3872 24.6256   1
  -1  -6  12 11.2303 4.41542   1
  -1  -6 -12 14.1163 12.0367   1
   1   6  12-0.29315 13.4112   1
  -6   1  13 49.9668 23.2632   1
  -1  -6 -13 20.0032 9.91580   1
   1   6  13 55.3705 26.4144   1
  -1  -6  13 38.0971 9.60103   1
  -6   1  14 350.704 65.0305   1
   1   6  14 332.760 56.0537   1
  -1  -6 -14 405.667 60.3772   1
  -1  -6  14 326.989 28.8490   1
  -6   1  15 14.0416 18.0670   1
  -1  -6 -15 33.7087 18.2148   1
  -1  -6  15 26.1018 9.36308   1
   1   6  15 30.0147 18.3308   1
   1   6 -16 21.4971 7.28055   1
   1   6  16-10.6159 19.0366   1
  -6   1  16 1.97760 14.9047   1
  -1  -6  16 24.0702 7.69972   1
  -1  -6  17 230.988 29.0154   1
   1   6  17 187.902 44.5200   1
  -6   1  17 198.408 51.2970   1
   1   6 -17 226.990 27.8731   1
   1   6  18 265.965 56.3542   1
  -1  -6  18 299.778 35.4879   1
   1   6 -18 307.179 34.9372   1
  -6   1  18 254.111 59.5747   1
  -1  -6  19 20.1288 13.0012   1
   1   6  19 29.3762 17.2919   1
  -6   1  19-11.7533 11.4215   1
   1   6 -19 12.0691 7.64191   1
   1   6 -20 3.30366 5.29695   1
  -1  -6  20-3.68260 9.77949   1
  -6   1  20 19.1418 18.8989   1
   1   6  20 28.6580 19.0783   1
   1   6  21 35.8413 18.9055   1
  -1  -6  21 54.6680 14.5428   1
  -6   1  21 20.8391 14.8905   1
   1   6 -21 55.9415 15.5765   1
   1   6 -22 95.1632 23.0261   1
   1   6  22 86.5844 38.5887   1
  -6   1  22 71.8402 42.3820   1
  -1  -6  22 93.8124 24.2080   1
   1   6 -23 10.3083 9.66885   1
  -6   1  23 21.7833 27.4845   1
  -1  -6  23 2.75548 6.13172   1
   1   6  23 16.0150 28.5602   1
   1   6 -24 8.59133 6.82900   1
  -1  -6  24 4.15672 7.55672   1
   1   6  24 24.9247 28.1383   1
  -6   1  24 8.86006 16.1302   1
   1   6  25 152.764 48.9214   1
  -6   1  25 93.0342 34.2983   1
   1   6 -25 142.383 31.1689   1
  -1  -6  25 138.676 32.3448   1
   1   6  26 98.7773 42.6143   1
   1   6 -26 158.941 35.2831   1
  -6   1  26 132.730 48.6778   1
  -1  -6  26 113.586 28.1694   1
   1   6 -27 43.7131 15.8311   1
  -1  -6  27 32.7998 20.6722   1
   1   6  27-9.54379 13.1867   1
  -6   1  27 55.3946 32.6415   1
  -6   1  28 21.8783 17.3983   1
   1   6  28 35.4789 24.9217   1
   1   6 -28 26.1595 15.0622   1
  -1  -6  28 21.0484 19.6907   1
   1   6  29 17.0711 15.2542   1
  -1  -6  29 60.0563 24.5315   1
   1   6 -29 50.5114 20.0050   1
  -6   1  29 47.7929 27.2960   1
  -1  -6  30 9.55840 18.4093   1
  -6   1  30 2.61220 19.9360   1
   1   6 -30 1.08252 7.60051   1
   1   6  30 34.4610 31.2361   1
  -1  -6  31-9.61635 17.7969   1
   1   6  31 25.5566 34.9245   1
  -6   1  31 6.31224 14.2726   1
  -6   1  32 12.1525 22.3465   1
   1   6  32 19.2955 15.6313   1
  -1  -6  32-21.5908 18.3707   1
  -1  -6  33 122.146 38.9569   1
   1   6  33 77.4553 36.8068   1
  -6   1  33 65.8457 40.7536   1
  -6   1  34 58.3921 42.9470   1
   1   6  34 2.72177 17.1317   1
  -1  -6  34 22.9185 18.8951   1
   1   6  35 13.2871 25.0582   1
  -1  -6  35 50.5959 30.1450   1
  -6   1  35 5.45175 14.5213   1
  -6   1  36 10.4544 23.1111   1
  -1  -6  36 37.9081 25.6365   1
   1   6  36-44.4234 43.1333   1
  -6   1  37 70.4609 39.4208   1
   1   6  37-13.5930 29.0336   1
  -1  -6  37 57.0873 32.6820   1
  -1  -6  38-28.1032 18.6652   1
   1   6  38 0.40073 16.1642   1
  -6   1  38 11.7649 21.6915   1
   1   6  39 27.1343 35.9393   1
  -1  -6  39-2.59833 27.4482   1
  -6   1  39 5.47220 20.4721   1
  -6   1  40 70.0086 44.8887   1
   1   6  40 51.8030 36.0095   1
  -1  -6  40 22.2362 25.3963   1
   1   6  41 69.6247 47.6805   1
  -6   1  41 24.7379 21.4133   1
  -1  -6  41-29.6678 30.8401   1
  -6   1  42 18.4030 34.4392   1
  -1  -6  42-22.4151 30.4841   1
   1   6  42-19.1014 28.2448   1
  -1  -6  43 21.7056 19.3523   1
  -6   1  43 1.09133 15.0530   1
   1   6  43-14.8137 32.3593   1
  -6   1  44 14.5907 26.9674   1
   1   6  44-37.2668 27.7767   1
  -1  -6  44 46.9950 34.2928   1
   1   6  45 65.2812 23.5022   1
  -6   1  45-39.0585 54.4604   1
  -1  -6  45 18.7496 23.8029   1
   1   6  46 37.3372 37.1917   1
  -6   1  46-24.3120 36.6669   1
  -6   1  47 44.8356 32.9588   1
   1   6  47 28.4603 17.8050   1
  -6   1  48-21.0049 30.0628   1
  -6   1  49 68.8750 42.6588   1
  -6   1  50 38.8534 45.8654   1
  -6   1  51 129.158 72.7186   1
  -6   1  52 59.6755 53.6310   1
   0  -6   0 125.036 19.7326   1
   0   6   1 3.84360 4.98881   1
   0  -6   1-2.30133 5.95402   1
   0  -6  -1 8.78269 4.94319   1
   0  -6   2 2.93017 4.78414   1
   0   6   2-10.0240 8.81135   1
   0  -6  -2 9.89936 8.00806   1
   0   6   3-18.6410 12.9554   1
   0  -6  -3 3.66769 7.26133   1
   0   6   4 256.829 33.7962   1
   0  -6  -4 218.064 32.3730   1
   0   6   5 39.0805 15.2438   1
   0  -6  -5 30.0462 11.1315   1
   0  -6  -6 66.4352 16.3101   1
  -6   0   6 31.8491 22.3448   1
   0   6   6 37.5909 16.8233   1
  -6   0   7 25.8446 21.7431   1
   0  -6  -7 27.4674 10.2173   1
   0   6   7 6.72373 7.94662   1
   0   6   8 321.567 45.9985   1
  -6   0   8 257.412 53.6556   1
   0  -6  -8 350.695 47.8191   1
  -6   0   9 4.83405 15.5847   1
   0  -6  -9 58.7061 22.0762   1
   0   6   9 46.2590 19.9956   1
  -6   0  10 14.7713 14.4933   1
   0  -6 -10 34.1746 16.8015   1
   0   6  10 34.0270 21.4313   1
  -6   0  11 7.71844 19.2499   1
   0  -6 -11 44.3490 20.9658   1
   0   6  11 22.4166 15.4266   1
   0  -6 -12 126.305 32.0107   1
  -6   0  12 90.7287 34.4482   1
   0   6  12 130.250 34.1489   1
  -6   0  13 34.2930 24.6115   1
   0  -6 -13 3.67682 12.5999   1
   0   6  13-7.21998 18.4506   1
  -6   0  14-15.9606 21.9847   1
   0   6  14 19.6185 16.5812   1
   0   6 -14 1.27986 3.73782   1
   0  -6 -14-7.45091 10.1842   1
   0   6 -15 130.303 17.3041   1
   0  -6 -15 93.9148 33.0665   1
  -6   0  15 95.8600 36.6333   1
   0   6  15 125.563 39.8867   1
   0   6 -16 686.645 43.1897   1
  -6   0  16 619.262 87.8751   1
   0  -6 -16 759.398 85.4507   1
   0   6  16 665.839 82.4976   1
   0   6 -17 37.3559 11.7597   1
  -6   0  17 9.45027 17.9496   1
   0   6  17 35.7069 17.8108   1
   0   6  18 20.2618 9.82896   1
   0   6 -18 16.7931 9.74715   1
  -6   0  18-11.4672 16.9405   1
   0   6 -19 32.7592 12.5066   1
  -6   0  19 13.8168 20.3116   1
   0   6  19 25.9274 10.6022   1
   0   6 -20 162.487 26.8846   1
  -6   0  20 164.764 48.3274   1
   0   6  20 149.565 42.5769   1
   0   6 -21 78.1224 20.7578   1
   0   6  21 83.6185 30.0215   1
  -6   0  21 44.9833 24.2749   1
   0   6 -22 86.3065 23.9568   1
  -6   0  22 34.9060 32.9809   1
   0   6  22 16.3876 19.5425   1
  -6   0  23 11.0726 15.4110   1
   0   6 -23-5.66711 11.2744   1
   0   6  23-17.6220 17.7391   1
  -6   0  24 239.944 59.7658   1
   0   6 -24 273.413 40.3365   1
   0   6  24 242.721 62.3092   1
   0   6  25-18.2580 25.0385   1
  -6   0  25 30.2042 25.0190   1
   0   6 -25 13.9336 15.0997   1
   0   6 -26 24.9720 11.5018   1
  -6   0  26-36.6943 27.8437   1
   0   6  26 8.90888 19.0450   1
   0   6 -27-0.04030 7.49154   1
   0   6  27 18.0309 16.6135   1
  -6   0  27 52.0701 32.7047   1
   0   6  28 7.88665 23.0902   1
   0   6 -28 15.5173 12.1283   1
  -6   0  28-13.7451 17.0877   1
   0   6 -29 0.64700 13.5043   1
   0   6  29-34.5934 27.5012   1
  -6   0  29 12.3937 24.5536   1
   0   6  30 40.1204 19.9591   1
   0   6 -30-16.6743 17.2344   1
  -6   0  30-7.66578 12.8273   1
  -6   0  31 26.1857 13.5609   1
   0   6  31 57.7309 37.4038   1
   0   6 -31 76.4198 29.7310   1
  -6   0  32 7.15436 16.3608   1
   0   6  32-31.0770 34.7317   1
   0   6  33 17.7318 24.7127   1
  -6   0  33 33.0657 27.3787   1
   0   6  34 39.0129 32.7510   1
  -6   0  34 30.3971 25.6556   1
  -6   0  35 133.011 54.4861   1
   0   6  35 56.7840 35.3744   1
  -6   0  36-30.4320 34.1185   1
   0   6  36 31.3858 22.7364   1
  -6   0  37 65.6695 39.8959   1
   0   6  37 67.9835 38.0668   1
  -6   0  38 38.4515 26.3333   1
   0   6  38 71.1365 41.6891   1
  -6   0  39-13.4542 25.2895   1
   0   6  39 36.5041 32.3234   1
  -6   0  40 21.8264 25.9026   1
   0   6  40 63.8074 42.1404   1
   0   6  41 8.17156 30.4715   1
  -6   0  41 52.7279 31.5591   1
   0   6  42 34.2884 30.2764   1
  -6   0  42 11.4731 16.3920   1
   0   6  43-16.4706 31.7906   1
  -6   0  43 0.43303 15.8543   1
   0   6  44-6.38248 19.0220   1
  -6   0  44-15.8287 24.0247   1
   0   6  45-2.99141 29.6350   1
  -6   0  45 27.4140 15.6631   1
   0   6  46-23.9377 21.4500   1
  -6   0  46 19.6168 15.9049   1
  -6   0  47 47.7506 56.1370   1
   0   6  47-10.2451 18.5404   1
   0   6  48-27.6373 35.6597   1
  -6   0  48 100.962 49.6633   1
   0   6  49-59.2397 48.6835   1
  -6   0  49 24.5502 38.6004   1
  -6   0  50 19.3909 37.7076   1
   0   6  50 46.6907 55.0603   1
   0   6  51-32.6316 44.8447   1
  -6   0  51-16.2636 29.7541   1
  -6   0  52 51.6833 40.5839   1
  -6   0  53-50.6497 50.5901   1
   1  -6   0 38.2072 11.2397   1
  -1   6   0 45.4059 12.4181   1
   1  -6   1 77.2208 14.3779   1
   1  -6  -1 72.8423 15.7326   1
  -1   6  -1 69.5312 14.2967   1
  -1   6   1 82.7082 19.3408   1
   1  -6  -2 347.727 35.9162   1
  -1   6   2 288.975 32.9510   1
  -1   6  -2 258.202 24.4424   1
   1  -6  -3 68.2435 13.6473   1
  -1   6   3 42.7682 15.9631   1
  -1   6  -3 34.8623 8.92498   1
  -1   6   4 36.1993 12.4049   1
   1  -6  -4 62.5081 19.2472   1
   1  -6  -5-17.5034 13.6599   1
  -1   6   5-9.87197 12.3190   1
   1  -6  -6 343.904 42.9217   1
  -1   6   6 352.522 45.3737   1
  -6  -1   7 35.6964 23.0216   1
   1  -6  -7 27.0702 14.5651   1
  -1   6   7 23.4701 8.39297   1
  -6  -1   8 49.4905 28.1030   1
   1  -6  -8 62.4020 23.0396   1
  -1   6   8 73.9817 22.8826   1
  -6  -1   9 51.7575 26.7038   1
   1  -6  -9 30.1582 15.1767   1
  -1   6   9 58.4483 20.1126   1
  -6  -1  10 199.442 49.9631   1
   1  -6 -10 246.535 40.6446   1
  -1   6  10 223.153 40.8864   1
  -6  -1  11 9.14390 14.5171   1
   1  -6 -11-8.57537 18.5413   1
  -1   6  11 16.7089 15.0748   1
   1  -6 -12-5.28450 11.2838   1
  -6  -1  12 3.56149 11.9747   1
  -1   6  12 13.9498 15.7315   1
   1  -6 -13 50.7998 27.2427   1
  -1   6 -13 40.6793 8.33647   1
  -6  -1  13 13.6457 11.4995   1
  -1   6  13 16.8185 11.1167   1
  -6  -1  14 287.186 58.0468   1
   1  -6 -14 412.905 59.4294   1
  -1   6 -14 310.070 26.0504   1
  -1   6  14 367.980 60.8495   1
  -6  -1  15 18.1295 11.2440   1
   1  -6 -15 35.3663 24.4125   1
  -1   6 -15 28.9985 8.55114   1
  -1   6  15 16.6597 14.8070   1
  -1   6  16 57.6847 30.1490   1
  -6  -1  16 19.0257 13.5503   1
   1  -6 -16 1.46506 13.8408   1
  -1   6 -16 12.0840 7.70457   1
  -1   6 -17 215.686 27.2108   1
  -1   6  17 231.431 48.9023   1
  -6  -1  17 201.646 48.7715   1
  -6  -1  18 274.527 60.6575   1
  -1   6  18 272.985 55.5267   1
  -1   6 -18 301.759 34.3097   1
  -1   6 -19 9.34414 10.4763   1
  -6  -1  19 3.26296 12.6306   1
  -1   6  19 13.8169 18.5904   1
  -1   6  20 12.5249 16.1401   1
  -6  -1  20-41.4913 27.7200   1
  -1   6 -20-0.17377 8.19552   1
  -6  -1  21 22.0539 17.8542   1
  -1   6  21 65.2675 33.3059   1
  -1   6 -21 48.2406 16.3811   1
  -1   6  22 101.482 43.8972   1
  -6  -1  22 73.1812 35.6145   1
  -1   6 -22 114.488 27.6440   1
  -1   6  23 28.9182 28.7537   1
  -6  -1  23-5.75701 17.9472   1
  -1   6 -23 12.1788 8.81721   1
  -1   6  24 22.6471 24.1691   1
  -6  -1  24-23.9941 26.2051   1
  -1   6 -24 23.0288 12.7710   1
  -6  -1  25 103.271 46.1734   1
  -1   6 -25 145.040 33.2224   1
  -1   6  25 124.724 39.1553   1
  -1   6  26 116.718 46.7334   1
  -6  -1  26 132.146 46.8765   1
  -1   6 -26 189.492 37.6087   1
  -1   6  27 3.93710 25.4227   1
  -6  -1  27 35.1258 27.7860   1
  -1   6 -27 15.3250 10.6717   1
  -1   6  28 10.1251 19.9528   1
  -1   6 -28 12.5093 8.49186   1
  -6  -1  28-0.71767 23.7380   1
  -1   6  29 90.6335 46.2597   1
  -1   6 -29 110.286 32.5059   1
  -6  -1  29 39.3947 29.0761   1
  -1   6  30 19.1002 23.1823   1
  -1   6 -30 12.0479 10.5788   1
  -6  -1  30 30.1234 23.6849   1
  -6  -1  31-11.6397 32.2707   1
  -1   6  31 1.83006 13.8002   1
  -6  -1  32 23.0975 32.1562   1
  -1   6  32-23.5725 18.9139   1
  -6  -1  33 34.0035 14.9830   1
  -1   6  33 96.8323 42.3982   1
  -6  -1  34 33.3397 41.0164   1
  -1   6  34-3.20528 25.1073   1
  -6  -1  35 19.0685 22.3652   1
  -1   6  35 47.0377 23.3316   1
  -6  -1  36-18.5045 23.3546   1
  -1   6  36-21.2685 31.6979   1
  -6  -1  37 57.7091 42.9544   1
  -1   6  37 29.6089 33.9388   1
  -6  -1  38 50.1127 32.9102   1
  -1   6  38 36.1159 16.0999   1
  -6  -1  39-14.7563 31.0237   1
  -1   6  39 8.68985 15.8348   1
  -6  -1  40 46.1585 38.8878   1
  -1   6  40 33.5916 35.9013   1
  -1   6  41 36.4377 32.5463   1
  -6  -1  41 53.1713 35.5368   1
  -1   6  42 35.6192 30.4749   1
  -6  -1  42 28.5555 42.3770   1
  -1   6  43-24.7616 29.7038   1
  -6  -1  43-21.4005 28.7770   1
  -1   6  44-43.0504 42.6118   1
  -6  -1  44 21.0502 15.0605   1
  -1   6  45-43.1936 53.0153   1
  -6  -1  45 42.2551 24.6696   1
  -1   6  46 13.0900 28.6411   1
  -6  -1  46 34.5591 37.5551   1
  -1   6  47 4.41618 30.7755   1
  -6  -1  47 21.9817 28.3629   1
  -6  -1  48-20.8803 22.1569   1
  -1   6  48 30.9073 48.0723   1
  -6  -1  49 72.7590 49.2213   1
  -1   6  49 21.8694 19.7381   1
  -1   6  50 1.10376 17.8567   1
  -6  -1  50-17.2219 37.7354   1
  -1   6  51-2.41743 18.8944   1
  -6  -1  51-38.8410 42.7148   1
  -6  -1  52 25.0658 25.5743   1
  -6  -1  53 8.34234 20.3473   1
  -6  -1  54 42.8482 29.6521   1
   2  -6   0 26.6756 8.95174   1
  -2   6   0 27.4587 14.7092   1
   2  -6  -1 24.3616 14.7072   1
  -2   6  -1 31.5292 12.5552   1
  -2   6   1 6.75755 9.41765   1
   2  -6  -2 103.524 22.4510   1
  -2   6  -2 94.8032 18.0063   1
  -2   6   2 76.8236 19.5807   1
  -2   6   3 59.7701 16.6172   1
   2  -6  -3 94.8795 22.2216   1
  -2   6  -3 88.1830 16.6645   1
  -2   6   4 118.962 27.6412   1
   2  -6  -4 124.477 27.7622   1
  -2   6  -4 117.212 17.2676   1
  -2   6   5 11.9344 9.83740   1
   2  -6  -5 42.4618 17.0047   1
  -2   6  -5 19.0643 5.21989   1
  -2   6   6 58.1591 21.1177   1
  -2   6  -6 62.6529 13.5887   1
   2  -6  -6 71.9825 19.7628   1
  -2   6  -7 69.0426 11.4271   1
   2  -6  -7 81.5166 18.7257   1
  -2   6   7 74.7106 24.0466   1
  -2   6   8 126.249 32.2298   1
  -2   6  -8 92.1775 14.4767   1
   2  -6  -8 123.126 28.8900   1
  -6  -2   8 96.3826 32.4597   1
  -6  -2   9 151.317 42.8484   1
  -2   6   9 150.065 33.2228   1
   2  -6  -9 117.057 26.9533   1
  -2   6  -9 131.744 16.8697   1
  -6  -2  10 23.9875 16.2895   1
  -2   6  10 38.0517 22.5948   1
   2  -6 -10 31.1991 8.88829   1
   2  -6 -11 16.0955 10.8091   1
  -6  -2  11 19.0164 22.5840   1
  -2   6  11 41.2311 16.1334   1
  -2   6 -11 9.86892 5.99533   1
  -2   6 -12 116.934 18.7243   1
  -2   6  12 119.201 32.1672   1
   2  -6 -12 147.074 37.2052   1
  -6  -2  12 138.768 42.1163   1
  -6  -2  13 102.618 35.0140   1
   2  -6 -13 155.707 38.1604   1
  -2   6  13 64.3217 22.2920   1
  -2   6 -13 97.2607 17.5427   1
  -6  -2  14 23.7457 22.8781   1
  -2   6  14-22.5197 14.3953   1
   2  -6 -14-10.5914 12.7280   1
  -2   6 -14-5.71437 5.52709   1
  -6  -2  15 58.7471 23.9410   1
  -2   6  15 72.7752 25.1997   1
   2  -6 -15 102.103 31.6340   1
  -2   6 -15 65.9998 14.3678   1
  -6  -2  16 30.8163 14.1074   1
  -2   6  16 54.5580 25.9275   1
  -2   6 -16 62.1106 16.1634   1
  -6  -2  17 22.4478 20.3623   1
  -2   6  17 76.4474 29.4367   1
  -2   6 -17 74.9761 19.4914   1
  -2   6 -18 4.69642 6.52166   1
  -6  -2  18 42.8104 24.9784   1
  -2   6  18 17.5794 16.8684   1
  -6  -2  19 154.292 46.4324   1
  -2   6 -19 157.182 27.4271   1
  -2   6  19 195.708 49.3092   1
  -2   6 -20 160.537 28.2319   1
  -2   6  20 114.964 39.2512   1
  -6  -2  20 61.6023 27.5017   1
  -2   6 -21 185.039 33.5207   1
  -2   6  21 89.7406 43.5567   1
  -6  -2  21 112.912 40.1982   1
  -2   6 -22 34.4626 12.8553   1
  -6  -2  22 2.13218 12.3502   1
  -2   6  22-20.3889 19.6745   1
  -2   6 -23 109.282 25.8184   1
  -6  -2  23 86.2131 34.0408   1
  -2   6  23 110.801 41.5223   1
  -2   6 -24 11.6921 12.5165   1
  -6  -2  24 13.5575 18.0200   1
  -2   6  24 9.80807 19.3237   1
  -2   6  25 137.351 48.7477   1
  -2   6 -25 198.406 38.4745   1
  -6  -2  25 174.787 53.3510   1
  -2   6 -26 6.31971 7.33836   1
  -6  -2  26 51.0228 27.9988   1
  -2   6  26 23.4836 18.0952   1
  -2   6 -27 201.510 41.2865   1
  -6  -2  27 138.479 41.7822   1
  -2   6  27 171.120 47.1132   1
  -2   6  28-38.4364 25.6939   1
  -2   6 -28 2.34229 9.74406   1
  -6  -2  28 20.2547 17.9303   1
  -2   6  29 96.7455 39.1186   1
  -2   6 -29 74.7906 27.1169   1
  -6  -2  29 54.8420 33.3805   1
  -2   6 -30 18.8301 14.8097   1
  -2   6  30 7.25927 23.4344   1
  -6  -2  30 7.53196 27.8285   1
  -2   6  31 112.487 47.0348   1
  -6  -2  31 72.7220 28.0306   1
  -2   6  32-3.86133 15.3371   1
  -6  -2  32-59.5323 32.0996   1
  -6  -2  33 86.1945 47.4000   1
  -2   6  33 106.886 49.2292   1
  -2   6  34 0.62328 23.9979   1
  -6  -2  34-0.82324 24.4466   1
  -6  -2  35 141.762 48.5301   1
  -2   6  35 103.415 41.2453   1
  -6  -2  36-20.4580 16.9734   1
  -2   6  36-19.5470 28.6223   1
  -6  -2  37 12.9483 13.9476   1
  -2   6  37 50.5055 29.5363   1
  -6  -2  38-19.3277 18.1684   1
  -2   6  38 21.4315 27.5053   1
  -6  -2  39 104.698 50.3016   1
  -2   6  39 92.2531 52.7520   1
  -6  -2  40 42.9406 28.5027   1
  -2   6  40 54.5479 41.2249   1
  -6  -2  41 15.8890 28.0647   1
  -2   6  41 38.6963 44.6462   1
  -6  -2  42-52.6779 36.4445   1
  -2   6  42-3.90608 26.8141   1
  -6  -2  43 20.3245 24.9880   1
  -2   6  43 94.5630 60.8903   1
  -6  -2  44 22.7327 30.1367   1
  -2   6  44 32.1375 27.8892   1
  -6  -2  45 84.6701 57.3902   1
  -2   6  45 76.7606 47.0639   1
  -2   6  46-11.7442 23.2826   1
  -6  -2  46-5.28394 28.8593   1
  -2   6  47 55.4686 46.5803   1
  -6  -2  47 129.709 58.0406   1
  -2   6  48-48.3376 41.1119   1
  -6  -2  48-16.7920 22.9390   1
  -2   6  49 15.5864 48.7010   1
  -6  -2  49 9.04035 25.3658   1
  -2   6  50-21.6941 29.7245   1
  -6  -2  50-42.4896 41.9811   1
  -6  -2  51-39.4692 44.7493   1
  -2   6  51 114.392 62.0553   1
  -6  -2  52 13.0390 45.0932   1
  -6  -2  53 43.5954 38.1246   1
  -6  -2  54-42.6191 48.3496   1
  -6  -2  55-47.6264 45.5466   1
  -3   6   0 27.7756 15.7090   1
  -3   6  -1 24.4681 14.7729   1
  -3   6   1 21.0178 13.3334   1
  -3   6   2 28.1811 15.4754   1
  -3   6  -2 31.7845 11.3253   1
   3  -6  -3 25.9784 14.2318   1
  -3   6  -3 26.0805 8.81456   1
  -3   6   3 20.0390 12.5984   1
  -3   6  -4 217.254 30.1061   1
  -3   6   4 205.387 37.8285   1
   3  -6  -4 245.182 38.9289   1
   3  -6  -5 96.8960 24.9595   1
  -3   6  -5 82.5255 17.9858   1
  -3   6   5 90.9815 25.4291   1
   3  -6  -6-1.82949 8.23471   1
  -3   6  -6 14.8087 8.07613   1
  -3   6   6 13.0578 13.0969   1
  -3   6  -7 22.2679 7.83392   1
  -3   6   7 42.4469 18.8030   1
   3  -6  -7 50.0637 18.8436   1
  -3   6   8-25.0809 19.0045   1
   3  -6  -8 2.18970 13.8214   1
  -6  -3   9 11.4409 14.2026   1
   3  -6  -9 8.41568 11.6625   1
  -3   6   9 17.1116 17.7187   1
   3  -6 -10 12.6040 8.88219   1
  -6  -3  10-3.71792 17.7933   1
  -3   6  10 25.5337 18.5874   1
  -3   6  11 92.9236 30.9669   1
  -6  -3  11 80.7150 28.5019   1
   3  -6 -11 60.3615 26.0152   1
  -3   6  12 4.03548 9.18326   1
   3  -6 -12 36.6069 23.5622   1
  -6  -3  12-11.5026 17.2936   1
  -3   6  13 92.2800 36.2325   1
  -6  -3  13 61.3904 27.9350   1
   3  -6 -13 71.3697 25.4922   1
  -3   6  14 30.7526 25.8830   1
  -6  -3  14 9.38417 13.4820   1
  -3   6  15 98.0892 33.4140   1
  -3   6 -15 75.6015 19.1313   1
  -6  -3  15 100.261 33.0181   1
  -6  -3  16 10.4915 13.3774   1
  -3   6  16 40.7951 27.1843   1
  -3   6 -16 10.3579 12.7981   1
  -3   6  17 41.9676 25.6680   1
  -6  -3  17 91.4497 36.7814   1
  -3   6 -17 98.7475 24.5245   1
  -3   6  18 8.76175 19.5213   1
  -6  -3  18-13.3557 16.9935   1
  -3   6 -18 10.6175 10.3905   1
  -3   6  19 63.1134 30.9517   1
  -6  -3  19 88.5236 34.8178   1
  -3   6 -19 22.9608 15.1214   1
  -3   6  20 43.5467 27.8122   1
  -3   6 -20 25.0532 16.8981   1
  -6  -3  20 4.34519 12.9468   1
  -3   6 -21 151.362 32.2848   1
  -3   6  21 164.489 52.6180   1
  -6  -3  21 142.429 47.6165   1
  -3   6  22-9.75037 13.4168   1
  -3   6 -22-5.43077 7.20496   1
  -6  -3  22 17.2946 21.2228   1
  -3   6 -23 147.465 32.3542   1
  -3   6  23 161.110 50.2367   1
  -6  -3  23 115.610 39.8198   1
  -3   6  24 40.7572 27.1568   1
  -6  -3  24 14.8960 22.9950   1
  -3   6 -24 2.65853 13.7059   1
  -6  -3  25 22.7982 14.4688   1
  -3   6  25 40.7280 25.6354   1
  -3   6 -25 51.3174 21.6141   1
  -3   6  26 14.3750 16.0665   1
  -3   6 -26 8.80691 12.7668   1
  -6  -3  26 42.8169 25.8670   1
  -3   6 -27 114.176 32.0224   1
  -3   6  27 115.645 41.1761   1
  -6  -3  27 137.027 42.2626   1
  -3   6 -28 28.9235 13.6746   1
  -3   6  28 19.1254 26.4518   1
  -6  -3  28-2.00986 12.5155   1
  -3   6  29 92.9214 29.7637   1
  -6  -3  29 108.179 39.4904   1
  -3   6  30-6.96888 27.5674   1
  -6  -3  30 28.5935 31.2474   1
  -6  -3  31 192.283 54.0177   1
  -3   6  31 203.897 61.4483   1
  -6  -3  32 0.21646 23.1291   1
  -3   6  32 57.8028 43.4432   1
  -6  -3  33 203.626 57.3559   1
  -3   6  33 199.127 63.0801   1
  -6  -3  34-33.3065 29.7297   1
  -3   6  34-30.1368 35.2406   1
  -6  -3  35 77.7760 39.5286   1
  -3   6  35 53.1609 21.0969   1
  -3   6  36 50.2174 36.6024   1
  -6  -3  36 3.53272 14.6483   1
  -3   6  37 117.633 58.1866   1
  -6  -3  37 114.322 42.8084   1
  -3   6  38 71.8580 43.1176   1
  -6  -3  38-15.9992 25.8207   1
  -6  -3  39 112.448 46.5996   1
  -3   6  39 102.511 56.3850   1
  -3   6  40 7.60855 32.7004   1
  -6  -3  40-25.4831 19.1943   1
  -3   6  41 102.092 49.3599   1
  -6  -3  41 66.9327 37.7641   1
  -6  -3  42 39.2288 37.4801   1
  -3   6  42-18.3936 19.9092   1
  -3   6  43 90.7301 54.9159   1
  -6  -3  43 32.9169 17.4752   1
  -3   6  44-54.0520 43.7512   1
  -6  -3  44 13.6981 18.7466   1
  -3   6  45 24.4554 23.4515   1
  -6  -3  45 9.99470 18.0873   1
  -3   6  46-46.6061 22.1962   1
  -6  -3  46 0.19640 25.1690   1
  -3   6  47 93.2230 48.7073   1
  -6  -3  47 73.6361 47.2200   1
  -3   6  48-21.1660 51.8511   1
  -6  -3  48 51.1304 49.4392   1
  -3   6  49 16.6981 23.9618   1
  -6  -3  49 33.7833 33.3645   1
  -3   6  50-5.68727 25.4415   1
  -6  -3  50-31.7138 38.0194   1
  -6  -3  51 49.8707 41.2135   1
  -6  -3  52 67.2416 62.4101   1
  -6  -3  53 31.0001 29.6653   1
  -6  -3  54-78.2606 39.8920   1
  -6  -3  55 62.3126 43.9861   1
  -4   6   0 190.259 35.6760   1
  -4   6   1 23.6683 16.2945   1
  -4   6  -1 6.66005 8.56958   1
  -4   6  -2 59.5462 18.7735   1
  -4   6   2 102.762 28.3724   1
  -4   6   3 9.66014 8.70464   1
  -4   6  -3 25.5473 14.4283   1
  -4   6   4 281.708 44.8358   1
  -4   6  -4 289.309 40.8048   1
  -4   6  -5 39.1415 17.0340   1
   4  -6  -5 24.8472 8.41826   1
  -4   6   5 52.6795 18.6539   1
   4  -6  -6 6.37774 12.3763   1
  -4   6  -6 35.9067 12.9971   1
  -4   6   6 24.2831 17.7459   1
   4  -6  -7 20.8495 22.6423   1
  -4   6   7-6.97169 11.7778   1
   4  -6  -8 85.6300 32.0518   1
  -4   6   8 54.4023 24.9943   1
  -4   6   9 40.6996 19.1387   1
   4  -6  -9 32.3821 22.2368   1
  -6  -4   9 38.7176 25.4668   1
   4  -6 -10 29.8409 20.5656   1
  -4   6  10 46.1214 23.0769   1
  -6  -4  10 40.4632 14.4372   1
  -6  -4  11 29.1242 23.1600   1
   4  -6 -11 33.1568 14.7950   1
  -4   6  11 23.9260 15.9335   1
  -6  -4  12 158.681 41.5896   1
  -4   6  12 188.284 46.1829   1
  -6  -4  13 13.2640 13.7614   1
  -4   6  13 27.2790 24.5489   1
  -6  -4  14 9.22545 16.8976   1
  -4   6  14-23.7134 21.0893   1
  -4   6  15 42.5101 19.0687   1
  -6  -4  15 75.4146 31.1823   1
  -4   6  16 26.5112 12.3351   1
  -6  -4  16 20.3013 13.1475   1
  -6  -4  17 24.4104 17.6364   1
  -4   6  17 39.8992 23.5472   1
  -4   6  18 36.0252 22.2450   1
  -6  -4  18 19.2326 17.1280   1
  -4   6 -18 19.4916 12.7672   1
  -4   6  19 94.3749 34.3827   1
  -6  -4  19 42.8062 21.2119   1
  -4   6 -19 72.3365 26.1517   1
  -4   6  20 49.3177 24.9888   1
  -6  -4  20 27.1212 14.8191   1
  -4   6 -20 63.7190 19.0169   1
  -4   6 -21 108.263 29.1062   1
  -6  -4  21 115.543 37.7360   1
  -4   6  21 107.468 39.0445   1
  -4   6  22 66.9113 30.1409   1
  -6  -4  22 49.3322 31.4859   1
  -4   6 -22 72.5219 26.3061   1
  -4   6  23 94.8338 36.8280   1
  -6  -4  23 87.7889 37.9453   1
  -4   6 -23 113.698 29.9904   1
  -4   6  24 3.49890 21.0750   1
  -4   6 -24-5.32664 7.74493   1
  -6  -4  24 65.1189 38.2155   1
  -4   6  25 53.7941 31.3515   1
  -4   6 -25 84.8895 27.4742   1
  -6  -4  25 36.5946 26.8314   1
  -4   6  26-27.6659 23.8152   1
  -6  -4  26 34.0266 24.7443   1
  -4   6 -26 2.67390 12.2333   1
  -4   6  27-15.7952 24.1377   1
  -6  -4  27-13.0847 12.3628   1
  -4   6  28 36.0364 31.6188   1
  -6  -4  28 63.0246 39.7469   1
  -4   6  29 51.4842 40.5423   1
  -6  -4  29 69.0756 37.8167   1
  -6  -4  30 23.0683 11.6132   1
  -4   6  30 35.6888 26.0709   1
  -4   6  31 71.3422 37.6833   1
  -6  -4  31 51.6006 32.1304   1
  -4   6  32-7.83365 22.4504   1
  -6  -4  32 1.12986 17.3839   1
  -6  -4  33 67.2340 35.8667   1
  -4   6  33 81.1509 40.8334   1
  -4   6  34 12.4295 24.4563   1
  -6  -4  34-2.41577 15.2451   1
  -6  -4  35 64.6731 22.2098   1
  -4   6  35 98.1432 47.7625   1
  -4   6  36-18.0942 38.9974   1
  -6  -4  36-10.4421 16.1793   1
  -6  -4  37 81.3798 42.7615   1
  -4   6  37 51.6894 28.9765   1
  -6  -4  38 12.6036 20.0587   1
  -4   6  38-71.0395 45.6651   1
  -4   6  39 96.2852 47.6390   1
  -6  -4  39 87.1944 42.3735   1
  -4   6  40-30.4896 30.3177   1
  -6  -4  40-35.5476 32.8366   1
  -6  -4  41-8.25352 16.6660   1
  -4   6  41 29.2546 47.3613   1
  -6  -4  42-8.64602 23.7266   1
  -4   6  42-4.49046 27.1930   1
  -4   6  43 16.8052 18.8049   1
  -6  -4  43 41.8290 31.2713   1
  -6  -4  44 23.6592 21.6579   1
  -4   6  44 9.22659 17.2555   1
  -4   6  45 69.0959 50.8463   1
  -6  -4  45 9.82925 20.2202   1
  -4   6  46 27.1635 42.6751   1
  -6  -4  46 35.8249 41.6409   1
  -4   6  47 14.2615 37.3250   1
  -6  -4  47 28.2802 23.6264   1
  -4   6  48 45.9338 34.4674   1
  -6  -4  48 1.64659 22.7535   1
  -6  -4  49-10.5799 26.1318   1
  -4   6  49-3.00506 41.8428   1
  -6  -4  50-84.1211 49.4995   1
  -6  -4  51 20.7892 39.7379   1
  -6  -4  52 20.2744 31.3789   1
  -6  -4  53 10.7875 26.1728   1
  -6  -4  54 34.6568 44.4496   1
  -5   6   0 23.7923 12.1179   1
  -5   6  -1-8.70278 12.5989   1
  -5   6   1-19.0554 9.55754   1
  -5   6  -2 339.124 50.9301   1
  -5   6   2 331.656 53.8971   1
  -5   6  -3 22.4734 17.6709   1
  -5   6   3-2.28795 13.1007   1
  -5   6  -4 90.4838 27.8643   1
  -5   6   4 112.155 32.1118   1
  -5   6   5 45.6104 26.1770   1
  -5   6  -5 57.3816 22.1411   1
  -5   6   6 530.809 72.4977   1
  -5   6   7 9.75345 16.6105   1
  -5   6   8 14.5765 9.93510   1
   5  -6  -8 8.93288 9.77441   1
  -5   6   9 46.5420 25.9279   1
  -6  -5  10 173.533 43.8159   1
  -5   6  10 197.303 46.8621   1
  -6  -5  11 19.3055 18.1986   1
  -5   6  11 58.6028 30.5136   1
  -6  -5  12-0.49013 14.9580   1
  -5   6  12 24.4795 20.8740   1
  -6  -5  13 64.6546 32.8485   1
  -5   6  13 47.9617 31.5737   1
  -6  -5  14 158.300 43.0976   1
  -5   6  14 148.137 46.8552   1
  -6  -5  15 9.86620 12.0950   1
  -5   6  15 5.75200 20.2668   1
  -6  -5  16 6.82828 14.4170   1
  -5   6  16 17.0538 16.4237   1
  -6  -5  17 4.77859 18.4491   1
  -5   6  17 27.6267 21.1607   1
  -6  -5  18 164.907 45.8748   1
  -5   6  18 217.974 58.0689   1
  -6  -5  19 38.3076 26.4454   1
  -5   6  19 11.9103 17.8445   1
  -6  -5  20 21.8111 20.4685   1
  -5   6  20 9.91158 25.3585   1
  -5   6  21 2.21144 18.9079   1
  -5   6 -21 24.3887 14.8508   1
  -6  -5  21 17.1289 12.9880   1
  -5   6  22 59.9181 30.0277   1
  -5   6 -22 68.9629 23.6768   1
  -6  -5  22 83.4070 33.5122   1
  -6  -5  23 20.3165 23.5717   1
  -5   6 -23 11.6847 12.9323   1
  -5   6  23-11.4921 18.3162   1
  -5   6  24 32.5367 26.7957   1
  -6  -5  24 25.9090 19.7234   1
  -5   6  25 51.8395 34.4517   1
  -6  -5  25 39.9889 22.9639   1
  -5   6  26 44.1458 32.8623   1
  -6  -5  26 78.8027 39.8748   1
  -5   6  27 46.1537 24.4736   1
  -6  -5  27 5.83193 16.0384   1
  -5   6  28-0.21286 25.4804   1
  -6  -5  28 18.6211 20.9047   1
  -5   6  29 36.9891 25.9101   1
  -6  -5  29 14.0812 22.1618   1
  -5   6  30-12.9533 15.1827   1
  -6  -5  30 42.7545 22.8584   1
  -5   6  31 18.3997 28.5281   1
  -6  -5  31 18.8948 12.4735   1
  -6  -5  32 59.2698 43.0000   1
  -5   6  32 19.8222 14.7813   1
  -6  -5  33 72.5279 37.1407   1
  -5   6  33 60.6350 41.0388   1
  -5   6  34 37.2074 25.4512   1
  -6  -5  34-20.7450 19.6707   1
  -5   6  35 15.0762 17.6780   1
  -6  -5  35 52.0513 36.6694   1
  -6  -5  36-13.9003 11.9528   1
  -5   6  36 83.9173 49.8019   1
  -6  -5  37-55.1526 39.6631   1
  -5   6  37 41.6905 34.2793   1
  -6  -5  38 8.70455 14.3204   1
  -5   6  38 13.2402 16.6834   1
  -6  -5  39 25.6866 23.3329   1
  -5   6  39 60.2512 35.7149   1
  -6  -5  40 26.5108 28.4557   1
  -5   6  40-9.79152 30.3058   1
  -6  -5  41-2.73232 31.7567   1
  -5   6  41-73.7259 58.7469   1
  -6  -5  42-5.31028 17.7089   1
  -5   6  42-22.6611 41.7170   1
  -6  -5  43-8.77679 16.8131   1
  -5   6  43 31.2606 42.0355   1
  -5   6  44 25.2442 22.0445   1
  -6  -5  44 5.13722 24.2494   1
  -5   6  45 4.31150 26.0106   1
  -6  -5  45 33.8654 28.5931   1
  -5   6  46-26.2126 49.9641   1
  -6  -5  46-21.8885 30.3583   1
  -6  -5  47 26.5503 38.4645   1
  -5   6  47 19.6903 31.6912   1
  -5   6  48 61.1574 39.6413   1
  -6  -5  48 26.5989 35.3122   1
  -6  -5  49-32.3340 43.9723   1
  -6  -5  50 33.2563 31.6024   1
  -6  -5  51-77.4403 51.4888   1
  -6   6   0 718.965 84.1221   1
  -6   6  -1-28.3832 17.9835   1
  -6   6   1 4.79836 12.4734   1
  -6   6  -2 21.2378 15.8410   1
  -6   6   2 0.08179 13.0580   1
  -6   6   3 8.46492 9.84709   1
  -6   6  -3 28.2378 22.6283   1
  -6   6   4 489.463 73.1707   1
  -6   6  -4 455.767 64.5161   1
  -6   6  -5-20.6872 16.7653   1
  -6   6   5-28.8153 25.1871   1
  -6   6   6 46.7478 24.5134   1
  -6   6   7-5.12698 10.6500   1
  -6   6   8 390.037 68.3030   1
  -6   6   9 25.8858 23.2374   1
  -6  -6  10 3.42140 9.96781   1
  -6   6  10 8.20350 16.1465   1
  -6  -6  11 31.0724 20.8753   1
  -6   6  11-1.76569 14.1337   1
  -6  -6  12 196.559 43.4932   1
  -6   6  12 205.596 55.9631   1
  -6  -6  13 52.9199 22.7241   1
  -6   6  13 34.8772 23.5233   1
  -6  -6  14 13.5560 16.7754   1
  -6   6  14 2.55156 16.2896   1
  -6  -6  15 33.6154 24.9070   1
  -6   6  15 20.7247 21.1765   1
  -6  -6  16 53.7379 23.4424   1
  -6   6  16 108.405 37.8772   1
  -6   6  17 40.1855 22.2524   1
  -6  -6  17 12.8662 14.7044   1
  -6  -6  18 11.5474 18.0632   1
  -6   6  18 6.49799 23.0781   1
  -6  -6  19 62.2028 25.1990   1
  -6   6  19 62.9889 36.2327   1
  -6  -6  20 66.4441 29.6453   1
  -6   6  20 66.6604 39.0392   1
  -6  -6  21 138.475 43.8246   1
  -6   6  21 96.9707 37.0025   1
  -6   6  22 22.0218 23.6852   1
  -6  -6  22 24.4574 21.3080   1
  -6   6  23-6.45497 13.4549   1
  -6  -6  23 24.0359 27.6212   1
  -6   6  24 89.7891 39.1937   1
  -6  -6  24 122.687 41.7292   1
  -6   6  25-23.0890 19.8258   1
  -6  -6  25-15.1434 15.1367   1
  -6  -6  26 22.7434 21.7719   1
  -6   6  26 50.2732 37.5339   1
  -6   6  27-23.6851 28.9608   1
  -6  -6  27-23.0001 21.6813   1
  -6   6  28-24.5056 27.9492   1
  -6  -6  28 6.62375 11.2402   1
  -6   6  29-7.26619 25.1098   1
  -6  -6  29-9.86103 18.1408   1
  -6  -6  30 22.4116 21.9871   1
  -6   6  30 14.0026 27.4450   1
  -6  -6  31 1.79248 15.8007   1
  -6   6  31 32.3712 33.9336   1
  -6  -6  32 30.5161 18.0451   1
  -6   6  32 48.2355 34.0491   1
  -6  -6  33 35.7672 28.8189   1
  -6   6  33-12.2423 22.1198   1
  -6   6  34-33.2962 23.1344   1
  -6  -6  34 23.4481 27.3850   1
  -6   6  35 23.4529 15.5413   1
  -6  -6  35 0.21354 21.2495   1
  -6  -6  36 41.5649 28.4620   1
  -6   6  36-41.2569 31.4880   1
  -6   6  37 9.82865 17.1137   1
  -6  -6  37 20.9779 27.0693   1
  -6  -6  38 28.9735 31.9708   1
  -6   6  38-14.4099 25.9431   1
  -6  -6  39 68.3163 37.2916   1
  -6   6  39 61.7383 40.0225   1
  -6  -6  40 20.7317 20.4541   1
  -6   6  40-24.6723 32.9584   1
  -6  -6  41 14.0690 20.0742   1
  -6   6  41-28.4320 49.0896   1
  -6  -6  42 40.3071 30.8409   1
  -6   6  42-0.09102 45.2200   1
  -6  -6  43 2.38339 34.2609   1
  -6   6  43-9.18212 18.7747   1
  -6  -6  44 47.5639 48.7988   1
  -6   6  44-22.7196 48.4179   1
  -6  -6  45 11.3296 15.1934   1
  -6   6  45-34.0132 19.1538   1
  -6  -6  46 3.39720 24.3529   1
  -6   6  46 29.7661 20.8596   1
  -6   6  47-21.9660 33.7470   1
  -7   6   0 30.6976 15.9756   1
  -7   6  -1 29.0015 25.7632   1
  -7   6   1-0.97110 13.9762   1
  -7   6   2 184.195 49.1403   1
  -7   6  -2 173.410 43.7637   1
  -7   6  -3 37.5294 28.1858   1
  -7   6   3 22.3373 21.0194   1
  -7   6   4 22.7992 11.3692   1
  -7   6  -4 3.98796 14.1662   1
  -7   6   5 20.2622 26.1736   1
  -7   6   6 209.826 51.0274   1
  -7   6   7 4.89210 24.7811   1
  -7   6   8-10.7269 23.7834   1
  -7   6   9 27.8753 26.2460   1
  -7   6  10 96.6967 40.0218   1
  -6  -7  10 86.4057 30.7018   1
  -6  -7  11-8.07327 12.2403   1
  -7   6  11 12.9137 22.3232   1
  -6  -7  12 19.3434 20.3955   1
  -7   6  12 7.52798 18.2142   1
  -7   6  13 86.6671 39.2123   1
  -6  -7  13 63.9864 28.4095   1
  -6  -7  14 18.0950 16.5403   1
  -7   6  14 19.7098 15.5704   1
  -6  -7  15 17.7201 15.0776   1
  -7   6  15 20.9216 23.2904   1
  -7   6  16 7.88510 21.6332   1
  -6  -7  16-13.0613 15.9507   1
  -6  -7  17 105.564 35.9080   1
  -7   6  17 52.1951 35.9492   1
  -7   6  18 31.6275 27.9775   1
  -6  -7  18 21.2448 18.1678   1
  -6  -7  19 95.5440 31.2317   1
  -7   6  19 161.190 54.1059   1
  -6  -7  20 55.0138 29.2837   1
  -7   6  20 90.3222 46.7199   1
  -6  -7  21 9.09277 20.0030   1
  -7   6  21 17.7654 22.3808   1
  -6  -7  22-0.83273 11.5672   1
  -7   6  22-2.31576 15.1203   1
  -6  -7  23 84.6646 30.0931   1
  -7   6  23 65.2405 30.0431   1
  -6  -7  24 8.34439 14.4277   1
  -7   6  24-15.2355 19.0928   1
  -6  -7  25 26.7706 25.5356   1
  -7   6  25 5.83463 18.5204   1
  -7   6  26 32.2194 40.6754   1
  -6  -7  26 30.0980 23.5395   1
  -7   6  27 135.528 57.5122   1
  -6  -7  27 87.0255 31.0276   1
  -7   6  28-11.1957 37.8084   1
  -6  -7  28 6.75473 20.8684   1
  -7   6  29 39.4858 32.3964   1
  -6  -7  29 64.8296 35.7602   1
  -6  -7  30 4.88175 16.4035   1
  -7   6  30-50.2447 37.3583   1
  -7   6  31 30.6053 15.5369   1
  -6  -7  31 49.3085 27.9424   1
  -6  -7  32-4.56951 15.8216   1
  -7   6  32-16.7026 31.1641   1
  -6  -7  33 39.4694 27.1874   1
  -7   6  33 62.0009 45.4237   1
  -7   6  34 53.5041 38.3417   1
  -6  -7  34-16.1307 16.1909   1
  -7   6  35 47.3663 23.2757   1
  -6  -7  35 53.8914 35.4880   1
  -6  -7  36-6.70735 16.7699   1
  -7   6  36-52.1605 35.2173   1
  -6  -7  37 35.2795 25.6836   1
  -7   6  37 31.2694 29.7146   1
  -6  -7  38-18.0301 22.3575   1
  -7   6  38-81.3896 50.7038   1
  -6  -7  39 17.9831 12.8182   1
  -7   6  39 27.2134 26.8473   1
  -7   6  40-45.5061 45.2505   1
  -6  -7  40-16.6557 18.5847   1
  -7   6  41 67.7796 42.5159   1
  -7   6  42 88.9808 57.6192   1
  -7   6  43 19.0601 31.5742   1
  -7   6  44 19.3508 17.6779   1
  -7   6  45-2.78430 30.3806   1
  -7   6  46-21.9526 32.0212   1
  -7   5   0 77.3868 26.7822   1
  -7   5  -1-19.0760 17.0920   1
  -7   5   1 14.8803 15.6809   1
  -7   5   2 68.3367 22.5458   1
  -7   5  -2 74.2876 34.8046   1
  -7   5   3 48.6520 30.2247   1
  -7   5   4 138.708 37.9094   1
  -7   5   5 40.2868 25.0329   1
  -7   5   6 34.8220 21.5223   1
  -7   5   7-24.3352 27.7941   1
  -7   5   8 157.204 41.4976   1
  -7   5   9 62.5585 35.5471   1
  -5  -7   9 22.9832 20.1390   1
  -7   5  10-10.0744 14.7504   1
  -5  -7  10-4.52512 9.27464   1
  -5  -7  11 71.8992 24.2243   1
  -7   5  11 22.8851 19.6688   1
  -5  -7  12 134.986 34.6274   1
  -7   5  12 122.452 39.7869   1
  -7   5  13 39.8585 27.0213   1
  -5  -7  13 44.1111 20.9501   1
  -5  -7  14 23.5355 15.9916   1
  -7   5  14-11.1726 24.9670   1
  -5  -7  15 63.0032 23.7095   1
  -7   5  15 54.7517 24.6400   1
  -5  -7  16 17.8682 12.0312   1
  -7   5  16 5.74259 18.7556   1
  -7   5  17 46.4649 21.9190   1
  -5  -7  17 12.6534 9.43874   1
  -5  -7  18-15.1266 15.2010   1
  -7   5  18 2.16198 11.8435   1
  -5  -7  19 24.0406 21.0131   1
  -7   5  19 1.97738 13.1583   1
  -5  -7  20 26.7670 21.5629   1
  -7   5  20 67.8519 37.9784   1
  -5  -7  21 109.568 34.2637   1
  -7   5  21 38.6908 31.4073   1
  -5  -7  22-16.1815 12.6305   1
  -7   5  22-15.7110 21.7727   1
  -5  -7  23 25.1166 15.8164   1
  -7   5  23 36.0065 28.8725   1
  -7   5  24 21.2041 17.0626   1
  -5  -7  24 65.0672 29.9155   1
  -7   5  25 133.615 54.1287   1
  -5  -7  25 119.918 36.5427   1
  -5  -7  26 11.3412 10.2077   1
  -7   5  26 0.06255 18.6707   1
  -5  -7  27 11.5464 11.0853   1
  -7   5  27 58.5582 36.1829   1
  -7   5  28 34.0275 35.1134   1
  -5  -7  28 1.22638 17.1700   1
  -7   5  29 111.472 49.3381   1
  -5  -7  29 65.0234 31.0714   1
  -7   5  30 16.4161 25.7110   1
  -5  -7  30-7.02301 22.9926   1
  -7   5  31 35.8668 31.1162   1
  -5  -7  31-13.5692 28.9867   1
  -7   5  32-0.28964 27.8237   1
  -5  -7  32 18.0646 14.4709   1
  -7   5  33 79.7088 41.4669   1
  -5  -7  33 46.8179 27.7594   1
  -7   5  34-3.98964 27.7470   1
  -5  -7  34 12.3879 18.0964   1
  -7   5  35 48.9626 48.7865   1
  -5  -7  35 35.5849 31.4806   1
  -7   5  36 75.7026 56.2640   1
  -5  -7  36 5.32692 10.2861   1
  -7   5  37 35.3562 33.5220   1
  -5  -7  37 3.61175 14.7379   1
  -7   5  38-89.9309 48.3210   1
  -5  -7  38 18.2276 22.5014   1
  -7   5  39-33.4346 42.5085   1
  -5  -7  39 88.9868 39.1390   1
  -7   5  40 32.4783 48.6326   1
  -5  -7  40-24.6459 17.0544   1
  -7   5  41 29.4796 44.3114   1
  -7   5  42 24.2504 21.7643   1
  -7   5  43 5.49980 27.6664   1
  -7   5  44-65.3251 59.6654   1
  -7   5  45 44.4455 35.0738   1
  -7   5  46-4.53189 23.6124   1
  -7   5  47-95.7518 66.6768   1
  -7   4   0 63.4843 27.9651   1
  -7   4   1-6.73683 16.9931   1
  -7   4   2 89.5257 34.0816   1
  -7   4   3-1.47895 10.3593   1
  -7   4   4 156.897 43.7318   1
  -7   4   5-14.8410 20.5007   1
  -4  -7  -6 101.055 29.8912   1
  -7   4   6 111.793 36.8555   1
  -7   4   7 8.99169 14.5788   1
  -4  -7  -7-13.2804 15.4144   1
  -7   4   8 18.4555 20.5288   1
  -4  -7  -8 44.4164 28.6526   1
  -7   4   9-2.94141 12.7717   1
  -4  -7   9 4.10894 9.58416   1
  -4  -7  -9-2.47997 15.7323   1
  -7   4  10 40.5102 24.8950   1
  -4  -7 -10 16.0919 11.8011   1
  -4  -7  10 34.7030 12.5813   1
  -4  -7  11 8.10603 6.05451   1
  -7   4  11-16.3386 23.1720   1
  -4  -7  12 31.6342 16.1855   1
  -7   4  12 45.7255 27.2489   1
  -4  -7  13 49.5576 19.8889   1
  -7   4  13 77.7469 39.6282   1
  -4  -7  14 56.2678 19.7434   1
  -7   4  14 50.6790 30.7620   1
  -4  -7  15 77.1706 22.0854   1
  -7   4  15 88.0542 36.9649   1
  -4  -7  16 47.2579 18.8076   1
  -7   4  16 35.3428 27.5289   1
  -7   4  17 77.0874 38.6908   1
  -4  -7  17 61.0550 16.5011   1
  -7   4  18 31.2663 30.5191   1
  -4  -7  18 15.0274 13.5765   1
  -7   4  19 59.5026 25.3501   1
  -4  -7  19 89.8374 24.9454   1
  -7   4  20 21.0076 21.6840   1
  -4  -7  20 46.8182 21.2367   1
  -7   4  21 68.2437 33.9998   1
  -4  -7  21 89.0436 24.8634   1
  -4  -7  22-4.49083 8.87965   1
  -7   4  22 14.3648 21.6828   1
  -4  -7  23 91.2541 29.3368   1
  -7   4  23 48.6942 27.0863   1
  -4  -7  24 64.2378 21.4431   1
  -7   4  24 59.2794 39.3692   1
  -4  -7  25-2.23583 12.9839   1
  -7   4  25 44.9677 33.2587   1
  -4  -7  26-18.9192 15.3716   1
  -7   4  26-11.6054 17.0040   1
  -7   4  27-1.52177 20.3811   1
  -4  -7  27 16.8836 18.0303   1
  -4  -7  28-25.8227 9.16006   1
  -7   4  28 6.74808 30.8827   1
  -7   4  29 63.8760 35.1981   1
  -4  -7  29 43.7250 19.6289   1
  -7   4  30-19.5256 23.8297   1
  -4  -7  30-13.0440 19.6731   1
  -7   4  31 27.9939 23.0475   1
  -4  -7  31 57.7805 29.4814   1
  -7   4  32 30.3025 35.9347   1
  -4  -7  32 22.6080 17.3897   1
  -7   4  33 26.6257 20.7491   1
  -4  -7  33 47.8073 28.1124   1
  -7   4  34 26.3601 36.1640   1
  -4  -7  34 1.39224 21.2168   1
  -7   4  35 53.0708 36.0554   1
  -4  -7  35 21.6113 11.3092   1
  -7   4  36-13.5442 22.0873   1
  -4  -7  36-9.11715 17.4891   1
  -4  -7  37 59.5288 28.6295   1
  -7   4  37 106.993 54.1806   1
  -4  -7  38-29.8248 26.9303   1
  -7   4  38 12.3033 21.0146   1
  -7   4  39 26.6992 21.4418   1
  -4  -7  39 45.2889 28.6124   1
  -7   4  40 83.3477 53.2090   1
  -4  -7  40 28.2517 31.7616   1
  -4  -7  41 3.84296 19.8539   1
  -7   4  41-33.2315 40.1053   1
  -7   4  42-3.88469 27.2796   1
  -7   4  43 5.34825 17.9640   1
  -7   4  44-5.47452 23.0945   1
  -7   4  45 20.2570 31.8474   1
  -7   4  46 61.5516 49.2653   1
  -7   4  47 35.1493 17.9694   1
  -7   4  48 37.3944 31.3156   1
  -3  -7  -1 39.3943 19.4247   1
  -7   3   2 193.430 49.6766   1
  -3  -7  -2 234.252 37.7491   1
  -3  -7  -3 8.70773 12.8651   1
  -7   3   3 36.5551 28.1038   1
  -7   3   4 43.4557 23.6646   1
  -3  -7  -4 76.9363 23.5481   1
  -3  -7  -5 10.4033 14.9817   1
  -7   3   5-14.5446 22.4497   1
  -7   3   6 239.108 54.6611   1
  -3  -7  -6 249.736 45.7853   1
  -3  -7  -7 0.63501 11.0091   1
  -7   3   7 45.3994 26.7570   1
  -7   3   8 40.5092 25.8535   1
  -3  -7   8 42.7264 13.9424   1
  -3  -7  -8 18.9529 16.1968   1
  -3  -7   9 1.17640 5.50280   1
  -3  -7  -9 9.45016 13.2086   1
  -7   3   9 33.8199 21.8456   1
  -3  -7  10 143.990 23.3218   1
  -3  -7 -10 168.301 39.4106   1
  -7   3  10 122.246 43.8844   1
  -7   3  11 27.4159 17.9836   1
  -3  -7  11 57.0260 15.7378   1
  -3  -7 -11 18.5919 14.2331   1
  -3  -7 -12-0.82630 16.5265   1
  -7   3  12 9.99811 14.2770   1
  -3  -7  12 12.6036 8.27258   1
  -3  -7  13 28.8563 10.2046   1
  -7   3  13 41.4343 18.8033   1
  -7   3  14 111.643 42.5301   1
  -3  -7  14 144.009 25.7950   1
  -7   3  15 1.64737 16.3841   1
  -3  -7  15 19.6930 11.3497   1
  -7   3  16 4.10945 19.5154   1
  -3  -7  16 26.4876 13.4362   1
  -7   3  17 44.8458 30.1277   1
  -3  -7  17 58.0779 17.3676   1
  -3  -7  18 36.1907 15.3561   1
  -7   3  18 3.74941 25.4212   1
  -3  -7  19 45.0685 20.1863   1
  -7   3  19 41.6909 26.5787   1
  -3  -7  20 6.19829 6.37575   1
  -7   3  20-4.64340 19.5485   1
  -3  -7  21 107.607 26.3443   1
  -7   3  21 86.3829 30.4896   1
  -7   3  22 63.5814 34.7659   1
  -3  -7  22 75.8759 24.9226   1
  -3  -7  23 19.9572 15.3283   1
  -7   3  23 5.97802 14.3355   1
  -3  -7  24 15.3701 14.8493   1
  -7   3  24 34.4389 22.1914   1
  -3  -7  25 42.0850 18.3782   1
  -7   3  25 41.8078 27.9113   1
  -3  -7  26 57.0665 22.9258   1
  -7   3  26 37.1810 29.8938   1
  -3  -7  27 51.7258 25.0553   1
  -7   3  27 18.8000 19.7376   1
  -3  -7  28 24.1174 10.7078   1
  -7   3  28 19.3637 22.4604   1
   3   7 -28-12.1726 8.85213   1
  -3  -7  29 91.5613 34.2274   1
  -7   3  29 58.2486 39.1161   1
  -3  -7  30-19.0121 18.4038   1
  -7   3  30-4.34822 18.6314   1
  -3  -7  31 138.045 38.5666   1
  -7   3  31 94.1944 49.3359   1
  -3  -7  32 7.53177 16.2830   1
  -7   3  32 41.0456 36.9298   1
  -7   3  33 85.4289 47.4410   1
  -3  -7  33 119.944 36.2209   1
  -7   3  34-17.4029 42.5264   1
  -3  -7  34 32.2545 25.4249   1
  -7   3  35 98.1248 52.2103   1
  -3  -7  35 86.0776 36.3784   1
  -3  -7  36 30.8286 21.6149   1
  -7   3  36 4.13627 21.9431   1
  -7   3  37 41.8031 28.3764   1
  -3  -7  37 89.1035 35.9291   1
  -7   3  38 25.6576 28.8294   1
  -3  -7  38-14.4076 16.5469   1
  -3  -7  39-19.7232 21.4101   1
  -7   3  39 35.3425 50.9058   1
  -7   3  40 92.6185 56.5897   1
  -3  -7  40-21.2149 25.5644   1
  -7   3  41 31.7337 20.6568   1
  -3  -7  41 12.3769 14.9195   1
  -7   3  42 25.4166 34.6179   1
  -7   3  43-44.5336 35.9187   1
  -7   3  44 31.3386 33.1383   1
  -7   3  45 38.9830 55.7145   1
  -7   3  46-5.87073 23.4661   1
  -7   3  47-47.0399 40.3762   1
  -7   3  48 20.9430 19.5117   1
  -7   3  49-27.3073 47.0618   1
  -2  -7   0 250.153 32.7511   1
  -2  -7  -1 7.50690 11.6854   1
  -2  -7   1 8.42278 6.57491   1
  -2  -7  -2 19.6566 9.52172   1
  -2  -7   2 6.51663 8.12017   1
  -2  -7   3 30.7941 10.4743   1
  -2  -7  -3 20.5260 9.34728   1
  -7   2   4 244.153 52.5174   1
  -2  -7  -4 356.380 45.1388   1
  -2  -7   4 305.262 29.6293   1
  -7   2   5 74.1608 33.1792   1
  -2  -7   5 81.1686 14.8193   1
  -2  -7  -5 55.2088 18.1854   1
  -2  -7  -6 260.837 42.7195   1
  -7   2   6 194.032 51.2801   1
  -2  -7   7 29.3483 8.80393   1
  -2  -7  -7 14.4190 9.55862   1
  -7   2   7 60.9633 30.4022   1
  -7   2   8 422.959 71.4940   1
  -2  -7   8 394.641 29.2668   1
  -2  -7  -8 479.149 60.4126   1
  -7   2   9 1.24615 18.3933   1
  -2  -7   9 3.09648 3.21926   1
  -2  -7  -9-5.23621 12.8605   1
  -7   2  10 76.2819 32.0532   1
  -2  -7  10 111.333 15.1264   1
  -2  -7 -10 168.029 39.0461   1
  -7   2  11 6.84849 20.4840   1
  -2  -7  11-4.25969 4.97636   1
  -2  -7 -11-16.2832 19.7934   1
  -2  -7  12 206.788 21.9563   1
  -7   2  12 201.682 53.7600   1
  -2  -7 -12 284.817 51.3405   1
  -2  -7  13 20.4341 8.29621   1
  -7   2  13 36.3857 22.4546   1
  -2  -7 -13 46.7024 17.8328   1
  -2  -7  14 63.1368 13.9462   1
  -7   2  14 74.0944 34.9792   1
  -2  -7  15 41.2300 11.3388   1
  -7   2  15 55.0447 27.2055   1
  -7   2  16 124.767 46.7269   1
  -2  -7  16 118.216 19.8897   1
  -7   2  17 83.2428 39.5828   1
  -2  -7  17 39.7478 12.7763   1
  -7   2  18-2.37439 16.8476   1
  -2  -7  18 16.9768 10.1181   1
  -7   2  19 19.4235 19.3087   1
  -2  -7  19 0.74185 5.29445   1
  -7   2  20 65.8626 31.7912   1
  -2  -7  20 75.3618 19.5555   1
  -7   2  21 114.432 41.0666   1
  -2  -7  21 124.513 24.3249   1
  -2  -7  22 24.8999 13.4858   1
  -7   2  22 23.2316 26.6548   1
  -7   2  23 28.2073 23.9924   1
  -2  -7  23 65.6589 21.0013   1
  -2  -7  24 42.8240 16.4304   1
  -7   2  24-20.1604 23.5639   1
   2   7 -24 44.4576 16.8598   1
  -2  -7  25 64.1427 21.2205   1
   2   7 -25 32.4675 14.3884   1
  -7   2  25 81.2368 43.1845   1
  -2  -7  26 2.19202 10.5489   1
  -7   2  26 47.9600 40.7455   1
   2   7 -26 21.7310 18.0578   1
   2   7 -27 71.2312 22.7528   1
  -2  -7  27 47.7921 18.4150   1
  -7   2  27 27.0115 15.9333   1
   2   7 -28 0.04184 8.54257   1
  -2  -7  28 17.9119 10.6738   1
  -7   2  28-19.2008 27.2381   1
   2   7 -29 86.4735 21.1930   1
  -2  -7  29 63.7661 24.3373   1
  -7   2  29 94.1766 42.3777   1
  -2  -7  30-4.99961 17.0364   1
  -7   2  30 21.6932 28.9333   1
  -7   2  31 10.3437 13.9060   1
  -2  -7  31 13.1851 9.71031   1
  -7   2  32 0.66273 25.8868   1
  -2  -7  32 44.7298 18.9596   1
  -7   2  33 6.35192 31.0183   1
  -2  -7  33 35.0326 22.8405   1
  -2  -7  34 40.4609 28.2299   1
  -7   2  34 22.5967 26.4831   1
  -2  -7  35 70.8125 25.1204   1
  -7   2  35 104.314 54.9826   1
  -2  -7  36-8.88084 20.4846   1
  -7   2  36 47.7314 39.5735   1
  -7   2  37 84.9004 44.8257   1
  -2  -7  37 89.1647 35.8357   1
  -7   2  38 36.0292 38.2050   1
  -2  -7  38 1.29007 15.3555   1
  -7   2  39 82.0202 46.4607   1
  -2  -7  39 69.8709 28.8616   1
  -7   2  40-2.82260 30.2407   1
  -2  -7  40-18.2817 20.4349   1
  -7   2  41-45.1495 44.0354   1
  -2  -7  41 9.00375 16.9769   1
  -7   2  42 7.36233 22.6006   1
  -7   2  43-10.2706 17.4052   1
  -7   2  44-5.41420 16.5637   1
  -7   2  45 97.2881 55.0643   1
  -7   2  46 4.69864 51.6013   1
  -7   2  47 132.528 64.1929   1
  -7   2  48 74.0330 49.3441   1
  -7   2  49 26.5327 41.8204   1
  -7   2  50 52.1490 45.1103   1
  -1  -7   0 79.1733 17.7004   1
  -1  -7  -1 56.9682 14.1885   1
  -1  -7   1 55.7579 11.9327   1
  -1  -7  -2 77.4490 16.8512   1
  -1  -7   2 86.9130 15.0962   1
  -1  -7   3 2.04132 3.17906   1
  -1  -7  -3 2.45752 9.33831   1
  -1  -7   4 60.5086 10.3423   1
  -1  -7  -4 88.0922 21.9223   1
  -1  -7  -5-6.58313 11.6622   1
  -7   1   5-6.29149 19.9135   1
  -1  -7  -6 102.996 26.1079   1
  -7   1   6 70.7404 28.9010   1
  -1  -7  -7 83.4930 25.4629   1
  -7   1   7 113.759 38.5482   1
  -1  -7  -8 142.970 32.6291   1
  -7   1   8 164.212 47.3247   1
  -7   1   9 23.7866 18.5077   1
  -1  -7  -9 30.4202 16.0084   1
  -1  -7 -10 164.079 37.6166   1
  -7   1  10 185.491 50.6501   1
  -7   1  11 18.7345 22.4391   1
  -1  -7 -11 44.8874 17.4147   1
   1   7  11 3.95391 9.88040   1
  -7   1  12 177.145 49.9618   1
  -1  -7 -12 210.078 42.2225   1
   1   7  12 220.354 47.0060   1
  -7   1  13 65.3893 35.3681   1
   1   7  13 69.7060 25.7914   1
  -1  -7 -13 35.8380 19.4485   1
   1   7  14 60.5532 26.5996   1
  -7   1  14 83.6980 34.9009   1
  -1  -7 -14 138.543 39.4047   1
  -7   1  15 152.541 48.9784   1
   1   7  15 124.920 37.3065   1
  -7   1  16 105.399 40.0127   1
   1   7  16 122.554 40.4817   1
  -1  -7  17 19.6815 8.07449   1
  -7   1  17-15.5950 23.0204   1
   1   7  17 21.3512 19.3057   1
  -1  -7  18 16.3770 8.08426   1
  -7   1  18 39.8521 33.0894   1
   1   7  18 28.8095 24.4379   1
  -7   1  19 138.131 50.2608   1
   1   7  19 150.783 43.7526   1
  -1  -7  19 119.217 20.5912   1
   1   7 -20 93.8389 19.4355   1
  -7   1  20 45.1188 13.1625   1
   1   7  20 72.8302 30.7066   1
  -1  -7  20 70.8412 16.0285   1
   1   7 -21 3.67264 8.25473   1
   1   7  21 16.5250 20.5112   1
  -7   1  21 8.99120 21.8083   1
  -1  -7  21 15.6400 10.9433   1
   1   7 -22 26.6357 11.7484   1
   1   7  22 11.6454 10.9806   1
  -7   1  22 17.3394 16.1505   1
  -1  -7  22 21.1669 9.47183   1
   1   7 -23 97.8279 18.6934   1
   1   7  23 89.5373 41.5822   1
  -7   1  23 109.901 46.5496   1
  -1  -7  23 121.662 24.9935   1
   1   7 -24 11.0142 8.65118   1
   1   7  24 2.42807 14.8822   1
  -7   1  24 67.9946 42.7646   1
  -1  -7  24 7.74076 6.96622   1
   1   7 -25 8.22816 10.0271   1
   1   7  25-2.31037 24.2479   1
  -7   1  25-9.88636 25.8529   1
  -1  -7  25 3.68353 10.0758   1
   1   7 -26 28.0697 13.5195   1
   1   7  26 9.50729 14.8951   1
  -7   1  26 61.1666 30.5627   1
  -1  -7  26 40.5937 18.8281   1
   1   7 -27 84.2344 23.1740   1
   1   7  27 71.2687 33.2904   1
  -7   1  27 100.790 46.3653   1
  -1  -7  27 62.2431 20.2517   1
  -1  -7  28 16.1172 11.1016   1
   1   7 -28 11.6992 8.89842   1
   1   7  28-0.84148 17.1144   1
  -7   1  28 24.5417 33.9754   1
  -1  -7  29-5.95211 17.3152   1
   1   7  29-27.7746 30.9102   1
   1   7 -29 23.7695 17.9487   1
  -7   1  29-0.68813 17.7625   1
   1   7  30 32.9368 34.8604   1
   1   7 -30 2.68453 17.6360   1
  -7   1  30-35.0612 33.7194   1
  -1  -7  30-10.0713 10.6981   1
  -1  -7  31 87.1816 29.8760   1
   1   7  31 59.2830 38.3978   1
  -7   1  31 22.0779 27.4979   1
  -7   1  32-40.5955 42.2128   1
  -1  -7  32 20.3178 17.6241   1
   1   7  32 29.3039 32.9515   1
  -7   1  33 9.85118 22.0688   1
   1   7  33-7.07452 16.5990   1
  -1  -7  33 52.6395 24.9368   1
  -7   1  34 7.11693 27.3008   1
  -1  -7  34-17.6559 18.4339   1
   1   7  34 1.01211 18.7484   1
  -1  -7  35 90.3575 34.0070   1
  -7   1  35 45.3033 36.8362   1
   1   7  35 33.2784 20.4884   1
  -7   1  36 60.3276 45.8324   1
   1   7  36-0.53630 25.1410   1
  -1  -7  36-31.3169 23.4724   1
   1   7  37 26.1550 28.3432   1
  -7   1  37 76.8742 43.1672   1
  -1  -7  37 15.4156 23.9136   1
  -7   1  38 3.36705 19.7114   1
   1   7  38 52.0237 39.4192   1
  -1  -7  38 14.0086 18.0995   1
  -7   1  39 68.7436 52.1402   1
   1   7  39-36.4119 22.0626   1
   1   7  40-16.3939 33.8485   1
  -7   1  40 49.2274 38.6644   1
   1   7  41 94.6623 46.1590   1
  -7   1  41 31.1972 22.8920   1
  -7   1  42 2.43319 21.4663   1
   1   7  42 30.2608 32.9730   1
   1   7  43-44.3813 32.0946   1
  -7   1  43 92.0107 53.3186   1
   1   7  44 70.3476 44.1995   1
  -7   1  44-1.03847 28.6392   1
   1   7  45 4.33847 38.6392   1
  -7   1  45 44.6228 35.5787   1
  -7   1  46-19.1479 43.0747   1
  -7   1  47 100.852 51.0128   1
  -7   1  48-42.3694 54.5662   1
  -7   1  49 41.2223 48.0178   1
  -7   1  50 30.7277 29.7264   1
  -7   1  51-22.2150 50.2932   1
   0  -7   0-2.41536 7.65867   1
   0  -7   1 4.89215 3.52684   1
   0  -7  -1 4.37267 5.57195   1
   0  -7   2 49.8174 10.5954   1
   0  -7  -2 61.5106 15.2071   1
   0   7   3 81.4977 18.7484   1
   0  -7   3 71.1056 10.1141   1
   0  -7  -3 100.820 22.2650   1
   0   7   4 18.4230 11.4073   1
   0  -7  -4 12.0157 12.2820   1
   0   7   5-3.40062 9.66119   1
   0  -7  -5-11.2050 13.3171   1
   0   7   6 19.4884 9.22141   1
   0  -7  -6 19.7844 8.14843   1
  -7   0   7 33.0112 21.1445   1
   0   7   7 33.0921 17.9294   1
   0  -7  -7 30.8581 15.8796   1
  -7   0   8-36.7304 25.8837   1
   0   7   8-5.27419 9.95032   1
   0  -7  -8 12.7656 17.3293   1
   0  -7  -9-2.00354 8.67218   1
  -7   0   9 15.2843 24.1858   1
   0   7   9 4.85064 9.01819   1
   0   7  10 157.131 35.8850   1
   0  -7 -10 88.0671 22.7850   1
  -7   0  10 108.004 33.1409   1
   0  -7 -11 117.446 28.0518   1
  -7   0  11 58.8994 27.5962   1
   0   7  11 85.4587 28.3311   1
   0   7  12 0.01466 11.4731   1
   0  -7 -12-21.7061 19.1573   1
  -7   0  12-0.63147 11.3576   1
   0   7  13 94.9647 32.3604   1
   0  -7 -13 87.4949 33.1428   1
  -7   0  13 63.8745 25.6541   1
   0  -7 -14 126.613 34.7348   1
  -7   0  14 103.292 45.2977   1
   0   7  14 183.010 43.1586   1
   0   7  15 35.7236 21.9994   1
  -7   0  15-4.12211 14.9359   1
   0   7  16 12.8435 19.3401   1
  -7   0  16-5.72727 11.8530   1
   0   7  17 300.539 59.1516   1
  -7   0  17 250.874 58.9820   1
   0   7 -17 241.452 21.6116   1
   0   7 -18 316.637 27.6915   1
  -7   0  18 323.704 69.2675   1
   0   7  18 295.139 59.1458   1
   0   7  19 66.0958 29.9134   1
   0   7 -19 42.0538 12.0039   1
  -7   0  19 65.1588 32.2960   1
   0   7  20-13.7416 17.2159   1
   0   7 -20 3.82649 7.88734   1
  -7   0  20 2.38508 19.1486   1
   0   7 -21 217.175 28.4696   1
  -7   0  21 190.739 55.3971   1
   0   7  21 238.215 56.5873   1
   0   7  22 10.0065 18.2410   1
  -7   0  22 22.3132 19.2497   1
   0   7 -22 30.6556 11.2369   1
   0   7  23-1.52645 13.7206   1
   0   7 -23 58.2279 18.4752   1
  -7   0  23 18.6388 20.8257   1
   0   7  24 22.5622 24.6372   1
   0   7 -24-5.53971 15.0955   1
  -7   0  24 24.9160 32.2005   1
   0   7 -25 20.0018 12.2491   1
   0   7  25 12.1993 19.8876   1
  -7   0  25-5.67165 13.0331   1
   0   7  26 10.3810 24.8225   1
   0   7 -26 58.7237 20.8570   1
  -7   0  26 3.56924 21.9589   1
   0   7  27 20.0137 29.4081   1
   0   7 -27 1.84175 8.60615   1
  -7   0  27 12.8618 29.8613   1
   0   7  28-26.3418 34.5713   1
   0   7 -28 2.97087 10.9178   1
  -7   0  28-18.4152 14.3868   1
   0   7  29 20.8152 17.9811   1
   0   7 -29 45.4616 21.9718   1
  -7   0  29 19.5219 29.4010   1
   0   7  30-12.6898 27.9937   1
   0   7 -30 21.2054 14.9289   1
  -7   0  30 9.64966 20.9598   1
   0   7  31 19.4696 18.7765   1
  -7   0  31 64.2664 40.1254   1
   0   7  32 16.5991 20.4847   1
  -7   0  32 93.8801 54.0616   1
  -7   0  33 124.952 42.8313   1
   0   7  33 116.732 47.6551   1
   0   7  34-26.9942 35.8058   1
  -7   0  34-22.2215 27.6316   1
  -7   0  35 46.7162 37.0699   1
   0   7  35 45.5030 37.9184   1
  -7   0  36-22.3154 22.1809   1
   0   7  36 106.534 51.4985   1
  -7   0  37-41.0203 33.5839   1
   0   7  37 6.08031 22.8798   1
  -7   0  38 44.0899 42.2862   1
   0   7  38-6.81987 18.1777   1
  -7   0  39 57.0018 46.6826   1
   0   7  39 55.4071 40.9008   1
  -7   0  40-18.8089 36.9109   1
   0   7  40-52.8155 45.3486   1
   0   7  41-17.4373 34.8176   1
  -7   0  41 43.6916 40.2046   1
  -7   0  42 45.9748 36.6740   1
   0   7  42 77.9228 49.1468   1
  -7   0  43 99.3961 63.7338   1
   0   7  43-29.4121 44.6886   1
   0   7  44-8.86898 27.6305   1
  -7   0  44-7.04972 15.7228   1
  -7   0  45-9.33928 28.4812   1
   0   7  45 130.865 63.7166   1
  -7   0  46 73.4151 43.9873   1
   0   7  46 10.5564 44.5383   1
   0   7  47 41.5457 33.8038   1
  -7   0  47 22.8510 35.6887   1
   0   7  48 22.9512 18.2255   1
  -7   0  48-11.6507 43.1355   1
   0   7  49-83.5480 54.9060   1
  -7   0  49-69.5108 57.4541   1
  -7   0  50-9.43320 32.9313   1
   0   7  50 22.6756 44.3934   1
  -7   0  51 80.9488 51.5026   1
  -7   0  52 8.75442 41.4769   1
   1  -7   0 72.1351 15.0667   1
  -1   7   0 73.3740 14.0263   1
   1  -7   1 43.9408 12.2462   1
   1  -7  -1 58.8500 13.3486   1
  -1   7  -1 71.1994 15.7292   1
  -1   7   1 68.8465 18.5408   1
  -1   7   2 97.8406 22.5437   1
   1  -7  -2 70.4861 15.3055   1
  -1   7  -2 94.5986 15.9560   1
  -1   7   3 19.0498 12.0449   1
   1  -7  -3 11.5133 6.67318   1
  -1   7  -3 2.64835 5.53597   1
  -1   7   4 64.1393 18.4440   1
   1  -7  -4 84.4258 21.0573   1
   1  -7  -5-16.3031 16.3199   1
  -1   7   5 9.38315 8.69946   1
   1  -7  -6 80.3996 24.0977   1
  -1   7   6 71.4854 19.4747   1
  -1   7   7 79.6111 22.2251   1
   1  -7  -7 119.631 27.9951   1
  -7  -1   8 186.064 46.2614   1
   1  -7  -8 211.242 38.5899   1
  -1   7   8 135.345 31.1737   1
  -7  -1   9 41.9879 20.4725   1
  -1   7   9 37.7709 21.1017   1
   1  -7  -9 37.6979 21.6918   1
  -7  -1  10 177.294 48.7419   1
  -1   7  10 186.695 37.6148   1
   1  -7 -10 203.201 39.6962   1
  -1   7  11 28.2679 25.0383   1
   1  -7 -11 20.0966 17.3350   1
  -7  -1  11 38.4784 33.4104   1
  -1   7  12 217.012 42.9151   1
  -7  -1  12 215.744 52.6011   1
   1  -7 -12 267.013 48.1844   1
  -1   7  13 89.8540 24.7472   1
  -7  -1  13 70.1000 29.3680   1
   1  -7 -13 47.5440 19.1715   1
  -7  -1  14 83.5335 33.3104   1
  -1   7  14 76.3380 26.7079   1
   1  -7 -14 71.0220 25.9384   1
  -1   7  15 106.598 33.3146   1
  -7  -1  15 117.479 39.3344   1
  -1   7  16 120.828 37.1032   1
  -1   7 -16 88.4078 12.6707   1
  -7  -1  16 102.250 43.9702   1
  -1   7  17 75.7791 31.7949   1
  -7  -1  17 40.0758 22.5285   1
  -1   7 -17 21.8275 7.30096   1
  -7  -1  18-8.27357 13.4203   1
  -1   7 -18 6.05376 3.59697   1
  -1   7  18 13.7977 11.9298   1
  -7  -1  19 121.894 45.1341   1
  -1   7 -19 112.863 18.1573   1
  -1   7  19 198.666 52.0874   1
  -7  -1  20 29.2277 26.2049   1
  -1   7  20 72.3369 27.7624   1
  -1   7 -20 63.4122 15.1869   1
  -1   7  21 9.55032 14.4248   1
  -7  -1  21 29.0718 28.2853   1
  -1   7 -21 32.6083 13.3339   1
  -1   7  22 9.09190 15.2118   1
  -7  -1  22 13.7818 26.4415   1
  -1   7 -22 11.0362 8.70509   1
  -1   7  23 138.348 42.9778   1
  -7  -1  23 103.191 41.6454   1
  -1   7 -23 101.888 22.5835   1
  -7  -1  24-8.66103 17.0578   1
  -1   7 -24 23.2468 14.0319   1
  -1   7  24 25.9754 29.4320   1
  -1   7  25 13.7884 19.8449   1
  -7  -1  25 11.6531 22.0253   1
  -1   7 -25 5.72562 6.35897   1
  -1   7  26-1.78311 18.0982   1
  -1   7 -26 36.5764 16.1135   1
  -7  -1  26 65.1730 31.6922   1
  -1   7  27 103.155 45.9398   1
  -1   7 -27 82.2115 23.0356   1
  -7  -1  27 67.8049 31.0308   1
  -1   7  28 14.2576 25.2928   1
  -1   7 -28 13.1187 7.91557   1
  -7  -1  28 9.69666 21.4662   1
  -1   7  29 37.3708 36.9416   1
  -1   7 -29 15.0372 13.4560   1
  -7  -1  29-3.23811 21.9827   1
  -1   7 -30-17.2089 19.4759   1
  -1   7  30 12.0602 21.6299   1
  -7  -1  30-23.5028 23.8637   1
  -1   7  31 59.6158 36.4341   1
  -7  -1  31 66.8617 34.6264   1
  -1   7  32 16.0332 17.0300   1
  -7  -1  32-36.8974 32.9256   1
  -1   7  33 25.0302 26.7191   1
  -7  -1  33 5.96550 31.7207   1
  -7  -1  34 40.7572 36.2156   1
  -1   7  34 4.17939 17.0501   1
  -7  -1  35 59.3502 38.5004   1
  -1   7  35 84.8559 43.8647   1
  -1   7  36-14.6821 28.1657   1
  -7  -1  36 3.65510 20.1082   1
  -7  -1  37 24.0797 21.2762   1
  -1   7  37 9.15232 34.3707   1
  -7  -1  38-9.24804 34.6466   1
  -1   7  38 30.6231 36.3452   1
  -1   7  39 67.5227 45.9778   1
  -7  -1  39 13.2353 15.0759   1
  -7  -1  40 24.8144 20.2381   1
  -1   7  40 21.4970 37.4182   1
  -1   7  41 64.1339 44.4357   1
  -7  -1  41 65.9910 46.2824   1
  -1   7  42 21.8904 29.1890   1
  -7  -1  42-55.2610 33.1665   1
  -7  -1  43 58.1096 48.7565   1
  -1   7  43 66.6187 42.5335   1
  -7  -1  44 19.4871 31.8956   1
  -1   7  44 7.73782 24.6752   1
  -1   7  45 100.233 52.1679   1
  -7  -1  45-46.5067 48.9789   1
  -7  -1  46 47.2862 43.9461   1
  -1   7  46-11.1934 32.3415   1
  -7  -1  47 137.434 66.2852   1
  -1   7  47 52.2712 51.0914   1
  -1   7  48 36.6571 28.0927   1
  -7  -1  48 66.6631 54.1694   1
  -1   7  49 74.7619 61.1874   1
  -7  -1  49-15.1700 41.8000   1
  -1   7  50-4.03858 43.4354   1
  -7  -1  50 28.7260 26.7061   1
  -7  -1  51-15.7420 44.5371   1
  -7  -1  52 33.4530 29.4814   1
  -2   7   0 260.883 32.5341   1
   2  -7  -1 12.9762 8.58344   1
  -2   7  -1 8.59855 8.16170   1
  -2   7   1 13.1490 8.43860   1
  -2   7  -2 9.17824 4.91454   1
  -2   7   2 15.6354 9.58945   1
   2  -7  -2 6.48541 7.83180   1
   2  -7  -3 20.8694 9.69188   1
  -2   7   3 20.0991 11.2438   1
  -2   7  -3 12.3034 7.14417   1
   2  -7  -4 316.720 40.3745   1
  -2   7   4 328.597 42.5960   1
  -2   7  -4 285.853 28.3927   1
   2  -7  -5 108.852 24.6003   1
  -2   7   5 65.5344 19.6429   1
  -2   7  -5 71.6626 13.5703   1
   2  -7  -6 248.751 39.5178   1
  -2   7   6 243.492 38.7198   1
  -2   7  -6 192.715 21.2879   1
   2  -7  -7 21.1209 9.97485   1
  -2   7   7 33.5177 14.8638   1
  -2   7  -7 28.3778 7.99161   1
  -7  -2   8 390.897 71.2747   1
   2  -7  -8 472.444 58.7613   1
  -2   7  -8 332.869 23.5721   1
  -2   7   8 478.372 59.5167   1
   2  -7  -9 34.1997 21.9488   1
  -2   7   9-26.7516 20.6781   1
  -7  -2   9 5.21010 9.90581   1
  -7  -2  10 89.7002 34.9100   1
   2  -7 -10 127.366 30.9512   1
  -2   7 -10 83.2901 10.9467   1
  -2   7  10 98.8764 31.1570   1
  -2   7 -10 70.1969 11.4573   1
  -7  -2  11-12.5010 21.0749   1
  -2   7 -11 3.90193 3.82987   1
  -2   7 -11 5.74163 2.97033   1
   2  -7 -11 14.4061 10.5944   1
  -2   7  11-6.66783 14.1896   1
  -7  -2  12 232.941 53.5108   1
   2  -7 -12 259.595 47.6414   1
  -2   7  12 259.387 49.7083   1
  -2   7 -12 202.636 18.5633   1
  -2   7 -12 154.841 17.7981   1
  -7  -2  13 34.5334 20.1495   1
   2  -7 -13 46.2232 24.9505   1
  -2   7  13 39.0664 17.9432   1
  -2   7 -13 24.2654 6.87660   1
  -7  -2  14 63.3366 29.3997   1
  -2   7 -14 54.7835 11.3339   1
  -2   7  14 92.6620 32.8049   1
  -7  -2  15 55.6729 29.9180   1
  -2   7 -15 44.8767 11.1741   1
  -2   7  15 58.9058 26.9330   1
  -7  -2  16 123.403 43.7988   1
  -2   7 -16 129.862 19.6552   1
  -2   7  16 112.424 35.8430   1
  -7  -2  17 24.8094 19.6024   1
  -2   7 -17 54.2713 12.7426   1
  -2   7  17 60.6230 28.1276   1
  -7  -2  18 12.3563 20.6312   1
  -2   7 -18 17.2745 9.69066   1
  -2   7  18 58.7544 28.3629   1
  -2   7 -19 18.9227 11.7310   1
  -7  -2  19-4.67446 16.1981   1
  -2   7  19 32.7983 30.1136   1
  -2   7 -20 64.9127 18.6914   1
  -7  -2  20 43.7264 32.2525   1
  -2   7  20 108.975 40.3874   1
  -2   7 -21 128.132 25.1523   1
  -7  -2  21 99.9196 40.3053   1
  -2   7  21 51.6148 28.6183   1
  -7  -2  22 37.1479 32.4311   1
  -2   7 -22 4.09378 8.38239   1
  -2   7  22 25.0424 25.5944   1
  -2   7 -23 64.4925 17.4143   1
  -7  -2  23 41.6934 24.7951   1
  -2   7  23 52.4333 28.7058   1
  -2   7  24 21.1347 12.7472   1
  -7  -2  24-2.91690 15.5995   1
  -2   7 -24 41.4096 17.6431   1
  -2   7 -25 56.4511 18.7691   1
  -2   7  25 18.6345 23.4947   1
  -7  -2  25 12.6054 19.9587   1
  -2   7 -26 15.7145 15.5015   1
  -2   7  26 10.7783 21.7502   1
  -7  -2  26-13.6111 23.1634   1
  -2   7  27 84.1438 38.2898   1
  -2   7 -27 56.6529 23.8487   1
  -7  -2  27 15.6636 28.8395   1
  -2   7  28 12.0085 25.1700   1
  -2   7 -28 25.8484 12.9110   1
  -7  -2  28 10.1902 25.3282   1
  -2   7 -29 55.8763 20.2277   1
  -2   7  29 77.4062 41.6786   1
  -7  -2  29 84.2099 43.5213   1
  -2   7  30 20.8077 14.9944   1
  -7  -2  30 5.85236 17.2986   1
  -2   7  31-28.8517 32.7650   1
  -7  -2  31 28.7210 23.2244   1
  -2   7  32 18.2763 23.0716   1
  -7  -2  32 16.7258 17.2759   1
  -2   7  33 110.533 49.4402   1
  -7  -2  33 25.4193 14.4155   1
  -7  -2  34 21.5109 20.7294   1
  -2   7  34-40.3708 30.6069   1
  -2   7  35 81.7336 46.0267   1
  -7  -2  35 80.9164 42.9557   1
  -7  -2  36 24.6288 29.9198   1
  -2   7  36-15.9732 21.4679   1
  -7  -2  37 49.2498 36.4572   1
  -2   7  37 39.9943 32.1755   1
  -7  -2  38 24.3259 27.9922   1
  -2   7  38-53.9627 34.0768   1
  -7  -2  39 53.7158 37.4346   1
  -2   7  39 60.6909 46.2709   1
  -7  -2  40-23.9567 24.1894   1
  -2   7  40 1.41275 33.6479   1
  -7  -2  41 31.0193 19.8984   1
  -2   7  41 100.965 54.6142   1
  -7  -2  42 13.0603 20.1915   1
  -2   7  42 112.161 65.5813   1
  -7  -2  43 30.2975 40.3042   1
  -2   7  43 54.9529 52.4757   1
  -7  -2  44 51.3066 38.8218   1
  -2   7  44 70.1336 54.3812   1
  -2   7  45-11.9711 22.9474   1
  -7  -2  45 5.02521 20.8092   1
  -2   7  46-18.5624 45.9739   1
  -7  -2  46-45.6486 49.3218   1
  -2   7  47 51.4436 30.5915   1
  -7  -2  47 34.3481 33.9529   1
  -2   7  48 20.0154 27.0679   1
  -7  -2  48 103.472 60.3223   1
  -2   7  49-27.5418 42.6182   1
  -7  -2  49-1.67562 37.1408   1
  -7  -2  50 55.4834 46.3823   1
  -7  -2  51 2.41904 29.4827   1
  -7  -2  52 9.41418 25.7594   1
  -7  -2  53 72.5663 57.7706   1
  -3   7   0-1.30024 9.35198   1
  -3   7  -1 16.3807 8.88106   1
  -3   7   1 25.2446 15.4094   1
  -3   7   2 263.647 42.3625   1
  -3   7  -2 257.421 33.6993   1
  -3   7  -3 4.60136 6.91321   1
  -3   7   3-0.50261 11.4025   1
   3  -7  -3 15.3166 12.7205   1
  -3   7  -4 78.4237 18.8749   1
   3  -7  -4 73.0894 21.9759   1
  -3   7   4 92.6015 25.7141   1
   3  -7  -5 6.59169 8.43330   1
  -3   7  -5-8.39710 9.29431   1
  -3   7   5 15.2281 8.81592   1
  -3   7   6 226.920 42.6068   1
   3  -7  -6 277.344 44.4842   1
  -3   7  -6 240.390 30.2815   1
  -3   7  -7 5.42188 9.07675   1
  -3   7   7-13.1851 16.7470   1
   3  -7  -7-19.8451 19.5667   1
  -3   7  -8 45.3890 13.5127   1
   3  -7  -8 42.2195 19.7173   1
  -3   7   8 26.0716 15.4918   1
  -7  -3   9 18.3100 17.5342   1
   3  -7  -9 15.7189 7.89037   1
  -3   7   9 13.2269 14.0020   1
  -3   7  -9 5.34299 7.37757   1
  -3   7 -10 142.034 23.3344   1
  -3   7  10 164.372 39.5072   1
   3  -7 -10 137.107 31.8762   1
  -7  -3  10 169.148 46.0329   1
  -3   7  11 22.2733 17.1506   1
   3  -7 -11 68.5682 27.4224   1
  -7  -3  11 41.9187 27.0311   1
  -7  -3  12 9.53484 21.0724   1
  -3   7  12 23.8640 12.8800   1
   3  -7 -12 20.1499 17.2788   1
  -7  -3  13 53.9356 27.4824   1
  -3   7  13 29.8995 18.6718   1
  -3   7 -14 128.461 23.1168   1
  -3   7  14 142.421 40.8406   1
  -7  -3  14 85.6570 37.1637   1
  -3   7 -15 21.0432 10.9825   1
  -7  -3  15 26.9512 18.6585   1
  -3   7  15 14.6070 11.7547   1
  -3   7  16 22.9134 19.4628   1
  -7  -3  16 21.1121 25.5604   1
  -3   7 -16 27.8730 13.8702   1
  -7  -3  17 90.8418 36.9527   1
  -3   7  17 25.5128 18.6223   1
  -3   7 -17 81.8421 20.4998   1
  -3   7 -18 18.0818 8.09942   1
  -7  -3  18 51.4088 32.2909   1
  -3   7  18 14.5669 17.7370   1
  -7  -3  19 61.3241 32.5233   1
  -3   7  19 45.4438 26.1819   1
  -3   7 -19 44.1949 16.7788   1
  -3   7 -20 19.5803 13.2004   1
  -7  -3  20 6.42900 21.6701   1
  -3   7  20 28.4896 27.8993   1
  -7  -3  21 73.4322 31.5839   1
  -3   7  21 98.0622 38.9545   1
  -3   7 -21 77.0812 18.6752   1
  -7  -3  22 38.1361 10.7494   1
  -3   7  22 71.8105 31.9152   1
  -3   7 -22 91.3630 23.7629   1
  -7  -3  23-17.8040 27.9891   1
  -3   7 -23 0.96225 8.85334   1
  -3   7  23-8.17030 17.3524   1
  -7  -3  24 14.1065 13.5459   1
  -3   7 -24-42.0899 22.5475   1
  -3   7  24-40.9300 30.7645   1
  -3   7 -25 22.8769 15.7604   1
  -7  -3  25 39.8545 35.3187   1
  -3   7  25 16.6439 15.1915   1
  -7  -3  26-5.35122 12.7112   1
  -3   7  26-2.38785 20.8219   1
  -3   7 -27 74.6330 25.8090   1
  -7  -3  27 6.82144 13.8528   1
  -3   7  27 10.1099 17.6371   1
  -3   7 -28-26.5675 20.8011   1
  -7  -3  28 12.4778 22.2307   1
  -3   7  28-29.9648 26.2230   1
  -7  -3  29 63.6499 30.4635   1
  -3   7  29 71.4718 35.3296   1
  -3   7  30-10.1129 18.7189   1
  -7  -3  30-14.6351 25.8909   1
  -7  -3  31 129.098 49.9047   1
  -3   7  31 112.661 45.9910   1
  -7  -3  32 11.3336 24.5528   1
  -3   7  32 27.9625 30.9404   1
  -3   7  33 118.504 54.3988   1
  -7  -3  33 110.590 47.9124   1
  -7  -3  34 111.248 50.2906   1
  -3   7  34-8.39532 29.8113   1
  -3   7  35 68.9346 39.7023   1
  -7  -3  35 39.5716 38.0117   1
  -7  -3  36 34.0042 27.0217   1
  -3   7  36 74.6355 50.9911   1
  -3   7  37 49.6799 45.6469   1
  -7  -3  37 45.9564 29.1332   1
  -7  -3  38-5.58475 16.4858   1
  -3   7  38-23.8518 39.3960   1
  -7  -3  39 53.2610 47.0615   1
  -3   7  39 19.0664 39.8578   1
  -7  -3  40 7.89584 20.9141   1
  -3   7  40 1.43677 25.1223   1
  -7  -3  41 98.7906 48.7237   1
  -3   7  41 109.457 56.2561   1
  -7  -3  42 4.63256 22.9742   1
  -3   7  42 35.3887 27.8204   1
  -7  -3  43-44.0247 39.3458   1
  -3   7  43 13.3630 26.2969   1
  -7  -3  44-32.9864 41.2197   1
  -3   7  44 29.8786 37.0918   1
  -7  -3  45 49.2211 37.9847   1
  -3   7  45 76.6609 52.0959   1
  -7  -3  46 43.3775 34.9040   1
  -3   7  46-51.2087 32.6069   1
  -7  -3  47 71.7750 50.0956   1
  -3   7  47 41.4969 35.3828   1
  -7  -3  48-7.46553 29.0021   1
  -3   7  48 16.2069 30.9497   1
  -7  -3  49-2.56221 21.3780   1
  -3   7  49-11.7586 30.5173   1
  -7  -3  50 81.4751 55.4968   1
  -7  -3  51 34.6067 42.3035   1
  -7  -3  52 76.8182 52.6702   1
  -7  -3  53-1.16182 36.7029   1
  -7  -3  54 4.00939 26.5762   1
  -4   7   0 107.062 26.4750   1
  -4   7  -1 16.7609 14.7374   1
  -4   7   1-0.18624 13.5596   1
  -4   7  -2 91.5274 24.0361   1
  -4   7   2 105.855 29.3336   1
  -4   7  -3-11.4230 12.7820   1
  -4   7   3 10.3868 10.4325   1
  -4   7  -4 167.708 29.9534   1
  -4   7   4 194.923 39.0639   1
  -4   7  -5-18.6727 15.9649   1
   4  -7  -5 24.8050 17.6928   1
  -4   7   5-5.65641 11.3568   1
   4  -7  -6 113.383 30.9776   1
  -4   7  -6 116.045 26.7769   1
  -4   7   6 102.340 27.9586   1
  -4   7  -7 18.7027 9.14914   1
   4  -7  -7-6.00509 14.9226   1
  -4   7   7 8.79067 18.6691   1
  -4   7  -8 15.6999 9.28916   1
  -4   7   8 45.3956 24.2199   1
   4  -7  -8 28.8060 18.5124   1
   4  -7  -9 9.80303 9.18329   1
  -4   7  -9 18.1578 8.43965   1
  -4   7   9 36.0255 23.8056   1
  -7  -4  10 53.6952 27.1702   1
   4  -7 -10 22.4574 15.9462   1
  -4   7  10 21.4698 9.48575   1
  -4   7  11 15.9241 13.3209   1
  -7  -4  11 16.7049 24.5217   1
  -7  -4  12 20.7869 18.6735   1
  -4   7  12 27.9295 23.3888   1
  -7  -4  13 57.0583 34.0997   1
  -4   7  13 28.7675 13.4199   1
  -4   7  14 48.1962 28.7231   1
  -7  -4  14 83.6047 37.3655   1
  -4   7  15 62.2610 27.3586   1
  -7  -4  15 71.0837 31.2013   1
  -4   7  16 24.0556 18.7120   1
  -7  -4  16 22.3223 26.2171   1
  -4   7 -17 38.1365 13.6423   1
  -4   7  17 68.6302 27.2823   1
  -7  -4  17 73.0997 29.5568   1
  -7  -4  18 13.0080 16.5562   1
  -4   7  18 68.8193 31.5356   1
  -4   7 -18 19.5086 13.6434   1
  -4   7  19 99.5788 38.7237   1
  -7  -4  19 68.4319 23.9669   1
  -4   7 -19 72.2082 21.3944   1
  -4   7 -20 42.1716 16.4492   1
  -4   7  20 48.5144 30.9212   1
  -7  -4  20 67.4696 36.8045   1
  -4   7  21 110.691 42.0054   1
  -7  -4  21 88.8298 39.8913   1
  -4   7 -21 84.9023 23.1351   1
  -4   7  22 22.0919 18.4817   1
  -7  -4  22-29.1896 20.9120   1
  -4   7 -22 20.7102 10.1755   1
  -4   7 -23 78.3393 25.3486   1
  -4   7  23 63.9102 34.1779   1
  -7  -4  23 58.2365 32.5762   1
  -4   7 -24 59.2183 23.3459   1
  -4   7  24 54.2148 28.2017   1
  -7  -4  24 72.7123 36.0329   1
  -4   7  25 27.2274 13.6758   1
  -7  -4  25 19.5945 19.8991   1
  -4   7 -25 27.9150 20.9867   1
  -4   7  26 12.8320 21.3895   1
  -7  -4  26 44.6152 36.7204   1
  -4   7 -26 19.4178 14.2672   1
  -4   7  27 22.6780 25.9320   1
  -7  -4  27 31.1009 11.2871   1
  -4   7  28-18.8764 31.2474   1
  -7  -4  28-16.2919 30.4326   1
  -4   7  29 79.3158 43.3721   1
  -7  -4  29 19.1738 24.6453   1
  -4   7  30 25.5411 18.8674   1
  -7  -4  30 11.5690 19.1275   1
  -4   7  31 66.4633 38.2686   1
  -7  -4  31 51.4519 30.2029   1
  -4   7  32-0.91544 18.7399   1
  -7  -4  32 38.1456 35.7899   1
  -4   7  33 85.6486 46.6371   1
  -7  -4  33 66.4497 38.6830   1
  -7  -4  34 6.62760 19.0671   1
  -4   7  34-81.3684 48.1157   1
  -7  -4  35 6.12161 22.8120   1
  -4   7  35 24.7039 22.8891   1
  -7  -4  36 37.6884 23.2666   1
  -4   7  36 4.34939 29.4551   1
  -7  -4  37 91.5944 40.0130   1
  -4   7  37 64.6338 43.9139   1
  -7  -4  38 19.0306 15.2477   1
  -4   7  38 40.3203 36.7899   1
  -4   7  39 53.5477 54.4189   1
  -7  -4  39-5.07149 21.9314   1
  -4   7  40 20.0825 23.1760   1
  -7  -4  40 64.6678 41.1139   1
  -4   7  41 55.8230 54.0542   1
  -7  -4  41 38.4320 31.9085   1
  -4   7  42-19.1463 18.9666   1
  -7  -4  42 40.0041 46.4721   1
  -7  -4  43 21.7078 25.3658   1
  -4   7  43 61.3548 51.1574   1
  -7  -4  44 13.6423 22.8184   1
  -4   7  44-8.97352 38.6650   1
  -4   7  45 20.3988 31.6520   1
  -7  -4  45-55.9387 42.6060   1
  -4   7  46-36.5360 30.4202   1
  -7  -4  46-12.0680 20.0617   1
  -4   7  47 69.2649 44.3929   1
  -7  -4  47 76.8986 47.8583   1
  -4   7  48 57.6236 59.0759   1
  -7  -4  48-9.75209 20.2140   1
  -7  -4  49 38.4239 35.4249   1
  -7  -4  50-18.8029 23.7738   1
  -7  -4  51 108.537 57.4266   1
  -7  -4  52-48.7141 49.8157   1
  -7  -4  53-9.37903 27.5918   1
  -5   7   0 96.2169 27.3519   1
  -5   7  -1-3.59441 13.4405   1
  -5   7   1-10.3837 16.8658   1
  -5   7  -2 54.2722 21.1340   1
  -5   7   2 32.5012 17.5896   1
  -5   7  -3 25.7075 14.9174   1
  -5   7   3 11.9379 11.5904   1
  -5   7  -4 158.031 35.4368   1
  -5   7   4 202.364 46.6839   1
  -5   7  -5 25.7883 12.9966   1
  -5   7   5 35.9481 22.0793   1
  -5   7  -6-5.67772 13.6724   1
  -5   7   6 19.9595 17.0228   1
  -5   7  -7 3.87241 13.3247   1
  -5   7   7 20.5536 14.5380   1
  -5   7   8 170.544 41.9858   1
  -5   7  -8 190.247 37.0573   1
  -5   7   9 2.56941 16.2317   1
  -7  -5  10 45.6626 26.9962   1
  -5   7  10-10.9068 11.5803   1
  -7  -5  11 36.2949 22.5619   1
  -5   7  11 85.2744 35.7543   1
  -5   7  12 82.5919 31.6300   1
  -7  -5  12 80.7347 34.9722   1
  -7  -5  13 50.6173 24.6784   1
  -5   7  13 57.1356 30.6544   1
  -7  -5  14 38.9773 24.6783   1
  -5   7  14-24.9103 23.5768   1
  -7  -5  15 55.8012 28.2713   1
  -5   7  15 63.2466 23.2489   1
  -7  -5  16 11.4091 16.3138   1
  -5   7  16 50.0560 30.3770   1
  -7  -5  17 19.6601 12.9008   1
  -5   7  17 13.2196 11.8370   1
  -5   7  18 18.5728 14.1020   1
  -7  -5  18-19.3195 20.7046   1
  -7  -5  19 40.7801 22.1594   1
  -5   7  19 9.99725 23.8722   1
  -5   7 -20 17.8808 14.8012   1
  -7  -5  20 28.7754 23.4589   1
  -5   7  20 11.1544 20.4333   1
  -5   7  21 62.6727 30.6367   1
  -5   7 -21 85.5753 28.2013   1
  -7  -5  21 63.3090 31.5394   1
  -5   7  22-20.1706 25.2995   1
  -7  -5  22 22.4609 13.0737   1
  -5   7 -22 35.6568 16.4432   1
  -5   7  23 37.4964 25.9226   1
  -5   7 -23 37.0149 18.8052   1
  -7  -5  23 9.18501 14.5383   1
  -5   7  24 42.8518 29.5870   1
  -7  -5  24 19.5588 24.2574   1
  -5   7 -24 10.1927 15.5824   1
  -5   7  25 72.9877 41.0180   1
  -7  -5  25 105.390 36.1389   1
  -5   7  26 39.7331 27.6503   1
  -7  -5  26-7.48689 19.7875   1
  -5   7  27-22.7948 23.4122   1
  -7  -5  27 13.6400 17.0578   1
  -5   7  28 40.6788 26.3663   1
  -7  -5  28 34.8088 22.3290   1
  -5   7  29 21.2621 16.7496   1
  -7  -5  29 36.3764 14.4484   1
  -5   7  30 8.53911 17.7132   1
  -7  -5  30-0.13161 22.4889   1
  -5   7  31 60.2074 32.2080   1
  -7  -5  31 54.7557 35.1319   1
  -5   7  32 31.9221 29.1460   1
  -7  -5  32 0.41468 24.2546   1
  -7  -5  33-8.67099 19.4290   1
  -5   7  33 46.9825 37.3989   1
  -7  -5  34 18.4160 23.4246   1
  -5   7  34 39.1806 40.1680   1
  -7  -5  35 41.7769 36.2328   1
  -5   7  35 27.4195 42.9532   1
  -7  -5  36 8.63860 18.2569   1
  -5   7  36-10.0045 16.3213   1
  -7  -5  37 8.91813 13.3057   1
  -5   7  37 59.0607 42.8831   1
  -7  -5  38-16.2627 30.6838   1
  -5   7  38-19.6185 20.2973   1
  -7  -5  39 55.5981 40.1406   1
  -5   7  39 13.4978 15.5893   1
  -7  -5  40-7.21153 17.9924   1
  -5   7  40 16.8676 24.9724   1
  -7  -5  41 14.6432 28.0009   1
  -5   7  41 26.5144 25.6856   1
  -7  -5  42 49.5457 44.2901   1
  -5   7  42 1.72691 31.0405   1
  -5   7  43 23.5645 39.1641   1
  -7  -5  43 56.4571 37.8517   1
  -5   7  44 42.8944 23.5459   1
  -7  -5  44 40.5642 33.5076   1
  -5   7  45 48.2886 47.8850   1
  -7  -5  45 21.4595 27.8462   1
  -5   7  46-17.7694 39.3413   1
  -7  -5  46 49.0583 40.6944   1
  -5   7  47-15.0169 22.9042   1
  -7  -5  47 13.1264 19.9898   1
  -7  -5  48 11.1095 20.3990   1
  -7  -5  49 3.59506 19.5049   1
  -7  -5  50 45.9401 41.1883   1
  -6   7   0 24.4701 18.9337   1
  -6   7  -1 15.7463 19.3123   1
  -6   7   1-4.85625 13.5826   1
  -6   7  -2 153.797 38.8590   1
  -6   7   2 154.686 45.2886   1
  -6   7   3 9.32722 18.4217   1
  -6   7  -3 12.2316 14.5462   1
  -6   7  -4 11.8109 12.4193   1
  -6   7   4 31.5444 22.1000   1
  -6   7  -5 9.36790 13.4958   1
  -6   7   5-32.6276 19.3282   1
  -6   7   6 163.658 45.4037   1
  -6   7  -6 205.631 43.4512   1
  -6   7   7-21.2666 20.4244   1
  -6   7  -7 5.21726 11.5315   1
  -6   7  -8 37.5118 17.9035   1
  -6   7   8 3.28199 13.9785   1
  -6   7   9-0.93719 16.8913   1
  -7  -6  10 63.3434 21.7497   1
  -6   7  10 72.7870 28.7633   1
  -7  -6  11 25.0593 18.1901   1
  -6   7  11 15.0223 25.1934   1
  -7  -6  12 48.6087 19.8272   1
  -6   7  12 22.3959 23.4170   1
  -7  -6  13 65.9411 26.9213   1
  -6   7  13 76.3718 33.7678   1
  -7  -6  14-2.92405 14.6271   1
  -6   7  14 14.8611 18.0825   1
  -7  -6  15-3.81284 12.7136   1
  -6   7  15 10.1111 18.2046   1
  -7  -6  16 4.19096 10.9263   1
  -6   7  16-3.27875 18.3405   1
  -7  -6  17 89.5460 35.0241   1
  -6   7  17 62.5052 25.1985   1
  -7  -6  18 33.4989 30.4796   1
  -6   7  18 20.8235 21.2731   1
  -7  -6  19 92.3043 35.9911   1
  -6   7  19 127.221 48.5938   1
  -7  -6  20 25.9711 14.1490   1
  -6   7  20 78.8405 38.1644   1
  -6   7  21-13.5257 24.1643   1
  -7  -6  21 68.4034 29.4421   1
  -7  -6  22 4.48246 14.9185   1
  -6   7  22-42.7832 30.5737   1
  -7  -6  23 46.0211 26.8280   1
  -6   7  23-4.80433 29.7207   1
  -6   7  24 26.4305 23.3804   1
  -7  -6  24 18.3645 23.1437   1
  -6   7  25 20.1373 36.0305   1
  -7  -6  25 8.89659 19.0871   1
  -6   7  26 36.3019 22.1781   1
  -7  -6  26-9.19167 20.4895   1
  -7  -6  27 103.642 41.1894   1
  -6   7  27 106.282 46.5599   1
  -6   7  28-18.6543 24.7706   1
  -7  -6  28 13.8181 14.9262   1
  -6   7  29 83.6137 45.5350   1
  -7  -6  29 50.3805 35.3277   1
  -6   7  30-16.2130 32.8220   1
  -7  -6  30-4.60024 11.4170   1
  -6   7  31-29.9284 28.8870   1
  -7  -6  31-1.75414 28.0191   1
  -6   7  32 37.5325 41.9735   1
  -7  -6  32 24.9208 23.2128   1
  -7  -6  33-8.74160 11.7353   1
  -6   7  33 14.8524 24.0114   1
  -7  -6  34 41.2726 35.7823   1
  -6   7  34 52.6805 39.6181   1
  -7  -6  35 40.6841 29.0585   1
  -6   7  35-11.6093 26.6699   1
  -7  -6  36 29.1805 25.5746   1
  -6   7  36 34.3176 28.6996   1
  -7  -6  37 74.6199 43.6940   1
  -6   7  37 31.2574 24.7068   1
  -7  -6  38 28.0116 33.2734   1
  -6   7  38-54.1629 38.1747   1
  -7  -6  39 44.0026 36.5089   1
  -6   7  39-45.0916 36.7249   1
  -7  -6  40-32.9797 35.0704   1
  -6   7  40 3.84914 31.7074   1
  -7  -6  41 76.1550 42.5117   1
  -6   7  41 65.5972 51.2971   1
  -7  -6  42 48.7846 38.1913   1
  -6   7  42-3.52060 26.6641   1
  -7  -6  43 23.2504 34.4402   1
  -6   7  43-3.17203 29.1797   1
  -7  -6  44 24.7868 34.2753   1
  -6   7  44 14.6613 38.9592   1
  -7  -6  45 55.9280 37.5293   1
  -6   7  45-7.55331 28.4598   1
  -6   7  46 4.79225 20.9324   1
  -7   7   0 181.298 46.1223   1
  -7   7  -1 8.97525 20.8298   1
  -7   7   1 11.7010 19.1412   1
  -7   7   2 190.478 47.1645   1
  -7   7  -2 224.272 49.8187   1
  -7   7   3 35.2670 27.2391   1
  -7   7  -3 8.09212 19.0170   1
  -7   7  -4 25.0001 18.9517   1
  -7   7   4 56.6145 32.3786   1
  -7   7  -5 22.0858 22.2194   1
  -7   7   5 8.16222 10.6701   1
  -7   7   6 23.1296 22.7808   1
  -7   7  -6 20.8156 15.8557   1
  -7   7   7 48.7714 26.0560   1
  -7   7  -7 69.7923 27.8130   1
  -7   7   8 47.7623 24.0664   1
  -7   7   9 11.0875 17.8830   1
  -7   7  10 36.0218 12.2200   1
  -7  -7  10 22.2913 19.8862   1
  -7  -7  11 54.5255 28.0455   1
  -7   7  11 25.8816 22.9774   1
  -7  -7  12 76.0816 27.4683   1
  -7   7  12 69.3791 38.0447   1
  -7  -7  13-7.37126 13.7707   1
  -7   7  13 9.00617 19.6342   1
  -7  -7  14 2.10736 13.2549   1
  -7   7  14 8.77199 11.5725   1
  -7  -7  15 16.1088 13.6177   1
  -7   7  15 33.7337 26.3108   1
  -7  -7  16-34.1485 26.8930   1
  -7   7  16-41.5791 33.1435   1
  -7  -7  17 7.57080 9.92197   1
  -7   7  17 75.4125 41.6629   1
  -7   7  18 58.7981 27.1287   1
  -7  -7  18 64.4681 29.7083   1
  -7  -7  19 22.7993 20.0207   1
  -7   7  19 46.8522 27.5196   1
  -7  -7  20 33.8677 27.3848   1
  -7   7  20 44.2792 29.3759   1
  -7  -7  21 53.7815 32.9910   1
  -7   7  21 24.5347 13.6003   1
  -7  -7  22 91.7740 37.2379   1
  -7   7  22-4.70032 18.4107   1
  -7  -7  23 80.1624 29.5259   1
  -7   7  23 45.6439 33.8313   1
  -7   7  24-0.03184 23.6276   1
  -7  -7  24 6.41395 17.2175   1
  -7  -7  25 12.9678 22.7375   1
  -7   7  25 8.41547 28.2435   1
  -7   7  26 42.1735 26.8954   1
  -7  -7  26 25.8265 27.8831   1
  -7   7  27 67.6156 33.9557   1
  -7  -7  27 27.2813 27.2349   1
  -7   7  28-62.6375 37.2110   1
  -7  -7  28-3.84186 20.2529   1
  -7   7  29-9.84346 30.9978   1
  -7  -7  29 40.8587 25.6297   1
  -7   7  30-4.82038 18.2478   1
  -7  -7  30 54.3944 29.1047   1
  -7   7  31-47.3722 44.4967   1
  -7  -7  31 28.5448 25.8876   1
  -7  -7  32 33.5349 27.4882   1
  -7   7  32 44.0369 53.2064   1
  -7   7  33 55.3699 47.9835   1
  -7  -7  33 70.7230 32.8292   1
  -7  -7  34-19.2699 16.8470   1
  -7   7  34 48.0747 33.1373   1
  -7  -7  35 60.4880 38.7999   1
  -7   7  35 8.07899 18.8522   1
  -7  -7  36-34.4728 27.2768   1
  -7   7  36-19.5525 28.7267   1
  -7  -7  37 45.3850 34.6656   1
  -7   7  37-5.81755 20.5687   1
  -7  -7  38 12.1961 28.2669   1
  -7   7  38 25.1944 48.6681   1
  -7  -7  39 22.5993 33.5349   1
  -7   7  39 32.5590 35.2301   1
  -7   7  40-15.4949 19.3732   1
  -7   7  41-13.4253 22.5288   1
  -7   7  42-53.7677 46.4821   1
  -7   7  43-74.9236 46.5778   1
  -7   7  44 55.7881 47.6049   1
  -8   7   0 152.134 46.4984   1
  -8   7   1 46.8774 28.8452   1
  -8   7  -1 52.6016 35.9553   1
  -8   7   2-7.55304 15.4838   1
  -8   7  -2 2.90829 20.9334   1
  -8   7  -3 48.5039 26.3524   1
  -8   7   3 17.8765 25.2294   1
  -8   7  -4 73.5533 30.6912   1
  -8   7   4 56.4703 30.0273   1
  -8   7  -5 17.5110 17.9497   1
  -8   7   5 37.3192 29.8550   1
  -8   7  -6 28.5157 25.6431   1
  -8   7   6 54.6996 38.0426   1
  -8   7  -7 20.2646 26.8037   1
  -8   7   7 34.9770 26.9952   1
  -8   7   8 38.3134 26.4944   1
  -8   7   9 42.7749 31.4807   1
  -7  -8  10-10.4938 19.7487   1
  -8   7  10-50.0426 28.3534   1
  -7  -8  11-22.9466 24.4861   1
  -8   7  11-0.59276 15.7959   1
  -7  -8  12 29.3606 21.5627   1
  -8   7  12 32.0483 26.1192   1
  -7  -8  13 19.4935 20.8554   1
  -8   7  13 19.8539 23.1372   1
  -8   7  14 47.2999 38.3035   1
  -7  -8  14 4.79502 13.2487   1
  -7  -8  15 7.07881 15.9109   1
  -8   7  15 7.85874 13.1193   1
  -7  -8  16-1.40232 13.2255   1
  -8   7  16 38.5629 30.8963   1
  -7  -8  17 23.5085 18.4247   1
  -8   7  17-25.0676 27.8181   1
  -7  -8  18 33.9183 25.7171   1
  -8   7  18-12.9115 19.6686   1
  -7  -8  19-24.0482 20.3817   1
  -8   7  19 3.32166 25.5534   1
  -7  -8  20 3.04539 14.3901   1
  -8   7  20 84.0685 47.8277   1
  -7  -8  21 11.9622 19.8874   1
  -8   7  21-0.95522 16.8112   1
  -7  -8  22-13.5904 18.9690   1
  -8   7  22-16.6667 21.7367   1
  -7  -8  23 19.6545 15.4339   1
  -8   7  23-9.85156 13.5979   1
  -8   7  24-19.2615 29.4653   1
  -7  -8  24 40.2705 23.6019   1
  -7  -8  25 123.062 40.4894   1
  -8   7  25 47.4300 23.6908   1
  -8   7  26-41.2420 30.4301   1
  -7  -8  26-20.9012 19.0882   1
  -8   7  27-39.4090 48.0538   1
  -7  -8  27 48.9846 27.1236   1
  -8   7  28 3.27465 19.2192   1
  -7  -8  28-16.0784 18.5352   1
  -8   7  29 43.4957 37.8994   1
  -7  -8  29 12.7652 10.6137   1
  -8   7  30-41.5221 45.4781   1
  -7  -8  30 43.3897 28.5533   1
  -7  -8  31-31.5736 28.3230   1
  -8   7  31 73.6198 37.9431   1
  -8   7  32 30.6419 29.7915   1
  -7  -8  32 32.6949 36.0695   1
  -8   7  33-14.7718 26.2418   1
  -7  -8  33 84.5225 47.7706   1
  -8   7  34 29.4428 45.9672   1
  -8   7  35-39.2397 35.4833   1
  -8   7  36-23.9290 46.4617   1
  -8   7  37 53.2927 49.2332   1
  -8   7  38 28.2625 30.1217   1
  -8   7  39-16.3456 37.0585   1
  -8   7  40-57.8433 65.7889   1
  -8   7  41 31.3206 56.1868   1
  -8   7  42 21.3043 57.0011   1
  -8   7  43 40.9463 45.5056   1
  -8   6   0 38.2545 23.6928   1
  -8   6  -1 31.0233 16.8640   1
  -8   6   1 8.55571 13.3745   1
  -8   6   2 17.8117 17.6252   1
  -8   6  -2 3.73169 18.1584   1
  -8   6  -3 51.7401 29.4834   1
  -8   6   3-0.46144 14.3299   1
  -8   6  -4 5.18859 24.0948   1
  -8   6   4 55.3365 32.5036   1
  -8   6   5 1.71804 15.3412   1
  -8   6   6 12.6962 14.0674   1
  -8   6   7 16.5683 16.1151   1
  -8   6   8 22.0980 18.5087   1
  -8   6   9-7.46504 17.1262   1
  -8   6  10 63.0599 37.5355   1
  -6  -8  10 46.3151 24.0871   1
  -8   6  11 18.3520 11.9572   1
  -6  -8  11 5.73405 12.5846   1
  -6  -8  12 11.5507 13.7983   1
  -8   6  12 43.4769 30.1349   1
  -6  -8  13-8.62546 12.5204   1
  -8   6  13 4.56212 19.2813   1
  -6  -8  14 22.2953 16.0268   1
  -8   6  14 6.51690 22.2197   1
  -6  -8  15 24.7234 17.9513   1
  -8   6  15-17.8921 24.2737   1
  -6  -8  16 19.2143 14.3459   1
  -8   6  16 67.0298 36.8633   1
  -6  -8  17 16.8772 9.86761   1
  -8   6  17 38.2777 28.0145   1
  -6  -8  18-12.8730 13.2400   1
  -8   6  18-24.5261 17.9399   1
  -6  -8  19 32.2176 19.9408   1
  -8   6  19 93.9460 51.3012   1
  -6  -8  20 20.2458 14.0983   1
  -8   6  20 103.711 45.4096   1
  -6  -8  21 6.50356 13.0733   1
  -8   6  21 24.2943 24.0040   1
  -6  -8  22 49.1225 23.5170   1
  -8   6  22-3.72371 15.0098   1
  -6  -8  23 44.7418 24.6578   1
  -8   6  23 65.0105 40.2288   1
  -6  -8  24 2.11541 9.91946   1
  -8   6  24 19.6613 24.5237   1
  -6  -8  25 100.473 39.4722   1
  -8   6  25 63.4856 33.2629   1
  -8   6  26 18.3865 25.9186   1
  -6  -8  26 21.0586 20.8810   1
  -8   6  27 71.2275 46.9982   1
  -6  -8  27 44.1608 30.2563   1
  -6  -8  28 38.6751 22.6120   1
  -8   6  28-21.2510 20.7043   1
  -6  -8  29 83.1180 35.8775   1
  -8   6  29 109.667 43.1670   1
  -6  -8  30 1.94492 18.7531   1
  -8   6  30 5.20805 34.0690   1
  -8   6  31 133.742 59.0778   1
  -6  -8  31 21.8364 19.6305   1
  -8   6  32 2.84225 20.6733   1
  -6  -8  32-26.4221 23.6988   1
  -8   6  33 89.0619 54.8954   1
  -6  -8  33 43.6489 22.2187   1
  -8   6  34-82.4950 50.2867   1
  -8   6  35 58.9029 47.9476   1
  -8   6  36 27.2029 38.6449   1
  -8   6  37 75.8115 42.4904   1
  -8   6  38-61.6258 45.1751   1
  -8   6  39-23.6339 40.4986   1
  -8   6  40-141.766 62.4292   1
  -8   6  41 93.8338 65.3066   1
  -8   6  42-24.3611 35.8877   1
  -8   6  43 27.6713 26.2871   1
  -8   6  44-55.5287 42.2733   1
  -8   5   0 52.5173 32.9626   1
  -8   5   1-15.6284 10.9516   1
  -8   5  -1 22.3292 16.9373   1
  -8   5   2 31.7461 17.3470   1
  -8   5  -2-17.0687 20.3800   1
  -8   5   3 4.20748 17.7881   1
  -8   5   4 58.8728 33.6050   1
  -8   5   5 54.9277 33.0406   1
  -8   5   6 31.5769 30.4853   1
  -8   5   7 18.3790 25.3782   1
  -8   5   8 33.2271 20.7786   1
  -5  -8   9 23.3297 12.4029   1
  -8   5   9-7.75217 19.7246   1
  -8   5  10 14.4107 20.6307   1
  -5  -8  10-6.17272 10.0465   1
  -5  -8  11 11.7600 12.5842   1
  -8   5  11 11.6706 20.7706   1
  -5  -8  12 7.13436 12.1603   1
  -8   5  12 57.2882 33.3395   1
  -5  -8  13 66.9062 20.7193   1
  -8   5  13 80.6866 39.8974   1
  -5  -8  14 8.05348 16.2029   1
  -8   5  14-4.03421 19.1749   1
  -5  -8  15 26.0343 20.3699   1
  -8   5  15 17.2291 13.9523   1
  -5  -8  16 5.03354 8.44574   1
  -8   5  16 29.9995 25.2030   1
  -5  -8  17 77.4298 25.6601   1
  -8   5  17 81.9074 40.3567   1
  -8   5  18 30.4393 30.5094   1
  -5  -8  18 0.28948 10.8228   1
  -5  -8  19 28.1519 17.2041   1
  -8   5  19 32.5301 30.7836   1
  -8   5  20-9.20381 24.5404   1
  -5  -8  20-4.07579 12.3986   1
  -8   5  21 97.0591 42.3818   1
  -5  -8  21 40.2027 19.8065   1
  -8   5  22 42.8388 25.6903   1
  -5  -8  22-2.45395 10.9678   1
  -8   5  23 52.2165 22.2474   1
  -5  -8  23 67.3827 25.3046   1
  -8   5  24-12.0670 29.2227   1
  -5  -8  24 43.5383 24.7491   1
  -5  -8  25 109.341 34.1879   1
  -8   5  25 114.917 48.7318   1
  -5  -8  26 7.55484 19.9799   1
  -8   5  26 26.0749 27.5383   1
  -5  -8  27 52.4890 24.8780   1
  -8   5  27 75.0392 45.0187   1
  -5  -8  28 20.1640 12.0251   1
  -8   5  28-4.41169 20.8638   1
  -5  -8  29 37.1139 24.6966   1
  -8   5  29 54.1132 43.3801   1
  -8   5  30 48.7566 40.8638   1
  -5  -8  30 39.9524 26.8148   1
  -5  -8  31 75.3635 26.1039   1
  -8   5  31 118.816 63.6644   1
  -8   5  32 22.6130 41.2363   1
  -5  -8  32 33.0798 17.2975   1
  -8   5  33 67.9796 35.8045   1
  -5  -8  33 125.030 41.6247   1
  -8   5  34 27.5890 34.9086   1
  -5  -8  34-27.4598 23.8543   1
  -8   5  35 41.7954 35.2802   1
  -8   5  36 31.5056 43.5368   1
  -8   5  37 46.2532 18.4525   1
  -8   5  38-5.35349 34.6678   1
  -8   5  39 28.8099 18.2120   1
  -8   5  40 25.7436 25.3043   1
  -8   5  41 76.2011 34.9083   1
  -8   5  42 13.4328 20.8828   1
  -8   5  43-45.5635 45.8030   1
  -8   5  44-60.1132 61.9704   1
  -8   5  45 47.7093 54.5711   1
  -8   4   0 10.7774 17.8032   1
  -8   4   1-18.5667 17.3056   1
  -8   4   2 229.389 55.8128   1
  -4  -8  -2 195.220 39.4582   1
  -8   4   3 14.4757 22.5135   1
  -4  -8  -3 8.62840 10.8460   1
  -8   4   4 1.56656 16.9850   1
  -4  -8  -4 28.6416 17.7851   1
  -8   4   5 28.9536 30.5010   1
  -4  -8  -5-4.81865 8.75261   1
  -8   4   6 266.050 63.3393   1
  -4  -8  -6 262.700 49.8630   1
  -4  -8  -7-5.99356 8.22282   1
  -8   4   7 31.2257 26.2630   1
  -8   4   8-37.3848 26.4808   1
  -4  -8  -8-10.5299 10.9520   1
  -4  -8   9-1.96934 6.49425   1
  -8   4   9 13.8346 16.2845   1
  -4  -8  10 45.0927 16.7709   1
  -8   4  10 89.4309 43.4419   1
  -4  -8  11 9.01855 9.54197   1
  -8   4  11 21.3853 31.2478   1
  -4  -8  12 13.0325 10.8405   1
  -8   4  12 15.8815 28.9283   1
  -8   4  13 35.1007 29.9672   1
  -4  -8  13 47.7165 17.8696   1
  -8   4  14 131.833 49.1055   1
  -4  -8  14 128.646 25.4748   1
  -8   4  15 69.9951 38.7781   1
  -4  -8  15 57.9574 19.7740   1
  -8   4  16-8.01623 19.3344   1
  -4  -8  16 10.4731 13.7392   1
  -8   4  17 42.1923 34.1797   1
  -4  -8  17 41.3658 18.8033   1
  -8   4  18 57.9024 29.5074   1
  -4  -8  18 73.9679 23.2629   1
  -8   4  19 71.5447 31.6622   1
  -4  -8  19 44.6522 18.4187   1
  -8   4  20-20.4232 24.5557   1
  -4  -8  20 17.2243 12.4591   1
  -4  -8  21 54.1824 20.9395   1
  -8   4  21 19.8509 20.0584   1
  -4  -8  22 12.8679 12.7111   1
  -8   4  22 110.994 45.6426   1
  -4  -8  23 52.2547 21.7507   1
  -8   4  23 5.68694 21.1442   1
  -4  -8  24 3.95161 12.9657   1
  -8   4  24 33.9228 32.7546   1
  -4  -8  25 30.5288 18.8793   1
  -8   4  25 73.8909 47.8304   1
  -4  -8  26 43.0019 16.6870   1
  -8   4  26 17.1357 19.6054   1
  -4  -8  27 35.5371 17.0637   1
  -8   4  27 28.1013 26.6253   1
  -4  -8  28 36.4474 22.3313   1
  -8   4  28 49.4931 35.1231   1
  -4  -8  29 20.6205 19.0369   1
  -8   4  29-15.6230 14.6435   1
  -4  -8  30 22.5346 19.0327   1
  -8   4  30 86.7781 43.0990   1
  -8   4  31 49.1565 38.3224   1
  -4  -8  31 28.8849 19.2162   1
  -8   4  32 36.5051 36.7645   1
  -4  -8  32 5.76949 13.8611   1
  -8   4  33 1.06701 19.7108   1
  -4  -8  33 15.8138 17.6506   1
  -4  -8  34-29.8222 21.2574   1
  -8   4  34 38.4776 43.8974   1
  -8   4  35-33.9388 16.6797   1
  -8   4  36 34.3922 19.3120   1
  -8   4  37 53.6274 42.7720   1
  -8   4  38 1.45143 19.9682   1
  -8   4  39 3.71148 17.6296   1
  -8   4  40-7.63678 21.0913   1
  -8   4  41-65.7251 55.5289   1
  -8   4  42 33.2096 20.5677   1
  -8   4  43-19.6778 40.6489   1
  -8   4  44-52.7411 53.5802   1
  -8   4  45-65.7024 58.8047   1
  -8   4  46 33.3265 43.7072   1
  -3  -8   0 173.892 32.6671   1
  -3  -8  -1-6.43078 12.5868   1
  -3  -8   1 14.2382 10.3023   1
  -3  -8   2 21.3393 9.43185   1
  -3  -8  -2 43.6406 18.7006   1
  -8   3   2-4.10951 15.8500   1
  -3  -8   3-1.28063 6.17319   1
  -3  -8  -3 10.5895 11.8700   1
  -8   3   3-2.99282 15.1612   1
  -8   3   4 297.091 67.2819   1
  -3  -8  -4 289.651 44.6305   1
  -8   3   5 8.71439 15.7742   1
  -3  -8  -5 4.77385 10.5891   1
  -8   3   6 19.1069 19.2939   1
  -3  -8  -6 13.3965 14.5590   1
  -3  -8  -7 16.6409 22.3777   1
  -8   3   7 16.6626 20.6999   1
  -8   3   8 159.794 47.4910   1
  -3  -8  -8 213.442 45.5366   1
  -3  -8   8 207.800 28.2508   1
  -3  -8   9 6.82194 5.05481   1
  -3  -8  -9-14.7591 22.7398   1
  -8   3   9 11.7634 17.1923   1
  -3  -8 -10 33.9366 22.3689   1
  -3  -8  10 13.2410 9.82572   1
  -8   3  10-7.60031 13.5025   1
  -3  -8  11 6.20371 5.37561   1
  -8   3  11-14.9884 20.8647   1
  -8   3  12 293.051 65.2457   1
  -3  -8  12 280.150 30.0765   1
  -8   3  13-18.4662 14.0217   1
  -3  -8  13 7.26315 8.10378   1
  -8   3  14 15.2753 21.8342   1
  -3  -8  14 10.9589 6.84211   1
  -8   3  15 28.2610 27.0144   1
  -3  -8  15 19.6625 10.8164   1
  -8   3  16 126.310 51.2581   1
  -3  -8  16 136.646 23.2887   1
  -3  -8  17-13.1772 8.08707   1
  -8   3  17 20.2887 12.5585   1
  -3  -8  18 19.3824 12.8257   1
  -8   3  18 23.1537 18.5854   1
  -3  -8  19-14.4687 7.86486   1
  -8   3  19-26.7352 22.7519   1
  -3  -8  20 93.5442 21.1671   1
  -8   3  20 123.504 50.4314   1
  -3  -8  21 21.6921 10.7734   1
  -8   3  21 58.4305 39.5842   1
  -3  -8  22 10.2508 13.3532   1
  -8   3  22-11.9249 15.2176   1
  -3  -8  23 32.0463 16.3608   1
  -8   3  23 54.1111 39.5217   1
  -8   3  24 64.6964 41.4262   1
  -3  -8  24 63.1611 20.8852   1
  -8   3  25 29.9683 19.6826   1
  -3  -8  25 44.6802 22.3916   1
  -8   3  26-16.9208 17.9772   1
  -3  -8  26 34.2217 16.8654   1
  -8   3  27 53.7626 33.3417   1
  -3  -8  27 31.4403 18.4089   1
  -3  -8  28 18.8055 14.5533   1
  -8   3  28-16.2463 35.8758   1
  -8   3  29 51.4150 35.0546   1
  -3  -8  29 26.5101 21.9461   1
  -3  -8  30-20.0507 9.22031   1
  -8   3  30-6.02515 22.8055   1
  -3  -8  31-5.02259 12.2410   1
  -8   3  31 23.9128 33.0746   1
  -3  -8  32-9.08195 15.2387   1
  -8   3  32 41.1743 36.5418   1
  -8   3  33 28.5170 21.1067   1
  -3  -8  33 22.3506 21.4596   1
  -8   3  34 33.9575 29.3845   1
  -3  -8  34 20.3692 12.2627   1
  -8   3  35 16.2264 21.0775   1
  -8   3  36 23.0356 31.4203   1
  -8   3  37 38.9272 31.4917   1
  -8   3  38-26.3559 38.8998   1
  -8   3  39 14.4594 16.2114   1
  -8   3  40-14.8349 33.4424   1
  -8   3  41-29.2367 21.2656   1
  -8   3  42-33.1356 38.8864   1
  -8   3  43-39.8942 55.0988   1
  -8   3  44 48.8431 44.7703   1
  -8   3  45 22.9764 24.8976   1
  -8   3  46 153.593 78.6255   1
  -8   3  47 36.3293 54.9381   1
  -2  -8   0 13.6766 9.82286   1
  -2  -8  -1 0.53909 10.5421   1
  -2  -8   1 4.25183 5.59082   1
  -2  -8  -2 227.356 34.0490   1
  -2  -8   2 256.995 30.6624   1
  -2  -8   3 43.2812 12.0150   1
  -2  -8  -3 38.0358 17.9598   1
  -2  -8   4 20.7242 9.02371   1
  -8   2   4 11.7462 13.3135   1
  -2  -8  -4 22.4593 17.1554   1
  -8   2   5-10.2142 17.5087   1
  -2  -8   5 0.24770 6.38566   1
  -2  -8  -5 1.95998 7.97969   1
  -8   2   6 145.520 44.2968   1
  -2  -8  -6 136.741 29.6446   1
  -2  -8   6 126.493 16.8964   1
  -2  -8   7 18.0223 5.85174   1
  -2  -8   7 9.24570 4.32966   1
  -8   2   7 0.19382 14.6765   1
  -2  -8  -7-3.42609 12.2276   1
  -8   2   8-29.4906 24.4831   1
  -2  -8   8 12.3453 5.33183   1
  -2  -8   8 7.46222 3.07842   1
  -2  -8  -8 28.4907 17.3126   1
  -8   2   9 21.1427 25.0832   1
  -2  -8  -9-1.50280 15.9471   1
  -8   2  10 284.238 64.3402   1
  -2  -8 -10 311.067 52.3737   1
  -8   2  11 9.09647 23.6340   1
  -2  -8 -11 22.1061 20.6012   1
  -8   2  12-14.3924 17.8188   1
  -2  -8 -12 30.6303 18.1288   1
  -8   2  13 21.1261 26.2965   1
  -8   2  14 278.084 63.5983   1
  -8   2  15 15.3316 21.8815   1
  -2  -8  15 3.17325 1.83602   1
  -2  -8  16 3.96425 3.40247   1
  -8   2  16-10.8916 16.2192   1
  -2  -8  17 30.9624 10.6949   1
  -8   2  17 39.6503 30.8450   1
  -2  -8  18 113.623 18.9739   1
  -8   2  18 117.032 45.4411   1
  -2  -8  19 14.1504 8.02993   1
  -8   2  19 7.80833 21.7751   1
  -8   2  20-36.0539 29.0918   1
  -2  -8  20 3.23587 6.93090   1
  -8   2  21 4.30652 26.1838   1
  -2  -8  21 1.56475 5.59762   1
  -8   2  22 109.579 46.0572   1
  -2  -8  22 67.9558 16.9443   1
  -8   2  23-27.0386 28.1620   1
  -2  -8  23-11.8810 10.6847   1
  -8   2  24-32.8255 31.6298   1
  -2  -8  24 1.91490 8.64224   1
  -8   2  25 26.0599 21.6053   1
  -2  -8  25 42.0436 18.1759   1
  -8   2  26-21.4423 15.5265   1
  -2  -8  26-8.45443 11.6759   1
  -2  -8  27-12.9873 15.6288   1
  -8   2  27 35.3842 31.8761   1
  -2  -8  28 15.3639 12.1849   1
  -8   2  28 6.92928 15.0998   1
  -2  -8  29 10.5449 12.6421   1
  -8   2  29 9.56121 30.1471   1
  -2  -8  30 21.5337 14.8852   1
  -8   2  30 50.4937 34.2101   1
  -2  -8  31 46.0116 16.8386   1
  -8   2  31-10.1459 34.2303   1
  -2  -8  32-24.5469 20.6636   1
  -8   2  32 5.11991 21.6710   1
  -2  -8  33 66.7245 28.8918   1
  -8   2  33 20.1963 26.9441   1
  -8   2  34-4.39927 29.2916   1
  -2  -8  34-5.37018 12.8075   1
  -8   2  35 26.5172 27.3927   1
  -8   2  36-27.9848 27.0425   1
  -8   2  37 6.05960 19.2387   1
  -8   2  38 17.7899 33.3190   1
  -8   2  39 20.8553 26.0428   1
  -8   2  40 27.9121 39.7073   1
  -8   2  41-33.0252 37.3734   1
  -8   2  42 29.0337 27.7229   1
  -8   2  43-0.63575 31.3622   1
  -8   2  44-25.9170 33.5043   1
  -8   2  45 10.5452 44.5898   1
  -8   2  46 12.9207 31.7815   1
  -8   2  47-2.88063 24.2325   1
  -8   2  48-16.5021 44.8967   1
  -1  -8   0 167.528 24.7315   1
  -1  -8  -1 2.99538 5.06853   1
  -1  -8   1 11.8097 5.87833   1
  -1  -8  -2 17.8898 7.43195   1
  -1  -8   2 5.89648 4.45222   1
  -1  -8  -3 9.22079 12.7971   1
  -1  -8   3 10.2670 4.90864   1
  -1  -8   4 93.0945 12.7345   1
  -1  -8  -4 161.719 30.1554   1
  -1  -8  -5 31.0127 13.4450   1
  -8   1   5 23.0787 12.7403   1
  -1  -8  -6 23.4182 8.55255   1
  -8   1   6 37.3980 16.4120   1
  -8   1   7 13.0427 13.2984   1
  -1  -8  -7 53.6934 20.0783   1
  -8   1   8 107.599 39.4079   1
  -1  -8  -8 134.871 31.0200   1
  -8   1   9 45.4859 24.5912   1
  -1  -8  -9 116.482 32.5860   1
  -1  -8 -10-5.09709 10.0346   1
  -8   1  10 21.9534 24.8235   1
  -1  -8 -11 44.1436 20.6862   1
  -8   1  11 45.3385 30.2424   1
  -8   1  12 97.8740 41.5117   1
  -1  -8 -12 133.676 36.9079   1
  -8   1  13 47.5029 28.7929   1
  -1  -8 -13 17.2552 9.80848   1
  -8   1  14 17.8482 15.5583   1
   1   8  14 10.1941 13.1167   1
  -8   1  15 121.753 45.0087   1
   1   8  15 103.297 31.8182   1
  -8   1  16 104.711 47.1565   1
   1   8  16 58.7162 28.1691   1
  -8   1  17 78.1939 33.6494   1
   1   8  17 57.1292 23.0580   1
  -8   1  18 54.5468 33.6718   1
   1   8  18 25.8496 22.5854   1
   1   8  19 24.8358 11.0591   1
  -8   1  19 46.3172 30.3149   1
   1   8  20 56.8119 29.3838   1
  -8   1  20 55.2223 32.9095   1
   1   8  21 28.2703 20.9979   1
  -8   1  21 9.46090 15.5877   1
   1   8  22 41.5723 27.8822   1
  -8   1  22-27.1196 30.1398   1
   1   8  23 73.5662 31.3705   1
  -8   1  23 64.7315 40.4667   1
   1   8  24 41.9432 25.9414   1
  -8   1  24 55.7788 31.0483   1
   1   8  25 48.9956 33.6483   1
  -8   1  25 50.7315 35.1478   1
   1   8 -25 55.0459 15.8777   1
   1   8  26 0.08252 16.3657   1
   1   8 -26 9.61196 6.25972   1
  -8   1  26 33.6899 35.1076   1
   1   8 -27 82.8670 21.8572   1
  -8   1  27 92.1730 45.4914   1
   1   8  27 59.4388 31.1048   1
   1   8  28-28.0108 30.3131   1
  -8   1  28 44.3559 39.2038   1
   1   8  29 89.2429 31.0743   1
  -8   1  29 121.490 49.0926   1
   1   8  30-0.40569 13.1556   1
  -8   1  30 7.46792 24.7764   1
   1   8  31 60.3759 39.2861   1
  -8   1  31 18.0751 17.2556   1
   1   8  32-46.3956 31.3367   1
  -8   1  32-28.7233 35.2864   1
   1   8  33 6.58672 29.1899   1
  -8   1  33 50.9589 35.5953   1
   1   8  34-10.4341 18.5301   1
  -8   1  34 16.1918 15.4168   1
  -8   1  35 104.581 46.3474   1
   1   8  35 43.7426 32.4729   1
   1   8  36-18.4071 16.1615   1
  -8   1  36 31.9471 40.0299   1
  -8   1  37 20.0555 16.4076   1
   1   8  37 74.8311 39.6841   1
   1   8  38-50.3900 42.8012   1
  -8   1  38 27.4423 16.1573   1
   1   8  39-15.6312 27.8843   1
  -8   1  39-11.9766 37.0205   1
  -8   1  40-44.0916 45.4312   1
   1   8  40 26.2650 42.5420   1
  -8   1  41-18.7651 42.5436   1
   1   8  41 103.889 62.2155   1
  -8   1  42 29.1225 27.4020   1
   1   8  42-14.4373 37.5825   1
  -8   1  43 59.4081 43.6602   1
  -8   1  44 54.2396 42.9104   1
  -8   1  45 62.6212 36.3834   1
  -8   1  46-45.2577 48.1628   1
  -8   1  47 8.24706 17.8315   1
  -8   1  48 3.07533 20.3507   1
  -8   1  49 86.5611 53.5893   1
   0  -8   0 60.0416 15.6197   1
   0  -8   1 108.409 17.5623   1
   0  -8  -1 125.824 21.2358   1
   0  -8   2-4.32107 5.30144   1
   0  -8  -2-8.12836 9.99572   1
   0  -8   3 9.59473 4.75269   1
   0  -8  -3 13.0527 10.5448   1
   0  -8  -4 4.67206 12.6644   1
   0  -8  -5-9.94782 12.4584   1
   0   8   5-12.9231 11.4650   1
   0   8   6 14.4499 15.9434   1
   0  -8  -6-8.60243 6.24881   1
   0   8   7 26.1542 18.0177   1
   0  -8  -7 14.8282 13.9997   1
  -8   0   7 7.27234 22.2751   1
  -8   0   8-1.63512 11.2847   1
   0   8   8 3.74611 12.4882   1
   0  -8  -8 27.2715 18.8152   1
  -8   0   9 80.9564 34.4973   1
   0   8   9 76.3187 18.7571   1
   0  -8  -9 95.6697 29.0900   1
   0  -8 -10-16.5101 9.41150   1
  -8   0  10-16.7262 26.1998   1
   0   8  10-3.89295 11.6540   1
  -8   0  11 89.3158 38.1695   1
   0   8  11 119.733 33.0017   1
   0  -8 -11 112.369 29.3074   1
  -8   0  12 27.0018 14.9907   1
   0   8  12 9.09422 12.1231   1
   0  -8 -12 7.61867 9.28188   1
   0   8  13 32.8326 22.7666   1
  -8   0  13-9.51945 23.6899   1
   0  -8 -13 36.2967 24.6009   1
  -8   0  14-10.8305 17.9579   1
   0   8  14 7.55562 11.7370   1
  -8   0  15 83.3208 41.8700   1
   0   8  15 137.368 39.3609   1
  -8   0  16 26.7099 26.8262   1
   0   8  16 13.4536 19.6028   1
   0   8  17 96.8058 32.0416   1
  -8   0  17 118.084 50.8279   1
   0   8  18 21.4899 22.1855   1
  -8   0  18 16.0621 28.7808   1
   0   8  19 107.752 37.3457   1
  -8   0  19 110.202 46.1928   1
   0   8  20 118.504 44.8622   1
  -8   0  20 93.1417 46.9844   1
  -8   0  21 168.787 57.3424   1
   0   8  21 224.686 53.6859   1
   0   8 -22 31.3666 10.7402   1
   0   8  22 12.8554 12.5800   1
  -8   0  22 28.0523 32.0275   1
   0   8  23 164.842 52.6127   1
  -8   0  23 116.736 47.6648   1
   0   8 -23 134.103 22.0874   1
   0   8 -24 6.93770 8.08471   1
   0   8  24-1.81359 11.9147   1
  -8   0  24 36.7535 32.5455   1
   0   8 -25 78.3099 19.0565   1
   0   8  25 30.5776 20.5760   1
  -8   0  25 32.2803 29.6127   1
   0   8 -26 8.81044 5.94298   1
   0   8  26-17.5698 28.3944   1
  -8   0  26-2.73047 28.1767   1
   0   8  27 174.848 56.6702   1
   0   8 -27 226.880 35.5771   1
  -8   0  27 126.359 49.7432   1
   0   8  28 5.04365 19.8581   1
  -8   0  28-3.22381 13.6536   1
   0   8  29 125.737 48.7322   1
  -8   0  29 106.242 54.0254   1
   0   8  30-30.9110 23.0924   1
  -8   0  30 29.1711 13.8591   1
   0   8  31 84.2142 51.1215   1
  -8   0  31 14.5609 21.4616   1
   0   8  32 26.1466 14.1098   1
  -8   0  32 31.0749 31.5722   1
   0   8  33 88.7762 48.5651   1
  -8   0  33 52.0321 40.9077   1
   0   8  34-29.4073 27.1931   1
  -8   0  34 54.6530 42.2612   1
  -8   0  35 75.9281 48.4115   1
   0   8  35 160.146 60.0967   1
  -8   0  36 31.8621 37.0264   1
   0   8  36-25.2877 32.3126   1
  -8   0  37 39.2480 19.0426   1
   0   8  37 52.4705 41.8046   1
  -8   0  38 24.9093 16.6370   1
   0   8  38-8.14250 16.8383   1
  -8   0  39 178.588 56.1162   1
   0   8  39 72.3385 49.3397   1
  -8   0  40 1.90063 18.0558   1
   0   8  40-11.2021 27.3522   1
  -8   0  41 74.9359 45.2564   1
   0   8  41 75.4876 35.4626   1
   0   8  42 26.7234 40.7946   1
  -8   0  42-37.9759 38.0357   1
  -8   0  43-18.1053 32.9706   1
   0   8  43 2.10325 27.1282   1
   0   8  44-16.6701 21.6277   1
  -8   0  44-32.9226 36.6272   1
   0   8  45 3.34508 17.4702   1
  -8   0  45-5.98296 33.3434   1
  -8   0  46-15.8084 32.7979   1
   0   8  46-35.2269 41.1775   1
  -8   0  47 53.8106 46.0229   1
   0   8  47 98.2045 56.6058   1
   0   8  48 7.77108 36.7806   1
  -8   0  48-0.43631 20.3300   1
  -8   0  49-20.6687 38.0818   1
  -8   0  50-35.1634 30.5131   1
   1  -8   0 153.686 21.7150   1
  -1   8   0 148.692 22.1571   1
   1  -8   1 1.65428 7.75925   1
   1  -8  -1 10.0112 10.7702   1
  -1   8  -1 8.45759 4.93552   1
  -1   8   1 5.67736 7.58667   1
   1  -8  -2 18.5678 10.7510   1
  -1   8   2 37.8511 14.2394   1
  -1   8  -2 14.7094 6.01396   1
   1  -8  -3 15.6939 8.60803   1
  -1   8   3 13.1759 7.64169   1
   1  -8  -4 166.910 29.4356   1
  -1   8   4 145.175 28.5692   1
  -1   8   5 46.0019 15.3949   1
   1  -8  -5 8.66050 9.99922   1
  -1   8   6 37.6428 16.2354   1
   1  -8  -6 36.8626 14.6839   1
  -1   8   7 35.1593 17.3586   1
   1  -8  -7 50.0034 19.4944   1
  -1   8   8 135.878 32.3269   1
   1  -8  -8 127.290 29.4189   1
  -8  -1   8 85.8378 38.2145   1
  -1   8   9 60.6713 15.6601   1
  -8  -1   9 27.3652 19.2896   1
   1  -8  -9 97.3109 28.7120   1
  -1   8  10 30.0015 14.5343   1
   1  -8 -10 47.0412 21.2335   1
  -8  -1  10 0.94617 20.3099   1
  -8  -1  11 19.0722 19.1548   1
  -1   8  11 23.2859 14.8400   1
   1  -8 -11 93.3663 25.6051   1
  -1   8  12 149.631 38.2847   1
  -8  -1  12 148.508 52.0157   1
   1  -8 -12 179.662 39.9345   1
  -8  -1  13-8.77574 20.8835   1
  -1   8  13 6.07140 10.3837   1
   1  -8 -13 22.1189 10.1208   1
  -8  -1  14 2.63705 19.5532   1
  -1   8  14 21.3055 20.5540   1
  -8  -1  15 107.181 47.6424   1
  -1   8  15 102.024 33.8833   1
  -8  -1  16 55.9070 33.4786   1
  -1   8  16 124.909 41.8197   1
  -8  -1  17 28.3215 20.7712   1
  -1   8  17 95.9065 37.9536   1
  -8  -1  18 58.0590 34.4652   1
  -1   8  18 42.9476 23.9023   1
  -8  -1  19 69.2531 32.5927   1
  -1   8  19 19.0014 24.0605   1
  -1   8 -20 51.0232 10.6871   1
  -8  -1  20 44.7162 31.5592   1
  -1   8  20 47.2682 20.3608   1
  -1   8 -21 23.0784 7.56277   1
  -8  -1  21 59.5191 36.1630   1
  -1   8  21 39.7247 18.8852   1
  -1   8 -22 13.0205 8.89524   1
  -8  -1  22 55.3188 33.4614   1
  -1   8  22 36.7345 26.0481   1
  -1   8 -23 60.3959 16.3932   1
  -8  -1  23 85.6712 38.2630   1
  -1   8  23 84.6703 37.1982   1
  -1   8 -24 49.5759 16.7751   1
  -8  -1  24 29.3442 33.0508   1
  -1   8  24 14.6120 16.6824   1
  -1   8 -25 41.7368 15.9666   1
  -8  -1  25 22.1433 23.4768   1
  -1   8  25 65.5849 31.1623   1
  -1   8 -26 10.6908 9.35753   1
  -8  -1  26-1.32116 23.1208   1
  -1   8  26-11.5050 12.1842   1
  -1   8 -27 99.6138 21.6830   1
  -8  -1  27 44.7766 30.9235   1
  -1   8  27 94.5695 33.5849   1
  -8  -1  28-0.36028 23.2655   1
  -1   8  28 14.7303 16.3396   1
  -8  -1  29 90.8876 40.8533   1
  -1   8  29 100.141 37.9541   1
  -8  -1  30-35.4592 37.7405   1
  -1   8  30-31.5377 28.5449   1
  -1   8  31 58.1123 43.9424   1
  -8  -1  31-28.2423 32.1636   1
  -8  -1  32 61.9648 38.9743   1
  -1   8  32-16.8472 22.7135   1
  -1   8  33 16.0554 27.8168   1
  -8  -1  33 78.4034 54.4419   1
  -1   8  34-4.31638 16.8057   1
  -8  -1  34 15.6255 27.9750   1
  -1   8  35 56.4441 19.4987   1
  -8  -1  35 71.1788 43.1251   1
  -1   8  36-37.1488 35.0499   1
  -8  -1  36 12.2541 14.4525   1
  -8  -1  37 0.55324 23.3501   1
  -1   8  37 98.0623 50.8617   1
  -1   8  38-12.9591 31.6684   1
  -8  -1  38-29.7045 36.8119   1
  -8  -1  39 28.2344 26.9586   1
  -1   8  39-9.40290 35.5880   1
  -8  -1  40-27.2716 40.2763   1
  -1   8  40 45.1899 35.7478   1
  -8  -1  41 64.5471 44.1911   1
  -1   8  41 23.5887 15.9372   1
  -8  -1  42-10.6349 22.7708   1
  -1   8  42-33.0934 28.3299   1
  -8  -1  43 41.9990 25.8363   1
  -1   8  43 34.3268 25.0425   1
  -8  -1  44 29.1063 40.6670   1
  -1   8  44 59.5356 54.0675   1
  -8  -1  45-32.9198 34.8020   1
  -1   8  45 35.3318 48.3564   1
  -1   8  46 15.9863 18.9677   1
  -8  -1  46 16.6318 36.5499   1
  -1   8  47 130.927 67.6741   1
  -8  -1  47-52.1409 47.3905   1
  -1   8  48-10.9460 20.1805   1
  -8  -1  48 157.869 66.6789   1
  -8  -1  49 101.663 75.6946   1
  -8  -1  50-18.2788 45.1027   1
  -8  -1  51-61.4145 35.3564   1
  -2   8   0 5.16550 9.26826   1
   2  -8  -1 19.6294 9.33595   1
  -2   8  -1 22.6935 10.3430   1
  -2   8   1 18.8307 12.8787   1
  -2   8   2 234.527 34.0590   1
   2  -8  -2 268.241 36.7453   1
  -2   8  -2 228.345 27.9042   1
   2  -8  -3 6.05984 7.21338   1
  -2   8  -3 27.0971 10.7997   1
  -2   8   3 26.4682 12.5298   1
   2  -8  -4 45.5162 13.0795   1
  -2   8  -4 21.5143 6.75629   1
  -2   8   4 12.5378 11.7615   1
   2  -8  -5 12.3223 13.9312   1
  -2   8  -5-5.33531 5.94372   1
  -2   8   5-7.14185 14.6755   1
   2  -8  -6 161.935 33.1619   1
  -2   8   6 175.605 33.8103   1
  -2   8  -6 107.194 14.7464   1
   2  -8  -7 21.8350 19.5978   1
  -2   8   7 9.12720 8.82214   1
   2  -8  -8 26.9738 23.2399   1
  -2   8   8 17.6265 15.6366   1
   2  -8  -9-1.86698 10.9713   1
  -2   8   9 11.0420 8.12117   1
  -8  -2   9 33.2696 34.2628   1
  -8  -2  10 313.345 70.0086   1
   2  -8 -10 300.218 50.5024   1
  -2   8  10 269.108 50.9095   1
  -8  -2  11 31.0867 21.0746   1
   2  -8 -11 4.24259 8.89756   1
  -2   8  11 23.4519 21.1270   1
  -8  -2  12 6.78692 15.6566   1
   2  -8 -12 21.8347 18.2459   1
  -2   8  12 14.7066 11.1776   1
  -8  -2  13 32.6408 25.6745   1
  -2   8  13 12.8492 9.23547   1
  -8  -2  14 138.294 41.6683   1
  -2   8  14 235.586 52.2056   1
  -8  -2  15 32.6602 27.0181   1
  -2   8  15-4.62582 10.6599   1
  -8  -2  16-4.81402 18.4199   1
  -2   8  16 14.9090 9.46128   1
  -8  -2  17 47.3347 29.1208   1
  -2   8 -17 35.6693 8.39991   1
  -2   8  17 31.1947 13.7842   1
  -8  -2  18 191.359 52.7645   1
  -2   8 -18 107.516 16.1889   1
  -2   8  18 191.700 51.7124   1
  -8  -2  19 60.0671 37.7981   1
  -2   8 -19 25.9648 8.94260   1
  -2   8  19 19.7323 11.7768   1
  -2   8  20 23.2246 19.6925   1
  -8  -2  20 27.1753 24.8028   1
  -2   8 -20 0.13881 4.08272   1
  -2   8  21 11.0114 18.6763   1
  -8  -2  21-22.8163 14.1935   1
  -2   8 -21 13.5736 8.28935   1
  -2   8  22 116.808 45.8767   1
  -8  -2  22 106.450 49.2316   1
  -2   8 -22 96.8145 19.6883   1
  -2   8  23 10.0847 14.4512   1
  -8  -2  23 13.9107 26.8195   1
  -2   8 -23 0.88971 5.46175   1
  -2   8  24 17.8535 22.9949   1
  -8  -2  24-24.0676 27.1348   1
  -2   8 -24-12.6454 8.90988   1
  -2   8  25 16.5071 19.1410   1
  -8  -2  25 29.2903 31.2698   1
  -2   8 -25 10.7895 6.02775   1
  -2   8  26 7.98095 24.0759   1
  -8  -2  26-40.9529 35.7032   1
  -2   8 -26-25.5753 11.3998   1
  -2   8  27-21.5764 25.4710   1
  -8  -2  27 4.11076 12.5171   1
  -2   8  28 26.3334 29.4221   1
  -8  -2  28 12.2838 20.7932   1
  -2   8  29 20.3208 28.2591   1
  -8  -2  29 25.0603 14.7911   1
  -2   8  30-3.28555 23.3757   1
  -8  -2  30-3.34958 14.8223   1
  -2   8  31 12.3032 21.1742   1
  -8  -2  31 23.2598 35.4200   1
  -2   8  32 20.8491 27.2402   1
  -8  -2  32 5.11254 21.0437   1
  -2   8  33-7.31519 23.6930   1
  -8  -2  33 36.3836 28.5439   1
  -8  -2  34 41.0300 41.2777   1
  -2   8  34-34.0515 35.6798   1
  -2   8  35-35.6117 40.4578   1
  -8  -2  35-4.68392 24.0281   1
  -2   8  36-5.55866 37.2920   1
  -8  -2  36-2.22025 16.1060   1
  -8  -2  37 8.54694 19.9457   1
  -2   8  37 49.9595 44.9053   1
  -8  -2  38 72.2199 46.4856   1
  -2   8  38 14.6403 19.1344   1
  -8  -2  39-17.5975 28.8546   1
  -2   8  39-3.58683 27.8702   1
  -8  -2  40-40.0327 33.4509   1
  -2   8  40-6.06978 32.9587   1
  -8  -2  41-9.41031 28.4033   1
  -2   8  41-20.6300 21.5476   1
  -2   8  42 0.92642 22.1214   1
  -8  -2  42 61.6135 57.1911   1
  -2   8  43-32.8200 37.9129   1
  -8  -2  43 1.44865 17.6663   1
  -2   8  44-68.6389 40.3171   1
  -8  -2  44-59.2799 43.0947   1
  -2   8  45 17.8611 32.0210   1
  -8  -2  45 35.4738 35.8053   1
  -2   8  46 2.97902 32.8190   1
  -8  -2  46 47.8458 37.5179   1
  -2   8  47 14.7178 20.8682   1
  -8  -2  47-9.69568 26.1439   1
  -2   8  48-13.2872 33.1552   1
  -8  -2  48-59.1618 50.1341   1
  -8  -2  49 1.56310 19.5288   1
  -8  -2  50-15.0585 24.2337   1
  -8  -2  51-6.13645 37.3053   1
  -3   8   0 204.391 34.6240   1
  -3   8   1-13.3598 13.8835   1
  -3   8  -1-12.2123 9.77871   1
  -3   8   2 24.2819 13.5595   1
  -3   8  -2 25.8825 11.7950   1
   3  -8  -3-6.33349 8.96339   1
  -3   8   3 11.7975 7.72117   1
  -3   8  -3-0.13832 7.64547   1
   3  -8  -4 326.608 46.7025   1
  -3   8  -4 314.304 35.8655   1
  -3   8   4 325.416 48.4099   1
   3  -8  -5 7.27245 8.26711   1
  -3   8   5 20.5302 21.0751   1
  -3   8  -5 11.7216 11.7423   1
   3  -8  -6 2.77987 9.61320   1
  -3   8   6 3.97814 10.3645   1
  -3   8  -6 9.17875 5.67534   1
   3  -8  -7 28.1968 18.7059   1
  -3   8  -7 13.2369 6.32054   1
  -3   8   7 11.5179 7.89178   1
   3  -8  -8 183.825 36.3259   1
  -3   8   8 223.903 43.3793   1
  -3   8  -8 179.937 23.5705   1
   3  -8  -9-5.09367 14.7883   1
  -3   8   9-4.81237 16.7417   1
  -3   8  -9-1.98548 4.76627   1
  -8  -3   9 5.12801 21.1022   1
   3  -8 -10-13.6410 18.0826   1
  -3   8 -10 15.2885 8.79431   1
  -3   8  10 8.07153 9.79125   1
  -8  -3  10 8.35055 24.4262   1
  -8  -3  11 6.12046 25.1371   1
  -3   8 -11 12.6141 5.11762   1
   3  -8 -11 27.4521 15.4294   1
  -3   8  11 3.87403 14.8720   1
  -8  -3  12 278.903 65.1183   1
  -3   8  12 303.717 56.9338   1
  -3   8 -12 288.074 27.4258   1
  -3   8 -13 6.33735 5.62688   1
  -8  -3  13 24.5220 27.8869   1
  -3   8  13-5.73758 10.7523   1
  -3   8 -13 13.8616 6.36142   1
  -8  -3  14 14.3964 24.6044   1
  -3   8  14 6.12375 14.7745   1
  -3   8 -14 1.46298 4.67098   1
  -3   8 -14-4.01722 6.52957   1
  -8  -3  15 17.9748 11.7356   1
  -3   8 -15-4.88722 8.34850   1
  -3   8  15-5.14930 22.3144   1
  -3   8 -16 122.000 20.7807   1
  -3   8  16 146.513 41.7443   1
  -8  -3  16 89.4741 35.4755   1
  -3   8 -17 9.01644 9.09972   1
  -8  -3  17 5.82377 16.1734   1
  -3   8  17-27.2088 25.1974   1
  -8  -3  18-25.9758 23.5045   1
  -3   8  18 30.8743 24.7050   1
  -3   8 -18-0.39740 5.59260   1
  -8  -3  19-5.76193 21.1532   1
  -3   8 -19-7.46130 6.79768   1
  -3   8  19 1.84432 20.3021   1
  -8  -3  20 100.332 40.7898   1
  -3   8 -20 112.731 22.5099   1
  -3   8  20 113.632 44.8984   1
  -8  -3  21 11.0851 16.5036   1
  -3   8 -21 64.9836 19.3918   1
  -3   8  21 70.9087 38.4688   1
  -3   8 -22 0.06371 6.46394   1
  -8  -3  22-51.4026 33.1220   1
  -3   8  22 61.0860 36.0560   1
  -3   8 -23 31.1200 12.8367   1
  -8  -3  23 16.4760 15.8863   1
  -3   8  23-6.64587 15.3876   1
  -3   8 -24 47.3851 18.3731   1
  -8  -3  24 38.9685 22.1759   1
  -3   8  24 62.2288 30.1141   1
  -3   8 -25 16.0513 11.0536   1
  -8  -3  25-31.2285 23.7892   1
  -3   8  25 51.9239 29.8592   1
  -8  -3  26 53.3411 29.6837   1
  -3   8  26 0.77384 24.1757   1
  -8  -3  27 74.4360 41.5391   1
  -3   8  27 26.0662 22.6966   1
  -8  -3  28 1.58299 14.4097   1
  -3   8  28 3.35059 20.3796   1
  -3   8  29 5.74265 14.1898   1
  -8  -3  29 17.0346 31.2129   1
  -3   8  30-3.71632 23.3562   1
  -8  -3  30 2.07556 22.5840   1
  -3   8  31 51.4956 27.8849   1
  -8  -3  31 6.39828 14.3044   1
  -3   8  32 66.8194 36.5561   1
  -8  -3  32 17.8387 24.5260   1
  -3   8  33 41.3039 33.3226   1
  -8  -3  33 28.4491 30.1173   1
  -8  -3  34 6.51870 33.6066   1
  -3   8  34-31.2122 23.7788   1
  -3   8  35 68.7864 41.2161   1
  -8  -3  35 32.3356 31.3886   1
  -8  -3  36 14.3710 15.4859   1
  -3   8  36-24.6723 17.3382   1
  -3   8  37 1.88631 22.0886   1
  -8  -3  37-15.4799 20.6740   1
  -8  -3  38 25.6168 27.8798   1
  -3   8  38 19.6157 23.2828   1
  -8  -3  39 2.14120 14.6580   1
  -3   8  39-3.48114 29.1440   1
  -8  -3  40 38.0754 35.8580   1
  -3   8  40 4.72197 27.0480   1
  -8  -3  41 63.0344 40.8307   1
  -3   8  41 4.71485 19.4013   1
  -8  -3  42 0.03954 14.7481   1
  -3   8  42-41.2062 40.0091   1
  -8  -3  43-40.8961 32.5771   1
  -3   8  43 13.3687 36.2321   1
  -8  -3  44 13.2414 18.2128   1
  -3   8  44 10.4583 23.6942   1
  -8  -3  45-95.5279 58.9548   1
  -3   8  45-14.6821 48.5078   1
  -8  -3  46-6.75287 24.1967   1
  -3   8  46 74.6964 52.3839   1
  -8  -3  47-35.1919 46.0372   1
  -3   8  47-11.3111 23.7501   1
  -8  -3  48 11.7679 27.5850   1
  -8  -3  49 105.822 60.4326   1
  -8  -3  50 37.7891 34.0628   1
  -8  -3  51 104.642 42.8758   1
  -8  -3  52-26.2725 45.6307   1
  -4   8   0 20.1523 12.3732   1
  -4   8  -1-7.14226 12.2114   1
  -4   8   1 29.3534 21.8174   1
  -4   8  -2 238.653 39.6692   1
  -4   8   2 218.614 41.9896   1
  -4   8  -3-12.4943 10.1618   1
  -4   8   3-18.0148 16.4798   1
  -4   8  -4 0.19533 9.18646   1
  -4   8   4 2.96873 8.64330   1
  -4   8  -5 12.9800 6.99906   1
  -4   8   5 49.3664 21.1639   1
   4  -8  -6 290.748 52.0042   1
  -4   8  -6 277.778 37.3188   1
  -4   8   6 297.523 53.3412   1
   4  -8  -7 9.48782 11.6551   1
  -4   8  -7 16.6074 14.9963   1
  -4   8   7 5.29738 11.6137   1
  -4   8   8-0.80612 15.4752   1
   4  -8  -8-12.2343 11.2324   1
  -4   8  -8 16.8719 13.9555   1
  -4   8   9 5.61768 17.9864   1
  -4   8  -9 16.6282 13.9954   1
   4  -8  -9 27.5373 18.4855   1
  -4   8  10 75.5390 26.9052   1
  -4   8 -10 98.2604 22.9818   1
  -8  -4  10 25.4253 24.2291   1
  -8  -4  11-13.3486 19.7296   1
  -4   8 -11 12.6898 6.80147   1
  -4   8  11 30.5209 18.5253   1
  -8  -4  12 2.08453 15.9700   1
  -4   8  12 12.7198 15.0037   1
  -4   8 -12-1.67906 12.4179   1
  -8  -4  13 79.4456 37.5380   1
  -4   8 -13 48.3587 14.6258   1
  -4   8  13 76.0959 32.0510   1
  -8  -4  14 140.656 47.9427   1
  -4   8  14 98.0187 37.2626   1
  -8  -4  15 70.7768 41.8511   1
  -4   8  15 56.0255 33.2546   1
  -8  -4  16 35.0454 28.0103   1
  -4   8  16 30.2318 21.2714   1
  -4   8 -16 4.81879 10.4915   1
  -8  -4  17 23.7721 27.7150   1
  -4   8  17-8.35663 19.1968   1
  -4   8 -17 30.7892 10.3090   1
  -4   8 -18 61.6211 15.8706   1
  -8  -4  18 68.1375 32.1632   1
  -4   8  18 79.9624 34.4332   1
  -8  -4  19-6.76376 14.2086   1
  -4   8  19 29.4424 16.7135   1
  -4   8 -19 54.3453 17.8826   1
  -8  -4  20-7.33853 22.2335   1
  -4   8  20-39.7044 29.9128   1
  -4   8 -20 21.8288 16.6451   1
  -4   8 -21 57.1112 20.7067   1
  -8  -4  21 68.0262 39.0583   1
  -4   8  21 44.2280 22.0290   1
  -4   8 -22 46.0425 16.3245   1
  -8  -4  22 28.5742 28.7223   1
  -4   8  22 91.9538 42.0127   1
  -4   8 -23 72.0328 24.1831   1
  -8  -4  23 66.2926 31.3170   1
  -4   8  23 19.9881 22.0538   1
  -8  -4  24-7.75733 27.3903   1
  -4   8  24 27.9964 21.9431   1
  -4   8 -24 6.27112 13.5095   1
  -8  -4  25 31.1848 23.0780   1
  -4   8  25 22.7330 17.3775   1
  -8  -4  26 11.9713 12.6774   1
  -4   8  26 82.1639 40.5874   1
  -8  -4  27 95.9505 39.2231   1
  -4   8  27 93.5040 44.4763   1
  -8  -4  28 23.1156 24.1236   1
  -4   8  28 27.9341 20.1621   1
  -8  -4  29 10.3122 22.2492   1
  -4   8  29 24.7888 35.9981   1
  -8  -4  30 2.41418 16.1325   1
  -4   8  30-2.79972 22.7861   1
  -8  -4  31 99.2931 56.9837   1
  -4   8  31 31.2559 37.3130   1
  -8  -4  32 18.2496 27.1632   1
  -4   8  32 16.4875 15.0525   1
  -4   8  33 5.21332 33.0933   1
  -8  -4  33 29.2378 20.9889   1
  -8  -4  34-21.7278 32.1799   1
  -4   8  34 53.0015 42.1262   1
  -4   8  35 49.9289 43.7431   1
  -8  -4  35-1.38290 17.4716   1
  -8  -4  36-6.60170 27.2501   1
  -4   8  36-17.8867 37.7234   1
  -8  -4  37-14.4721 27.8336   1
  -4   8  37 29.9584 25.8272   1
  -8  -4  38-29.9637 32.1187   1
  -4   8  38 19.7122 37.3403   1
  -4   8  39-3.13772 17.3837   1
  -8  -4  39 55.6470 43.9727   1
  -8  -4  40 4.20606 17.6924   1
  -4   8  40-43.8436 31.5309   1
  -8  -4  41 51.2569 36.9928   1
  -4   8  41 5.04064 31.8780   1
  -8  -4  42 51.1985 36.4084   1
  -4   8  42-35.4006 48.4749   1
  -8  -4  43-3.43611 27.1952   1
  -4   8  43 14.9093 28.2752   1
  -8  -4  44 4.68603 28.0630   1
  -4   8  44 5.42967 36.4651   1
  -8  -4  45 17.6826 26.7576   1
  -4   8  45 37.6142 28.0007   1
  -8  -4  46 111.916 57.4436   1
  -4   8  46 25.4187 25.6979   1
  -8  -4  47-1.38233 26.1488   1
  -4   8  47-19.2662 23.6442   1
  -8  -4  48-20.3587 19.3367   1
  -8  -4  49-47.8941 49.1138   1
  -8  -4  50 79.5783 52.8782   1
  -8  -4  51 75.0417 36.2299   1
  -5   8   0 38.7242 18.7914   1
  -5   8  -1 19.9632 17.0963   1
  -5   8   1 3.41886 15.1506   1
  -5   8  -2 19.9366 17.1586   1
  -5   8   2-4.76911 11.9383   1
  -5   8  -3 1.27329 8.54729   1
  -5   8   3 15.5537 14.6905   1
  -5   8  -4 45.2598 19.8064   1
  -5   8   4 22.5129 10.6532   1
  -5   8  -5 34.8183 18.1192   1
  -5   8   5 35.8175 22.1924   1
  -5   8   6-0.26923 9.27886   1
  -5   8  -6 4.29315 7.61038   1
  -5   8  -7 28.9630 10.7284   1
  -5   8   7 35.5996 22.9232   1
  -5   8  -8 1.10640 10.2872   1
  -5   8   8 30.6266 24.6965   1
  -5   8  -9 8.69060 10.3633   1
  -5   8   9 4.34599 10.6647   1
  -5   8 -10 32.5038 16.9775   1
  -8  -5  10 16.7568 24.7409   1
  -5   8  10-11.1675 15.6000   1
  -8  -5  11 21.3625 20.7024   1
  -5   8  11-16.5494 16.1739   1
  -5   8 -11 45.2414 18.6013   1
  -8  -5  12 28.3270 25.7892   1
  -5   8 -12 15.8972 10.4556   1
  -5   8  12 0.42980 18.0094   1
  -8  -5  13 46.1211 26.4558   1
  -5   8  13 75.8723 35.1191   1
  -5   8  14-3.37981 13.2717   1
  -8  -5  14-60.4110 33.4955   1
  -5   8  15-17.2549 21.0294   1
  -8  -5  15 28.1699 28.6355   1
  -5   8  16 16.2650 11.3673   1
  -8  -5  16 18.8366 22.1411   1
  -8  -5  17 30.2218 11.6259   1
  -5   8  17 32.4632 16.3769   1
  -8  -5  18 3.60320 17.7559   1
  -5   8  18-23.3506 19.4327   1
  -5   8  19 37.3983 35.1687   1
  -8  -5  19-2.72673 20.2176   1
  -5   8 -19 41.8008 17.1136   1
  -5   8 -20 10.3898 11.0384   1
  -5   8  20-31.3777 25.4120   1
  -8  -5  20 27.4283 12.9768   1
  -5   8  21 86.3139 38.3884   1
  -8  -5  21 160.641 51.9518   1
  -5   8 -21 99.6440 24.3331   1
  -5   8 -22-29.2740 15.2936   1
  -5   8  22-10.8188 20.5752   1
  -8  -5  22 4.04602 12.4905   1
  -5   8  23 51.0719 34.9490   1
  -8  -5  23 79.3963 31.0088   1
  -5   8  24 11.1312 20.2338   1
  -8  -5  24 46.6802 25.7281   1
  -5   8  25 167.590 53.8780   1
  -8  -5  25 45.5220 34.1495   1
  -5   8  26 4.96958 13.2135   1
  -8  -5  26-1.05906 20.1871   1
  -5   8  27 31.6726 20.3154   1
  -8  -5  27-7.91743 23.0243   1
  -5   8  28 37.6352 16.7035   1
  -8  -5  28 27.9479 20.6005   1
  -5   8  29 12.6756 25.9849   1
  -8  -5  29 39.3084 28.5858   1
  -5   8  30-11.6695 24.9081   1
  -8  -5  30-26.5426 30.8276   1
  -5   8  31 83.3525 40.9519   1
  -8  -5  31 42.8043 32.6566   1
  -5   8  32 43.9932 25.8940   1
  -8  -5  32 25.9203 27.9352   1
  -5   8  33 182.052 68.4757   1
  -8  -5  33 74.0556 36.4860   1
  -5   8  34-12.7295 26.2913   1
  -8  -5  34-7.10370 24.4697   1
  -5   8  35 168.091 63.9647   1
  -8  -5  35 53.4536 32.2990   1
  -8  -5  36 4.99663 20.2032   1
  -5   8  36 85.7677 59.0573   1
  -8  -5  37 22.2909 22.0658   1
  -5   8  37 81.0292 53.2691   1
  -8  -5  38-48.2468 34.6322   1
  -5   8  38-10.6410 31.8787   1
  -8  -5  39 132.570 66.0985   1
  -5   8  39 119.560 57.0469   1
  -5   8  40 16.4136 20.8418   1
  -8  -5  40-6.87159 16.1058   1
  -5   8  41 25.3444 41.7111   1
  -8  -5  41 41.9861 41.0910   1
  -5   8  42-78.4161 51.0068   1
  -8  -5  42-14.5273 32.6157   1
  -5   8  43 70.0317 50.2691   1
  -8  -5  43 50.8835 31.3493   1
  -8  -5  44-71.2818 51.2095   1
  -5   8  44-31.6739 23.8517   1
  -5   8  45 53.3130 31.4609   1
  -8  -5  45 56.9491 45.6843   1
  -5   8  46-9.50066 21.2730   1
  -8  -5  46-25.8410 33.4808   1
  -8  -5  47-49.6353 47.6716   1
  -8  -5  48-82.5472 46.6707   1
  -8  -5  49 10.5885 18.8215   1
  -8  -5  50 20.9189 34.0567   1
  -6   8   0 15.5624 18.3115   1
  -6   8  -1-10.2894 16.4925   1
  -6   8   1-30.9774 15.5228   1
  -6   8  -2 27.1311 11.3159   1
  -6   8   2 55.1993 25.3773   1
  -6   8  -3 56.2091 30.8085   1
  -6   8   3 18.1987 14.5698   1
  -6   8  -4 3.49683 15.9014   1
  -6   8   4 41.6338 21.7757   1
  -6   8  -5 22.6834 8.44500   1
  -6   8   5 38.0998 25.4830   1
  -6   8  -6 5.93996 11.5127   1
  -6   8   6 16.8595 12.5376   1
  -6   8   7 9.65619 14.9004   1
  -6   8  -7 49.6278 23.9879   1
  -6   8   8 13.7581 12.7591   1
  -6   8  -8-15.2269 16.6678   1
  -6   8  -9 40.4302 23.4848   1
  -6   8   9 2.45636 18.0693   1
  -6   8 -10 92.3124 31.5687   1
  -6   8  10 75.3200 35.4141   1
  -8  -6  10 79.3736 36.6514   1
  -8  -6  11 42.0599 23.6761   1
  -6   8 -11 38.4779 21.3469   1
  -6   8  11 2.50815 16.1062   1
  -8  -6  12 4.29919 21.5737   1
  -6   8  12-4.43927 19.2823   1
  -6   8  13-34.8027 29.5127   1
  -8  -6  13-7.05312 21.7665   1
  -8  -6  14 17.4701 14.9224   1
  -6   8  14 8.00805 13.0603   1
  -8  -6  15 2.03047 16.0122   1
  -6   8  15 25.7414 27.1203   1
  -8  -6  16 35.8456 24.3179   1
  -6   8  16 50.6114 25.4667   1
  -6   8  17 59.5757 37.4062   1
  -8  -6  17 20.7755 19.3200   1
  -6   8  18-18.0271 24.7102   1
  -8  -6  18 1.96907 20.4640   1
  -8  -6  19 17.7429 22.1308   1
  -6   8  19 57.0860 34.8665   1
  -6   8  20 24.6628 16.4374   1
  -8  -6  20 1.70088 14.0714   1
  -6   8  21 50.3775 27.3294   1
  -8  -6  21 88.1060 40.1893   1
  -6   8  22 7.15130 12.7510   1
  -8  -6  22 52.7827 26.5298   1
  -6   8  23 11.1506 15.1491   1
  -8  -6  23-4.94705 15.4280   1
  -6   8  24 3.69180 16.5127   1
  -8  -6  24 59.0985 26.7366   1
  -6   8  25 42.1310 26.6546   1
  -8  -6  25 64.8854 38.6367   1
  -6   8  26-2.18976 15.3117   1
  -8  -6  26 30.6113 29.2929   1
  -6   8  27 107.253 48.0137   1
  -8  -6  27 103.433 46.9773   1
  -6   8  28-29.1440 28.4378   1
  -8  -6  28 37.0567 28.2737   1
  -6   8  29 92.4416 50.3532   1
  -8  -6  29 94.2472 46.0189   1
  -6   8  30 19.0058 29.0752   1
  -8  -6  30 42.5842 36.4080   1
  -6   8  31 110.777 53.7604   1
  -8  -6  31 27.1705 29.8878   1
  -6   8  32-31.2880 21.3608   1
  -8  -6  32 1.05527 14.2410   1
  -8  -6  33 49.7550 30.1021   1
  -6   8  33 56.4623 32.3086   1
  -6   8  34-12.5584 16.2252   1
  -8  -6  34 20.0538 14.6464   1
  -8  -6  35 47.2278 39.7179   1
  -6   8  35 92.0171 53.6788   1
  -8  -6  36 17.5345 28.1139   1
  -6   8  36-16.5892 35.5342   1
  -8  -6  37 35.0056 22.4224   1
  -6   8  37 68.7135 34.7285   1
  -8  -6  38 10.7715 27.7475   1
  -6   8  38 21.4196 36.0259   1
  -8  -6  39 47.4438 25.0473   1
  -6   8  39 62.8324 33.6940   1
  -8  -6  40-22.1407 23.0225   1
  -6   8  40-14.0513 53.6414   1
  -8  -6  41 111.553 52.8950   1
  -6   8  41-11.5467 35.4384   1
  -6   8  42-49.2654 42.0260   1
  -8  -6  42-18.8701 31.8269   1
  -8  -6  43 45.1298 43.5164   1
  -6   8  43 11.0066 20.7109   1
  -6   8  44 31.3031 57.6380   1
  -8  -6  44-20.3741 32.8978   1
  -7   8   0 180.231 46.0713   1
  -7   8  -1 22.1895 26.0310   1
  -7   8   1 9.49636 11.2550   1
  -7   8  -2-31.7497 19.4415   1
  -7   8   2-4.30464 19.3352   1
  -7   8  -3-0.10907 13.3009   1
  -7   8   3 30.4055 27.1087   1
  -7   8  -4 62.6877 31.2703   1
  -7   8   4 83.9453 33.1640   1
  -7   8  -5 15.2607 21.1968   1
  -7   8   5-9.23383 11.7326   1
  -7   8  -6 42.9321 28.9483   1
  -7   8   6 16.3191 24.2378   1
  -7   8  -7 1.46438 10.6183   1
  -7   8   7 37.7094 27.2910   1
  -7   8  -8 48.1266 26.6274   1
  -7   8   8 52.6752 32.4356   1
  -7   8  -9 54.0192 27.9802   1
  -7   8   9 22.5551 26.2708   1
  -8  -7  10 18.1377 25.8250   1
  -7   8  10 47.1588 28.7534   1
  -7   8 -10-30.4673 10.3586   1
  -7   8 -11 39.9892 21.4357   1
  -7   8  11 23.4920 15.7095   1
  -8  -7  11 15.4844 23.7231   1
  -8  -7  12 61.1240 25.1529   1
  -7   8  12 45.6763 36.7521   1
  -8  -7  13 1.85241 19.0622   1
  -7   8  13 9.30623 14.8881   1
  -8  -7  14 2.67918 15.1526   1
  -7   8  14 42.0337 17.4082   1
  -8  -7  15 33.0749 25.5920   1
  -7   8  15 72.5750 35.2684   1
  -8  -7  16 2.44180 13.2378   1
  -7   8  16 85.4230 47.1537   1
  -8  -7  17-27.5131 21.2001   1
  -7   8  17 13.6431 29.1674   1
  -8  -7  18-22.6608 19.5738   1
  -7   8  18 8.59850 27.2487   1
  -8  -7  19 20.7805 26.7592   1
  -7   8  19-4.66793 13.1381   1
  -8  -7  20 46.5877 24.5530   1
  -7   8  20 8.72918 18.1490   1
  -8  -7  21 52.3266 30.7588   1
  -7   8  21 60.5585 34.9359   1
  -8  -7  22-9.99129 19.3381   1
  -7   8  22 13.2134 23.7058   1
  -7   8  23 4.43770 28.2469   1
  -8  -7  23-4.81379 12.6611   1
  -7   8  24 64.9695 42.7657   1
  -8  -7  24 12.6909 14.8788   1
  -7   8  25 57.6484 39.6688   1
  -8  -7  25 72.9887 31.4077   1
  -7   8  26 34.2988 29.3869   1
  -8  -7  26-1.16148 17.8106   1
  -7   8  27-4.46246 17.3559   1
  -8  -7  27 8.67097 19.7729   1
  -7   8  28 78.6074 59.0781   1
  -8  -7  28-1.94122 14.2481   1
  -7   8  29 36.8166 38.2374   1
  -8  -7  29 31.7078 21.9161   1
  -7   8  30 45.8060 41.2859   1
  -8  -7  30-16.6281 18.0162   1
  -7   8  31-1.05183 29.8324   1
  -8  -7  31-26.0040 32.0662   1
  -8  -7  32-42.9736 30.7561   1
  -7   8  32 86.2349 44.1296   1
  -7   8  33-0.08167 21.8790   1
  -8  -7  33 3.63341 26.2092   1
  -8  -7  34-34.6835 34.2390   1
  -7   8  34-47.0678 43.3371   1
  -8  -7  35-42.6296 40.8601   1
  -7   8  35-23.4464 27.1785   1
  -8  -7  36-27.8128 27.0491   1
  -7   8  36-71.3311 51.8549   1
  -8  -7  37 52.6364 34.8962   1
  -7   8  37 70.1270 21.1563   1
  -7   8  38 23.1080 16.6977   1
  -8  -7  38 6.28370 20.1714   1
  -8  -7  39 92.6690 50.8874   1
  -7   8  39 55.3038 48.8002   1
  -7   8  40 134.691 62.2481   1
  -7   8  41 36.6126 40.0547   1
  -7   8  42-70.0670 40.0823   1
  -7   8  43 64.4603 54.3344   1
  -8   8   0 43.5302 30.5271   1
  -8   8  -1-7.58809 15.5098   1
  -8   8   1 4.65174 18.3680   1
  -8   8  -2 41.9790 31.0641   1
  -8   8   2 57.6074 30.8756   1
  -8   8  -3 21.7400 28.6907   1
  -8   8   3-12.0613 11.2195   1
  -8   8  -4 5.63231 11.9660   1
  -8   8   4 11.6357 22.5544   1
  -8   8  -5 11.8303 21.2789   1
  -8   8   5-15.4299 25.0033   1
  -8   8  -6 124.753 40.0401   1
  -8   8   6 179.023 50.5656   1
  -8   8  -7 38.6165 30.4893   1
  -8   8   7 10.6838 23.1722   1
  -8   8  -8-15.0349 19.9951   1
  -8   8   8 4.37041 14.3350   1
  -8   8  -9 8.64832 23.3640   1
  -8   8   9 64.1189 37.4988   1
  -8  -8  10 121.159 40.9334   1
  -8   8  10 80.7048 38.6821   1
  -8   8 -10 91.2094 36.0874   1
  -8  -8  11-9.32443 18.4759   1
  -8   8  11 9.11811 14.2787   1
  -8   8 -11 6.14523 13.4464   1
  -8  -8  12-16.4506 13.8655   1
  -8   8  12 37.1220 26.9675   1
  -8   8  13 24.3946 26.7462   1
  -8  -8  13 50.0735 36.1188   1
  -8  -8  14 79.1640 28.3776   1
  -8   8  14 157.221 53.5202   1
  -8  -8  15-13.4090 23.5476   1
  -8   8  15 22.4543 25.6977   1
  -8  -8  16-4.80914 16.5037   1
  -8   8  16 16.0216 14.2526   1
  -8   8  17 53.7532 43.4750   1
  -8  -8  17 12.6648 17.7407   1
  -8  -8  18 129.526 44.8931   1
  -8   8  18 77.7330 42.8958   1
  -8  -8  19 49.0906 30.3454   1
  -8   8  19 22.1361 20.6513   1
  -8  -8  20 2.07911 11.3794   1
  -8   8  20-43.2335 36.6053   1
  -8  -8  21-16.1239 14.1700   1
  -8   8  21 28.5247 26.8482   1
  -8  -8  22 26.0850 23.7316   1
  -8   8  22 30.1052 33.7981   1
  -8  -8  23-27.3357 19.2925   1
  -8   8  23 3.74466 25.7835   1
  -8   8  24 12.5055 13.7606   1
  -8  -8  24 2.93525 19.5867   1
  -8  -8  25-3.10416 16.6093   1
  -8   8  25-57.6147 43.5105   1
  -8   8  26 74.6336 50.6083   1
  -8  -8  26 30.0360 20.8234   1
  -8   8  27 31.5104 24.3442   1
  -8  -8  27 13.6056 15.5610   1
  -8   8  28-0.72967 17.9024   1
  -8  -8  28-17.9697 12.9448   1
  -8   8  29 41.8992 40.1397   1
  -8  -8  29-34.9445 24.8674   1
  -8   8  30-37.1803 28.5370   1
  -8  -8  30-45.0169 30.4467   1
  -8  -8  31 8.41949 25.8721   1
  -8   8  31 13.5476 32.1793   1
  -8   8  32-2.18262 26.9135   1
  -8  -8  32 22.1225 18.9704   1
  -8   8  33 30.8970 34.0477   1
  -8   8  34 5.74698 23.6703   1
  -8   8  35 5.69549 25.3772   1
  -8   8  36-31.5847 46.8747   1
  -8   8  37-2.62387 57.8803   1
  -8   8  38-30.8871 34.5590   1
  -8   8  39-20.7006 58.0807   1
  -8   8  40-34.7546 25.2965   1
  -8   8  41 2.55469 42.7928   1
  -9   8   0 113.742 49.4827   1
  -9   8  -1 34.0964 26.2328   1
  -9   8   1 6.57019 19.0669   1
  -9   8  -2-32.3583 21.3677   1
  -9   8   2 25.9452 14.6029   1
  -9   8  -3 9.46399 31.2057   1
  -9   8   3 45.1640 33.2057   1
  -9   8  -4 12.0671 20.5021   1
  -9   8   4 78.6974 43.5401   1
  -9   8  -5-14.0748 13.4553   1
  -9   8   5 9.10047 19.1437   1
  -9   8   6 2.92730 20.0978   1
  -9   8  -6 11.3992 15.9054   1
  -9   8   7 20.4047 26.3724   1
  -9   8  -7 15.8814 29.7253   1
  -9   8  -8 76.4648 39.5247   1
  -9   8   8 113.805 44.2986   1
  -9   8  -9 16.7480 27.7848   1
  -9   8   9 10.7683 23.2715   1
  -9   8  10-61.5671 40.5916   1
  -9   8 -10 28.4414 29.5996   1
  -8  -9  10-1.21101 14.9861   1
  -8  -9  11 24.0807 23.3998   1
  -9   8  11 20.2239 13.5132   1
  -9   8 -11 25.0589 26.5941   1
  -8  -9  12 79.7291 31.7418   1
  -9   8  12 134.797 52.7463   1
  -8  -9  13 33.0222 21.4087   1
  -9   8  13 35.4626 27.0846   1
  -8  -9  14-9.38683 12.7729   1
  -9   8  14 27.0033 21.2596   1
  -8  -9  15 15.4234 23.7291   1
  -9   8  15-14.7640 18.8571   1
  -8  -9  16 43.4562 23.3448   1
  -9   8  16 7.46054 24.9349   1
  -8  -9  17 2.64365 18.1435   1
  -9   8  17 23.6354 21.4154   1
  -8  -9  18-14.5500 13.7145   1
  -9   8  18-1.36492 18.2503   1
  -8  -9  19 32.3998 23.5067   1
  -9   8  19 32.1556 31.7154   1
  -8  -9  20-3.29768 15.7554   1
  -9   8  20-7.30875 19.0219   1
  -8  -9  21-20.9018 27.2029   1
  -9   8  21 26.1878 29.6773   1
  -8  -9  22 6.85888 14.1615   1
  -9   8  22 3.24563 23.6020   1
  -8  -9  23 11.6711 14.3761   1
  -9   8  23-77.1021 44.0931   1
  -8  -9  24 8.84806 12.7953   1
  -9   8  24 41.1306 41.0872   1
  -8  -9  25-26.5022 24.9553   1
  -9   8  25 105.590 50.9207   1
  -9   8  26-4.69651 30.3729   1
  -9   8  27 101.083 57.9230   1
  -9   8  28-5.83278 20.2870   1
  -9   8  29-13.9087 26.7598   1
  -9   8  30 33.7574 39.0356   1
  -9   8  31 80.8250 55.4370   1
  -9   8  32 43.1663 44.8434   1
  -9   8  33-37.3753 43.1260   1
  -9   8  34-15.0142 26.8198   1
  -9   8  35 1.55645 27.8651   1
  -9   8  36-0.67412 22.1849   1
  -9   8  37-3.58846 39.3420   1
  -9   8  38-18.1153 30.9894   1
  -9   8  39-8.19569 32.9831   1
  -9   7   0 84.2640 33.6813   1
  -9   7   1-2.00168 12.4575   1
  -9   7  -1-11.6384 16.3121   1
  -9   7   2 32.7515 24.5086   1
  -9   7  -2-4.32938 21.7920   1
  -9   7   3 15.9241 24.1757   1
  -9   7  -3 31.1438 25.2601   1
  -9   7  -4 38.6735 29.9107   1
  -9   7   4 70.9737 33.9369   1
  -9   7  -5 25.1600 20.5753   1
  -9   7   5-24.8988 20.8691   1
  -9   7   6 121.669 43.5058   1
  -9   7  -6 201.906 54.3350   1
  -9   7   7 36.9905 32.8308   1
  -9   7  -7 34.7862 34.1124   1
  -9   7   8 62.7604 40.8584   1
  -9   7   9 42.4522 35.7236   1
  -7  -9  10 39.6746 23.4338   1
  -9   7  10-23.3668 23.5265   1
  -7  -9  11 31.2469 19.7630   1
  -9   7  11 24.9303 13.5920   1
  -7  -9  12 22.4233 17.2406   1
  -9   7  12-20.9636 27.2845   1
  -7  -9  13 23.0987 15.7868   1
  -9   7  13-36.6634 26.1122   1
  -7  -9  14 52.7041 21.4830   1
  -9   7  14 27.4888 27.1515   1
  -7  -9  15 44.2591 23.5414   1
  -9   7  15 20.4190 14.9188   1
  -7  -9  16 17.6561 11.7595   1
  -9   7  16-9.34356 20.8469   1
  -7  -9  17 15.5695 21.4758   1
  -9   7  17 6.66604 17.7852   1
  -7  -9  18 22.0747 16.3130   1
  -9   7  18 65.1745 23.5381   1
  -7  -9  19 5.36632 8.67660   1
  -9   7  19 5.87365 22.7849   1
  -7  -9  20 3.03224 14.1062   1
  -9   7  20-35.2367 28.1954   1
  -7  -9  21-20.4981 18.8176   1
  -9   7  21-12.8056 27.4748   1
  -7  -9  22 32.6936 20.8453   1
  -9   7  22 43.6789 42.1027   1
  -7  -9  23 48.8291 30.3708   1
  -9   7  23-9.04283 21.6576   1
  -7  -9  24-1.26680 12.0376   1
  -9   7  24-26.7376 19.6785   1
  -7  -9  25-7.15693 11.9514   1
  -9   7  25 44.2303 35.6190   1
  -9   7  26-73.9560 41.1416   1
  -9   7  27 77.9814 32.3661   1
  -9   7  28-22.6561 30.2934   1
  -9   7  29 4.00355 16.4907   1
  -9   7  30 0.08258 18.5220   1
  -9   7  31 49.6651 28.1185   1
  -9   7  32-81.5797 61.1004   1
  -9   7  33 56.0914 45.2044   1
  -9   7  34 31.1515 39.9446   1
  -9   7  35 18.8838 34.8803   1
  -9   7  36-61.1225 44.2936   1
  -9   7  37 15.6265 35.0771   1
  -9   7  38 34.8378 42.2008   1
  -9   7  39-69.3447 68.0843   1
  -9   7  40-34.4319 38.7861   1
  -9   6   0-4.00892 24.3411   1
  -9   6  -1 23.1531 26.7206   1
  -9   6   1 47.8635 31.6001   1
  -9   6  -2 36.1226 29.3946   1
  -9   6   2 103.234 40.4214   1
  -9   6   3 24.2532 25.3130   1
  -9   6  -3-15.2039 16.6727   1
  -9   6   4 24.1775 28.3907   1
  -9   6  -4-0.75453 17.1515   1
  -9   6  -5-4.74758 22.9672   1
  -9   6   5-27.7802 27.0968   1
  -9   6   6-19.0962 28.9380   1
  -9   6   7-2.09003 18.4650   1
  -9   6   8 10.2301 20.4419   1
  -9   6   9 3.90098 15.5161   1
  -6  -9   9 11.1738 13.2571   1
  -6  -9  10 8.42161 14.7805   1
  -9   6  10 16.3137 20.6239   1
  -6  -9  11 12.8861 18.8035   1
  -9   6  11 2.72155 13.2453   1
  -6  -9  12 3.06602 17.3239   1
  -9   6  12-30.5811 30.1680   1
  -6  -9  13-15.7470 14.2812   1
  -9   6  13-22.7218 27.1389   1
  -6  -9  14 38.0115 19.1785   1
  -9   6  14 26.2819 23.4985   1
  -6  -9  15 54.2214 23.2815   1
  -9   6  15-0.50600 15.6606   1
  -6  -9  16-0.81400 12.7780   1
  -9   6  16-19.2200 28.9498   1
  -6  -9  17 36.7283 18.6345   1
  -9   6  17-33.2032 24.4193   1
  -6  -9  18-4.67233 14.1079   1
  -9   6  18-30.4080 41.7260   1
  -6  -9  19 0.55204 11.5011   1
  -9   6  19-16.3980 22.6095   1
  -6  -9  20 14.9434 14.1931   1
  -9   6  20 37.8265 28.7352   1
  -6  -9  21 28.0146 14.3849   1
  -9   6  21 15.2851 17.1817   1
  -9   6  22 32.4791 31.7240   1
  -6  -9  22-6.81023 14.1578   1
  -9   6  23 7.53781 22.1108   1
  -6  -9  23 29.2075 19.6129   1
  -9   6  24-33.7815 30.9167   1
  -6  -9  24-41.2029 24.9317   1
  -9   6  25 7.30801 38.6411   1
  -6  -9  25 4.91174 10.4258   1
  -6  -9  26-27.8434 16.7132   1
  -9   6  26 17.6519 24.6426   1
  -9   6  27 47.5004 30.8099   1
  -9   6  28 48.9188 41.5993   1
  -9   6  29 47.7861 40.4494   1
  -9   6  30 10.6737 37.1931   1
  -9   6  31 50.0721 44.2238   1
  -9   6  32-19.3319 17.0842   1
  -9   6  33 96.7883 60.7549   1
  -9   6  34-5.84775 24.5976   1
  -9   6  35 47.3306 50.4374   1
  -9   6  36-8.60225 33.3333   1
  -9   6  37-16.8262 42.7983   1
  -9   6  38-19.5092 30.6526   1
  -9   6  39 138.973 62.8358   1
  -9   6  40 8.76116 36.4458   1
  -9   6  41 75.7119 61.5181   1
  -9   6  42-49.5406 47.2904   1
  -9   5   0 70.4843 36.6779   1
  -9   5  -1 17.0740 14.5370   1
  -9   5   1 36.1465 22.4865   1
  -9   5   2 6.88201 19.1806   1
  -5  -9  -2 18.8109 10.8352   1
  -9   5  -2 24.2779 26.4907   1
  -9   5   3 1.76090 12.3333   1
  -5  -9  -3 37.8654 23.3354   1
  -9   5   4 35.8987 31.4750   1
  -5  -9  -4 41.6491 18.0480   1
  -9   5   5 24.9562 32.8405   1
  -9   5   6 100.995 42.8749   1
  -9   5   7 19.8940 26.0804   1
  -9   5   8 44.3235 35.2667   1
  -9   5   9-56.8795 32.1005   1
  -5  -9   9 0.55540 9.80489   1
  -5  -9  10 29.2847 14.5646   1
  -9   5  10 10.8460 24.2310   1
  -5  -9  11-7.25991 8.74086   1
  -9   5  11 39.9631 28.6178   1
  -9   5  12 38.7343 29.0867   1
  -5  -9  12 8.72674 11.2355   1
  -5  -9  13-1.60721 8.39336   1
  -9   5  13 45.0713 34.1583   1
  -5  -9  14 45.6516 19.7259   1
  -9   5  14 35.2974 31.9376   1
  -5  -9  15 22.4441 14.8475   1
  -9   5  15 32.7873 34.5368   1
  -5  -9  16-16.8352 9.85002   1
  -9   5  16 34.2076 30.2913   1
  -9   5  17-8.99578 23.6847   1
  -5  -9  17 40.6845 18.0023   1
  -9   5  18 2.82007 14.1892   1
  -5  -9  18 14.7329 15.3766   1
  -9   5  19 44.6424 34.8613   1
  -5  -9  19 30.2882 9.41517   1
  -9   5  20-4.23580 30.6729   1
  -5  -9  20 8.45304 12.0441   1
  -9   5  21 44.0702 37.6009   1
  -5  -9  21 63.2326 27.5865   1
  -9   5  22 20.3053 23.5005   1
  -5  -9  22-24.0740 16.2404   1
  -5  -9  23 31.1674 18.2957   1
  -9   5  23 114.592 52.8295   1
  -5  -9  24 20.5047 18.4628   1
  -9   5  24 65.0321 44.8702   1
  -5  -9  25 1.99261 12.0291   1
  -9   5  25 33.6417 32.4519   1
  -5  -9  26 37.8757 20.4295   1
  -9   5  26-5.63920 33.6195   1
  -9   5  27 1.10001 21.9586   1
  -9   5  28 32.1194 30.0432   1
  -9   5  29 49.2317 32.3293   1
  -9   5  30 4.87893 19.0841   1
  -9   5  31 94.5866 58.3526   1
  -9   5  32 93.0573 48.9685   1
  -9   5  33 11.5995 24.4313   1
  -9   5  34-27.9408 24.1421   1
  -9   5  35 55.7750 52.1932   1
  -9   5  36 31.6292 35.2920   1
  -9   5  37 4.34362 18.3373   1
  -9   5  38 26.0643 19.7232   1
  -9   5  39 77.5972 41.2666   1
  -9   5  40 38.0351 35.5228   1
  -9   5  41 15.4591 32.8194   1
  -9   5  42 62.3445 48.4120   1
  -9   5  43 115.365 77.2968   1
  -9   4   0 91.7133 44.1584   1
  -4  -9   0 44.6351 18.3947   1
  -4  -9   1-12.5577 11.4285   1
  -4  -9  -1 29.0367 13.2835   1
  -9   4   1-25.2730 25.1651   1
  -9   4   2-2.70284 22.3009   1
  -4  -9  -2 15.2201 11.7368   1
  -4  -9   2 5.97564 6.65704   1
  -9   4   3 13.7193 20.3211   1
  -4  -9  -3-23.7752 10.1340   1
  -4  -9  -4 164.111 35.9351   1
  -9   4   4 158.845 53.4508   1
  -9   4   5-12.9497 21.9303   1
  -4  -9  -5 12.5125 9.39857   1
  -9   4   6 20.8913 12.9394   1
  -4  -9  -6 15.6346 13.7473   1
  -9   4   7-1.98560 23.5691   1
  -4  -9  -7 38.3450 17.5309   1
  -9   4   8 130.440 44.4831   1
  -4  -9   8 145.969 28.2860   1
  -4  -9   9 26.3848 15.0768   1
  -9   4   9 0.05159 17.8352   1
  -4  -9  10 50.5332 17.5780   1
  -9   4  10 57.3130 34.9153   1
  -4  -9  11 8.01609 10.4112   1
  -9   4  11 8.22951 22.1810   1
  -9   4  12 84.9183 43.5310   1
  -4  -9  12 97.8832 22.6127   1
  -9   4  13 7.36849 13.1630   1
  -4  -9  13 67.4904 18.8726   1
  -9   4  14 44.1676 31.3213   1
  -4  -9  14 19.7930 11.5653   1
  -9   4  15 51.2146 40.1048   1
  -4  -9  15 3.90177 6.88793   1
  -9   4  16 109.916 47.9018   1
  -4  -9  16 74.8986 20.2562   1
  -9   4  17 44.1690 31.6879   1
  -4  -9  17-6.98644 5.05507   1
  -9   4  18 33.9261 29.3511   1
  -4  -9  18 18.1983 8.73053   1
  -4  -9  19-3.82223 9.26346   1
  -9   4  19 10.9637 24.1067   1
  -4  -9  20 25.6809 13.6569   1
  -9   4  20 51.4942 38.5697   1
  -4  -9  21 6.65780 8.95352   1
  -9   4  21 14.0502 30.0041   1
  -4  -9  22-27.1015 12.7088   1
  -9   4  22 5.03420 18.3424   1
  -4  -9  23 41.7952 17.9500   1
  -9   4  23 10.6980 15.3714   1
  -4  -9  24 22.0962 11.6841   1
  -9   4  24 71.0629 32.7881   1
  -4  -9  25 45.3368 21.2369   1
  -9   4  25 73.8874 36.2321   1
  -4  -9  26 16.2426 9.87660   1
  -9   4  26 3.39285 22.6216   1
  -9   4  27 52.7723 45.4935   1
  -9   4  28-10.1703 29.1586   1
  -9   4  29 41.0168 39.5373   1
  -9   4  30-41.6189 15.7267   1
  -9   4  31 65.5214 44.0801   1
  -9   4  32-3.05258 43.2712   1
  -9   4  33 60.0901 40.9740   1
  -9   4  34 52.2379 52.3670   1
  -9   4  35 50.0643 43.1321   1
  -9   4  36-14.3280 32.5997   1
  -9   4  37-1.27847 32.1565   1
  -9   4  38-18.9140 33.0216   1
  -9   4  39 13.3864 34.0762   1
  -9   4  40 24.2935 35.6184   1
  -9   4  41-26.4463 32.1135   1
  -9   4  42 57.4561 41.7348   1
  -9   4  43 20.3285 22.3502   1
  -9   4  44 18.3064 34.7483   1
  -3  -9   0 0.16424 8.48636   1
  -3  -9  -1 18.2479 12.8339   1
  -3  -9   1 1.16423 10.3712   1
  -9   3   2 171.400 58.6204   1
  -3  -9  -2 171.442 32.3116   1
  -3  -9   2 165.308 27.9706   1
  -3  -9  -3 23.0038 15.5010   1
  -3  -9   3 5.12622 5.44735   1
  -9   3   3-11.7204 19.4817   1
  -9   3   4 36.3739 27.5985   1
  -3  -9  -4-9.63303 14.3561   1
  -3  -9   4 12.8033 11.8392   1
  -3  -9  -5 39.0714 18.8800   1
  -9   3   5 21.8970 21.3337   1
  -3  -9   5 39.2417 12.9484   1
  -3  -9  -6 101.081 28.6965   1
  -3  -9   6 126.384 22.9993   1
  -9   3   6 111.273 44.0623   1
  -3  -9   7 1.37552 6.31474   1
  -3  -9   7 16.9883 7.13375   1
  -3  -9  -7-13.2966 21.1762   1
  -9   3   7 35.8265 28.9523   1
  -3  -9  -8-28.1513 20.6783   1
  -3  -9   8-0.85668 5.64989   1
  -3  -9   8-2.28293 4.90141   1
  -9   3   8 13.7326 20.4277   1
  -9   3   9 15.7788 27.5624   1
  -3  -9   9 19.4586 8.12657   1
  -3  -9   9 12.6349 6.95006   1
  -3  -9  -9 22.8999 19.9246   1
  -9   3  10 236.398 67.1497   1
  -3  -9  10 151.537 19.8548   1
  -9   3  11 45.1294 30.5292   1
  -3  -9  11 1.21196 5.62595   1
  -9   3  12 33.7534 26.5938   1
  -3  -9  12 13.0304 7.43963   1
  -9   3  13 3.75468 19.7423   1
  -3  -9  13 2.03489 5.62461   1
  -9   3  14 184.837 54.7868   1
  -3  -9  14 101.386 16.5806   1
  -3  -9  15 15.1966 7.70931   1
  -9   3  15 87.0718 40.3563   1
  -3  -9  16 2.58403 5.39221   1
  -9   3  16-10.1445 24.3843   1
  -9   3  17 21.5935 30.2916   1
  -3  -9  17 8.91169 5.53367   1
  -9   3  18 45.6040 35.7866   1
  -3  -9  18 24.4154 7.24851   1
  -9   3  19 65.3314 39.7186   1
  -3  -9  19-10.1054 6.69220   1
  -9   3  20 2.39359 34.1635   1
  -3  -9  20 10.4046 9.31007   1
  -9   3  21 9.63511 17.3510   1
  -3  -9  21 32.1966 11.4509   1
  -3  -9  22 16.2780 10.7977   1
  -9   3  22 25.0312 15.7407   1
  -3  -9  23 1.46478 7.47407   1
  -9   3  23 8.83040 14.8754   1
  -3  -9  24-7.11068 9.36245   1
  -9   3  24 22.1431 21.0923   1
  -3  -9  25 22.1569 5.44794   1
  -9   3  25 16.5105 17.7178   1
  -3  -9  26 8.18594 10.2960   1
  -9   3  26-1.33023 29.9120   1
  -9   3  27 2.43707 17.4277   1
  -9   3  28 3.87413 31.1901   1
  -9   3  29 9.25396 18.0908   1
  -9   3  30 38.7254 35.4227   1
  -9   3  31 74.2915 50.1977   1
  -9   3  32 10.3593 16.0452   1
  -9   3  33 37.7060 33.0304   1
  -9   3  34-24.5619 40.8066   1
  -9   3  35 9.76450 38.0826   1
  -9   3  36-11.4483 16.4277   1
  -9   3  37-32.0771 24.8096   1
  -9   3  38 6.80884 16.5465   1
  -9   3  39-35.9916 23.2730   1
  -9   3  40 1.97140 21.9015   1
  -9   3  41 7.54048 22.9199   1
  -9   3  42 12.5351 23.2174   1
  -9   3  43 29.2252 46.5775   1
  -9   3  44 56.3079 58.3309   1
  -9   3  45 11.7773 39.5303   1
  -2  -9   0 208.314 29.7720   1
  -2  -9   1 21.2921 10.4079   1
  -2  -9  -1 3.59419 7.90159   1
  -2  -9   2 41.2661 13.8943   1
  -2  -9  -2 13.2036 11.2424   1
  -2  -9   3-9.25381 10.0981   1
  -2  -9  -3 2.42668 8.15289   1
  -2  -9   4 105.652 17.3529   1
  -2  -9  -4 129.775 28.8085   1
  -9   2   4 82.6373 36.6270   1
  -9   2   5-11.8486 24.7578   1
  -2  -9   5 6.32560 4.38200   1
  -2  -9  -5 21.3580 10.3801   1
  -9   2   6 30.9311 22.4658   1
  -2  -9   6 2.54154 2.77521   1
  -2  -9  -6 6.18494 8.25324   1
  -2  -9   6 0.69832 4.02419   1
  -9   2   7 89.4305 45.5377   1
  -2  -9  -7 51.6958 12.8962   1
  -9   2   8 102.584 45.8455   1
  -2  -9  -8 80.8513 26.9068   1
  -9   2   9 19.5431 26.2681   1
  -2  -9  -9 2.48071 11.6076   1
  -2  -9 -10-0.78862 9.34008   1
  -9   2  10 15.5970 25.5327   1
  -9   2  11-17.9775 16.7379   1
  -2  -9 -11 7.98460 9.44967   1
  -9   2  12 174.076 53.3522   1
  -9   2  13-30.2344 28.7093   1
  -9   2  14 36.7125 28.5503   1
  -9   2  15 23.9447 27.1499   1
  -9   2  16 127.704 46.0748   1
  -9   2  17-45.3950 35.3763   1
  -9   2  18-3.51407 28.7879   1
  -9   2  19 37.3777 36.2696   1
  -9   2  20 64.0839 39.0634   1
  -9   2  21-26.6262 38.3788   1
  -9   2  22 2.00010 24.0044   1
  -9   2  23 80.1300 49.9523   1
  -9   2  24 44.4463 33.6560   1
  -9   2  25 20.8269 22.6427   1
  -9   2  26-31.3780 35.5927   1
  -9   2  27 33.9626 23.1693   1
  -9   2  28-5.76083 34.1623   1
  -9   2  29 3.96832 14.5654   1
  -9   2  30 78.4010 43.2639   1
  -9   2  31 21.6146 19.6628   1
  -9   2  32-34.1141 37.4898   1
  -9   2  33 49.9941 41.3070   1
  -9   2  34-8.22946 29.4276   1
  -9   2  35 68.7849 38.6126   1
  -9   2  36-23.0543 45.1938   1
  -9   2  37-4.53439 24.8026   1
  -9   2  38 24.5790 28.9831   1
  -9   2  39 74.1527 43.8752   1
  -9   2  40-47.5964 43.7813   1
  -9   2  41 18.5726 36.4801   1
  -9   2  42 32.3405 24.8838   1
  -9   2  43 51.4676 32.1508   1
  -9   2  44 50.4297 43.4775   1
  -9   2  45-42.9432 48.0479   1
  -9   2  46-66.0464 52.2199   1
  -1  -9   0 36.8822 10.1872   1
  -1  -9   1 40.4971 13.6856   1
  -1  -9  -1 53.4794 15.2966   1
  -1  -9   2 83.4081 15.1505   1
  -1  -9  -2 107.263 23.5356   1
  -1  -9  -3 0.67256 11.7618   1
  -1  -9   3-5.88133 3.85440   1
  -1  -9  -4 49.3681 18.6651   1
  -1  -9  -5 46.8552 16.1531   1
  -9   1   5 28.9850 14.8255   1
  -1  -9  -6 63.9471 23.1866   1
  -9   1   6 52.8902 29.8461   1
  -9   1   7 67.6905 32.9323   1
  -1  -9  -7 52.7754 19.2007   1
  -1  -9  -8-10.2257 7.55629   1
  -9   1   8 5.50055 20.4102   1
  -1  -9  -9 100.788 30.9284   1
  -9   1   9 90.2942 36.9746   1
  -1  -9 -10 43.3634 24.2125   1
  -9   1  10 54.9594 30.8281   1
  -9   1  11 32.2152 33.1231   1
  -1  -9 -11 14.9842 16.8002   1
  -1  -9 -12 9.13615 11.5529   1
  -9   1  12-3.85357 13.4958   1
  -9   1  13 12.6280 14.7892   1
  -9   1  14 68.4536 36.7150   1
  -9   1  15 14.0507 20.2616   1
  -9   1  16 64.1198 42.1058   1
  -9   1  17 47.4502 34.4665   1
  -9   1  18 43.4749 31.4403   1
   1   9  19 5.67566 19.2046   1
  -9   1  19 12.0586 17.4451   1
  -9   1  20 58.1363 34.6162   1
   1   9  20 44.9586 25.5751   1
   1   9  21 77.3336 39.4881   1
  -9   1  21 65.2176 33.5308   1
  -9   1  22 48.6209 24.5111   1
   1   9  22 43.9697 25.9608   1
  -9   1  23 71.1781 39.0342   1
   1   9  23 10.4054 14.1615   1
   1   9  24-18.9874 26.8850   1
  -9   1  24-0.81406 28.8214   1
   1   9  25 154.002 54.1679   1
  -9   1  25 116.881 55.8843   1
   1   9  26 55.2448 41.3156   1
  -9   1  26 10.8818 15.1766   1
   1   9  27 57.8851 38.1413   1
  -9   1  27 29.3235 19.6938   1
   1   9  28 0.82767 19.7114   1
  -9   1  28 42.8244 31.5640   1
   1   9  29 35.2418 33.7262   1
  -9   1  29 40.7384 36.6798   1
   1   9  30-53.0939 25.5495   1
  -9   1  30 28.1191 25.5416   1
  -9   1  31 75.7049 46.1570   1
   1   9  31 22.9502 28.1398   1
   1   9  32-37.8983 34.9785   1
  -9   1  32 37.9947 33.5480   1
   1   9  33 30.0095 24.4807   1
  -9   1  33 58.9658 40.8474   1
   1   9  34-40.2385 31.5278   1
  -9   1  34-42.0673 33.0843   1
   1   9  35 47.9657 23.3164   1
  -9   1  35 64.9144 46.8166   1
   1   9  36-43.6262 42.9356   1
  -9   1  36-44.1455 19.6257   1
  -9   1  37-44.2407 44.5580   1
   1   9  37 40.5820 39.6688   1
  -9   1  38 20.5878 37.8270   1
  -9   1  39 34.2729 28.4414   1
  -9   1  40 23.3304 41.7835   1
  -9   1  41 27.8172 42.7146   1
  -9   1  42-62.4609 53.7923   1
  -9   1  43-37.6716 51.5740   1
  -9   1  44-13.4961 17.4669   1
  -9   1  45 45.8418 24.8325   1
  -9   1  46 54.2895 50.5364   1
  -9   1  47-21.0920 25.3379   1
   0  -9   0 16.5329 11.6567   1
   0  -9   1 10.9303 8.51840   1
   0  -9  -1-1.88899 8.90651   1
   0  -9   2 73.6569 12.8758   1
   0  -9  -2 57.9705 15.7720   1
   0  -9  -3 27.5441 13.0572   1
   0  -9  -4 5.21847 8.02523   1
   0  -9  -5 3.68190 10.2663   1
   0  -9  -6 44.2180 17.5588   1
   0  -9  -7 34.1904 17.9234   1
   0   9   7 5.67293 8.30145   1
  -9   0   7-0.69314 17.4623   1
   0   9   8 21.5863 17.9983   1
   0  -9  -8 4.49078 9.05276   1
  -9   0   8-2.14539 13.0599   1
  -9   0   9-19.6874 25.5967   1
   0  -9  -9 16.9939 9.66397   1
   0   9   9 39.9563 22.1993   1
  -9   0  10 39.6410 23.4110   1
   0   9  10 67.4493 25.4301   1
   0  -9 -10 61.7566 18.3200   1
  -9   0  11 53.8482 30.5976   1
   0   9  11 88.3543 32.4009   1
   0  -9 -11 105.177 34.5096   1
  -9   0  12-0.37767 13.6991   1
   0   9  12-12.1856 16.6814   1
   0  -9 -12-9.14240 19.3073   1
   0   9  13 16.9791 22.1624   1
  -9   0  13 60.6857 37.0034   1
  -9   0  14 108.293 52.3405   1
   0   9  14 48.4039 23.0670   1
  -9   0  15 87.9406 38.8858   1
   0   9  15 118.368 34.4133   1
  -9   0  16-4.66303 20.5990   1
   0   9  16 9.24070 16.3335   1
  -9   0  17 65.2167 38.6225   1
   0   9  17 65.4382 36.8679   1
  -9   0  18 38.8051 34.9767   1
   0   9  18 19.4818 24.4282   1
  -9   0  19 54.6991 29.0552   1
   0   9  19 26.8132 15.1957   1
  -9   0  20 14.5858 24.1597   1
   0   9  20-35.1660 31.0340   1
  -9   0  21 79.7922 36.1072   1
   0   9  21 71.1421 31.0654   1
  -9   0  22 24.8462 29.0510   1
   0   9  22-8.44982 17.1959   1
  -9   0  23 133.753 54.3749   1
   0   9  23 141.847 47.3551   1
  -9   0  24 6.29072 25.7605   1
   0   9  24 22.4416 29.2803   1
  -9   0  25 21.6840 29.8040   1
   0   9  25 48.7555 28.8370   1
  -9   0  26 10.5638 19.0737   1
   0   9  26-22.5399 33.1739   1
  -9   0  27 242.154 72.8242   1
   0   9  27 252.127 68.7142   1
  -9   0  28-29.0409 29.4764   1
   0   9  28-21.2719 27.3429   1
  -9   0  29 55.3158 27.5049   1
   0   9  29 121.572 45.6166   1
   0   9  30-18.8235 26.5473   1
  -9   0  30-29.9841 25.3049   1
   0   9  31 5.70805 15.2343   1
  -9   0  31 44.5444 40.9769   1
   0   9  32-5.87839 23.6910   1
  -9   0  32-3.57412 21.0888   1
   0   9  33 72.2964 46.3136   1
  -9   0  33 48.7451 44.0587   1
   0   9  34-51.4518 43.5336   1
  -9   0  34-34.3860 36.9703   1
  -9   0  35 87.4114 54.8024   1
   0   9  35 35.0947 38.8033   1
   0   9  36 4.69838 18.7105   1
  -9   0  36 2.86921 16.7003   1
   0   9  37 100.584 50.2753   1
  -9   0  37 40.9181 30.9279   1
  -9   0  38-33.9697 32.3890   1
   0   9  38 52.6316 41.2677   1
  -9   0  39 16.3476 32.3549   1
   0   9  39 43.5341 42.5487   1
  -9   0  40 37.1744 25.2060   1
   0   9  40-2.57412 24.3808   1
   0   9  41 40.9147 28.2072   1
  -9   0  41 142.388 64.4420   1
  -9   0  42 36.9729 45.6030   1
   0   9  42 110.600 59.3968   1
  -9   0  43 57.1404 41.7191   1
   0   9  43 48.6445 29.2513   1
  -9   0  44-141.436 61.9245   1
   0   9  44 15.8385 42.9136   1
   0   9  45 166.456 78.3084   1
  -9   0  45 38.0876 38.3592   1
  -9   0  46-57.0683 41.8738   1
   0   9  46-25.8981 42.8333   1
   0   9  47 30.8454 37.6221   1
  -9   0  47 22.2314 39.7847   1
  -9   0  48 85.4852 59.9550   1
   1  -9   0 26.4929 8.56407   1
  -1   9   0 36.4012 11.4169   1
   1  -9  -1 46.8935 14.8834   1
  -1   9   1 71.9259 17.0142   1
   1  -9   1 35.1352 11.5196   1
   1  -9  -2 126.538 25.2111   1
  -1   9   2 125.359 25.3610   1
  -1   9   3-5.06245 12.4121   1
   1  -9  -3 8.19104 7.92392   1
  -1   9   4 34.3648 9.60822   1
   1  -9  -4 59.9030 17.5681   1
   1  -9  -5 51.6037 15.8624   1
  -1   9   5 28.9749 10.7812   1
   1  -9  -6 42.9571 22.3632   1
  -1   9   6 42.1488 18.7320   1
   1  -9  -7 34.2148 19.6816   1
  -1   9   7 60.7283 21.2258   1
   1  -9  -8 23.0421 11.3668   1
  -1   9   8 20.4420 13.1112   1
  -9  -1   8 19.1052 30.2282   1
  -9  -1   9 143.578 50.0621   1
   1  -9  -9 77.6302 30.5297   1
  -1   9   9 111.451 29.6457   1
  -9  -1  10 61.1216 35.5055   1
   1  -9 -10 45.0047 18.7641   1
  -1   9  10 95.3339 28.6777   1
  -9  -1  11 19.5761 13.1089   1
   1  -9 -11 4.52906 11.4403   1
  -1   9  11 12.8602 11.8345   1
  -9  -1  12 40.0689 33.3891   1
   1  -9 -12 35.6405 23.9396   1
  -1   9  12 50.4713 25.9793   1
  -9  -1  13 32.2902 28.5747   1
  -1   9  13 53.1663 27.8391   1
  -9  -1  14 52.0423 38.6333   1
  -1   9  14 53.8743 27.4871   1
  -9  -1  15 4.71187 20.4077   1
  -1   9  15 29.0428 25.1457   1
  -9  -1  16-11.1635 15.4026   1
  -1   9  16 36.1396 19.2582   1
  -9  -1  17 26.8019 25.5365   1
  -1   9  17 92.7608 37.4752   1
  -9  -1  18 74.9678 33.9009   1
  -1   9  18 66.7523 32.9237   1
  -9  -1  19-13.4129 12.7682   1
  -1   9  19-8.92622 22.7220   1
  -9  -1  20 1.59674 15.9115   1
  -1   9  20 9.28827 20.9458   1
  -9  -1  21 89.1127 44.7267   1
  -1   9  21 129.137 45.7592   1
  -9  -1  22 26.1789 30.5759   1
  -1   9  22 66.1012 32.9066   1
  -9  -1  23 43.3669 36.4643   1
  -1   9  23 11.0311 19.5695   1
  -9  -1  24 58.8885 46.4459   1
  -1   9  24-11.6254 24.7235   1
  -1   9  25 161.441 53.1842   1
  -9  -1  25 154.533 58.1908   1
  -9  -1  26 14.8085 25.5464   1
  -1   9  26 42.8678 31.7079   1
  -9  -1  27 96.9150 48.0275   1
  -1   9  27 65.4896 33.0806   1
  -1   9  28 26.5005 26.7205   1
  -9  -1  28-1.23798 19.6786   1
  -1   9  29 79.8970 40.7345   1
  -9  -1  29-20.7784 28.6267   1
  -1   9  30 36.1322 38.6812   1
  -9  -1  30-37.4964 31.5780   1
  -1   9  31 76.9237 48.4606   1
  -9  -1  31-12.1593 19.1546   1
  -1   9  32-46.2629 35.3507   1
  -9  -1  32-18.6053 25.8251   1
  -1   9  33 74.9595 35.8600   1
  -9  -1  33 44.5371 38.3665   1
  -1   9  34-23.6377 29.0644   1
  -9  -1  34 15.1991 17.8729   1
  -1   9  35 102.955 51.0100   1
  -9  -1  35 58.6699 37.2475   1
  -1   9  36 19.3930 29.7923   1
  -9  -1  36-25.7895 25.0539   1
  -1   9  37 69.0452 37.8207   1
  -9  -1  37-11.6001 27.3595   1
  -9  -1  38-34.4280 42.6625   1
  -1   9  38-123.154 56.3176   1
  -9  -1  39 62.5492 48.1033   1
  -1   9  39 67.5402 38.7132   1
  -9  -1  40 0.79672 33.8362   1
  -1   9  40-29.4692 31.0843   1
  -9  -1  41 41.7275 24.5504   1
  -1   9  41 28.1300 20.3311   1
  -9  -1  42-18.6896 27.2220   1
  -1   9  42 6.25367 32.2629   1
  -1   9  43 41.0042 37.3566   1
  -9  -1  43 78.6114 50.9937   1
  -1   9  44-5.86473 35.7857   1
  -9  -1  44 31.1550 19.3816   1
  -9  -1  45 15.2596 33.6000   1
  -1   9  45 62.0885 36.9508   1
  -9  -1  46 52.2903 55.2177   1
  -1   9  46 2.00453 21.0080   1
  -9  -1  47 30.6716 47.3847   1
  -1   9  47 11.7089 31.0231   1
  -9  -1  48-21.0814 37.6686   1
  -9  -1  49-20.8163 20.1576   1
  -2   9   0 279.854 34.3320   1
  -2   9  -1 18.9017 9.58545   1
   2  -9  -1 44.4952 13.5225   1
  -2   9   1 26.1473 11.5964   1
  -2   9   2 20.4937 14.6414   1
   2  -9  -2 4.75036 7.57019   1
  -2   9  -2-1.43644 7.31200   1
  -2   9  -3 3.21173 3.77775   1
   2  -9  -3 27.1886 12.9045   1
  -2   9   3 10.9682 9.96349   1
   2  -9  -4 101.614 24.9746   1
  -2   9  -4 107.093 17.0726   1
  -2   9   4 128.140 27.3490   1
   2  -9  -5 29.6334 14.8950   1
  -2   9  -5 15.4502 6.53233   1
  -2   9   5 15.2953 14.9296   1
   2  -9  -6 10.7154 8.29454   1
  -2   9   6 30.2710 19.4245   1
   2  -9  -7 32.5923 12.9413   1
  -2   9   7 15.5291 11.1631   1
   2  -9  -8 115.544 32.8146   1
  -9  -2   8 95.1127 40.2047   1
  -2   9   8 92.0554 32.6279   1
   2  -9  -9 29.1382 16.0389   1
  -2   9   9 10.4251 12.0563   1
  -9  -2   9 13.6171 21.6285   1
  -2   9  10 19.7316 21.8942   1
   2  -9 -10-1.68356 14.3093   1
  -9  -2  10 28.2346 27.7735   1
  -2   9  11 47.2853 24.5131   1
  -9  -2  11 42.1588 31.5602   1
   2  -9 -11 6.60518 14.3555   1
  -2   9  12 200.744 44.6693   1
  -9  -2  12 160.712 51.7842   1
  -9  -2  13 25.2170 25.4189   1
  -2   9  13 32.3582 16.8215   1
  -2   9  14 56.0249 28.9610   1
  -9  -2  14 27.4422 19.3725   1
  -2   9  15 57.4233 30.8226   1
  -9  -2  15 28.5394 28.0893   1
  -2   9  16 131.698 37.2448   1
  -9  -2  16 89.9333 42.5245   1
  -2   9  17-26.5577 18.8430   1
  -9  -2  17 23.0327 24.8052   1
  -2   9  18 13.2054 11.1763   1
  -9  -2  18 43.2644 25.7702   1
  -2   9  19 3.40854 12.4043   1
  -9  -2  19 15.2563 19.9761   1
  -2   9  20 68.4776 35.9195   1
  -9  -2  20-21.7159 36.1342   1
  -2   9  21 29.5793 22.9800   1
  -9  -2  21-14.2842 22.3429   1
  -2   9  22 16.2031 22.5165   1
  -2   9 -22 12.6003 6.16016   1
  -9  -2  22-12.8217 20.1085   1
  -2   9  23 6.98902 16.9326   1
  -9  -2  23 19.0417 19.3685   1
  -2   9  24-5.52688 15.8261   1
  -9  -2  24 29.0167 31.0402   1
  -2   9  25 28.0618 27.8356   1
  -9  -2  25-19.2475 26.4817   1
  -2   9  26 20.6527 24.5767   1
  -9  -2  26-9.10195 26.8825   1
  -2   9  27 13.3918 23.6472   1
  -9  -2  27 44.8031 31.1700   1
  -2   9  28-19.4249 26.9428   1
  -9  -2  28-0.70349 15.5448   1
  -2   9  29 42.3413 36.2469   1
  -9  -2  29 79.9577 49.8870   1
  -2   9  30 24.1474 34.4061   1
  -9  -2  30 25.7323 31.9079   1
  -2   9  31 29.9183 28.4050   1
  -9  -2  31 22.0506 38.1253   1
  -2   9  32 26.3246 14.2522   1
  -9  -2  32 31.0076 41.2450   1
  -2   9  33 10.3092 15.3159   1
  -9  -2  33-4.74529 15.9565   1
  -2   9  34 2.84461 18.0903   1
  -9  -2  34-40.9347 22.3738   1
  -2   9  35-38.3231 46.5601   1
  -9  -2  35 30.3568 23.5678   1
  -2   9  36-36.7714 43.8775   1
  -9  -2  36-7.46845 28.9573   1
  -2   9  37 18.8097 29.6629   1
  -9  -2  37 43.4215 35.8955   1
  -9  -2  38 44.8276 36.9963   1
  -2   9  38 9.80392 16.6839   1
  -2   9  39 26.3931 37.1984   1
  -9  -2  39 31.3198 21.9921   1
  -9  -2  40 25.5882 25.9848   1
  -2   9  40 88.3108 54.6549   1
  -9  -2  41 10.6995 20.3725   1
  -2   9  41-55.1146 44.8144   1
  -9  -2  42 13.1593 22.0006   1
  -2   9  42 76.4270 58.4433   1
  -9  -2  43-1.13848 22.3675   1
  -2   9  43 19.5967 28.7425   1
  -9  -2  44-11.1824 39.7386   1
  -2   9  44 27.0160 36.3954   1
  -9  -2  45-30.8401 34.7334   1
  -2   9  45-40.6540 31.2998   1
  -9  -2  46-23.7528 34.1804   1
  -2   9  46 16.5643 43.1593   1
  -9  -2  47 65.5310 63.0588   1
  -9  -2  48-68.3304 54.9301   1
  -9  -2  49-2.88220 33.0288   1
  -3   9   0 23.2325 15.5632   1
  -3   9  -1 6.88867 6.37588   1
  -3   9   1 17.5372 7.93833   1
  -3   9  -2 196.120 31.6438   1
  -3   9   2 176.458 32.1148   1
  -3   9  -3-9.67273 10.3008   1
  -3   9   3-16.7264 15.8654   1
  -3   9  -4-0.41133 5.89397   1
  -3   9   4-2.05444 8.24354   1
   3  -9  -4-15.3012 10.8059   1
   3  -9  -5 22.9234 22.1993   1
  -3   9  -5 28.0572 10.5257   1
  -3   9   5 41.2231 16.7732   1
   3  -9  -6 141.953 33.1219   1
  -3   9   6 135.469 31.7092   1
  -3   9  -6 132.874 21.4005   1
  -3   9  -7 4.29480 5.67132   1
   3  -9  -7 2.45626 8.29700   1
  -3   9   7 17.1127 9.39887   1
   3  -9  -8-12.7596 17.8654   1
  -3   9   8-11.6817 8.59140   1
  -3   9  -8 0.70574 4.30293   1
   3  -9  -9 25.8621 19.1854   1
  -3   9   9 7.87236 17.4884   1
  -9  -3   9 10.6577 30.7155   1
  -3   9  -9 16.4761 6.32059   1
  -9  -3  10 201.632 59.5926   1
  -3   9 -10 132.370 16.3266   1
   3  -9 -10 179.927 41.6056   1
  -3   9  10 214.730 49.1129   1
  -9  -3  11 22.5147 24.4474   1
  -3   9 -11 6.80798 4.88118   1
  -3   9  11-5.32020 13.9941   1
  -3   9 -11 15.6894 5.62686   1
  -9  -3  12 19.8002 13.6414   1
  -3   9  12-12.9859 21.0344   1
  -9  -3  13 1.88352 15.8853   1
  -3   9  13 1.24027 15.4178   1
  -9  -3  14 182.361 57.5930   1
  -3   9  14 195.209 47.6301   1
  -9  -3  15-8.49403 22.4640   1
  -3   9  15 23.7114 25.6621   1
  -9  -3  16 5.16152 18.7431   1
  -3   9 -16 11.2649 5.47798   1
  -3   9 -16 10.6335 4.53914   1
  -3   9  16 42.9194 24.0502   1
  -3   9 -17 10.4115 5.53631   1
  -3   9  17 27.9627 24.7970   1
  -9  -3  17 61.6862 38.6186   1
  -3   9 -18 19.4690 7.11549   1
  -3   9 -18 21.8328 8.46953   1
  -9  -3  18 35.3511 27.3232   1
  -3   9  18 19.4441 21.4833   1
  -3   9 -19 6.36880 3.06340   1
  -9  -3  19 41.8325 29.4646   1
  -3   9  19 6.58485 11.4514   1
  -3   9 -20 12.2365 7.68589   1
  -9  -3  20 32.7181 23.7251   1
  -3   9  20-29.5031 24.0181   1
  -3   9 -21 19.0383 7.45038   1
  -9  -3  21 22.6295 26.6005   1
  -3   9  21 52.0564 30.1745   1
  -9  -3  22 15.8947 21.7084   1
  -3   9  22 58.8344 35.1776   1
  -9  -3  23-0.02862 27.1137   1
  -3   9  23 16.8390 26.0501   1
  -9  -3  24-3.58379 21.0889   1
  -3   9  24 21.7962 20.7156   1
  -3   9  25-13.3751 28.7546   1
  -9  -3  25 30.1767 23.9195   1
  -9  -3  26 26.9954 30.6847   1
  -3   9  26 36.7356 23.7765   1
  -3   9  27 25.6198 25.2021   1
  -9  -3  27 50.7743 40.8018   1
  -9  -3  28 59.8691 42.0091   1
  -3   9  28 52.9419 27.3826   1
  -3   9  29 8.10996 23.2164   1
  -9  -3  29 65.8607 39.5606   1
  -3   9  30 26.1527 27.1238   1
  -9  -3  30-9.67242 20.3487   1
  -3   9  31 8.58832 33.3430   1
  -9  -3  31 35.1421 33.6357   1
  -3   9  32 20.2662 25.6826   1
  -9  -3  32-37.9400 25.0507   1
  -3   9  33 23.6928 37.4190   1
  -9  -3  33 3.47327 24.5180   1
  -3   9  34-2.93572 16.2979   1
  -9  -3  34 51.0252 44.6900   1
  -3   9  35-5.56869 28.6272   1
  -9  -3  35 7.71167 14.3396   1
  -3   9  36-50.2877 26.4326   1
  -9  -3  36-10.5368 27.8602   1
  -9  -3  37 28.5820 34.7324   1
  -3   9  37-1.99864 25.8590   1
  -9  -3  38-70.4915 37.4416   1
  -3   9  38-53.4290 45.3080   1
  -9  -3  39-19.6145 27.3111   1
  -3   9  39-10.0986 20.7036   1
  -9  -3  40 41.5575 37.1540   1
  -3   9  40 24.5584 30.1446   1
  -9  -3  41 24.9839 45.0497   1
  -3   9  41-11.3516 26.3544   1
  -9  -3  42 6.71557 33.1234   1
  -3   9  42-28.9395 32.2999   1
  -9  -3  43-29.7951 38.2272   1
  -3   9  43 20.0172 34.0432   1
  -9  -3  44-6.17389 23.2312   1
  -3   9  44 52.1935 44.8750   1
  -9  -3  45 14.1313 39.3265   1
  -3   9  45-71.6598 57.9069   1
  -3   9  46 11.5105 18.9561   1
  -9  -3  46-61.7900 52.1762   1
  -9  -3  47 18.1408 45.9255   1
  -9  -3  48 57.8524 50.3941   1
  -9  -3  49 78.5060 45.0081   1
  -9  -3  50 18.6074 20.4762   1
  -4   9   0 70.3806 23.2694   1
  -4   9  -1 3.61333 12.9348   1
  -4   9   1 50.0356 17.8795   1
  -4   9  -2 9.71689 14.9697   1
  -4   9   2 16.3873 12.1609   1
  -4   9  -3-11.4161 11.2943   1
  -4   9   3 8.62175 10.1774   1
  -4   9   4 152.371 34.7723   1
  -4   9  -4 142.022 25.8521   1
  -4   9  -5 4.50479 9.04703   1
  -4   9   5 12.2170 12.4764   1
  -4   9   6 4.10671 17.0442   1
  -4   9  -6 28.7993 12.8103   1
   4  -9  -6 29.8772 17.2640   1
   4  -9  -7 34.2793 19.9019   1
  -4   9   7 2.42422 9.02131   1
  -4   9  -7 16.3303 10.2488   1
   4  -9  -8 160.199 38.4046   1
  -4   9   8 140.626 38.9713   1
  -4   9  -8 114.780 23.5590   1
  -4   9  -9 2.70281 5.21822   1
  -4   9   9 3.69770 15.5031   1
  -4   9  10 63.3794 29.0572   1
  -4   9 -10 44.1937 13.9512   1
  -9  -4  10 55.7066 34.9752   1
  -9  -4  11 24.7468 30.8508   1
  -4   9  11 33.6426 18.1053   1
  -4   9 -11 18.8828 10.6366   1
  -4   9 -12 59.8240 15.0927   1
  -4   9  12 82.3437 34.2198   1
  -9  -4  12 26.4561 14.0868   1
  -9  -4  13 31.7435 25.1176   1
  -4   9 -13 42.2031 13.3216   1
  -4   9  13 65.7575 26.5209   1
  -9  -4  14 1.34399 15.1589   1
  -4   9 -14 19.6440 4.61296   1
  -4   9  14-6.71800 18.5640   1
  -4   9 -15 12.4687 7.63470   1
  -9  -4  15 49.4603 30.1633   1
  -4   9  15-11.8584 20.1055   1
  -4   9 -15-0.61019 6.47700   1
  -4   9 -16 46.2339 14.3984   1
  -4   9 -16 56.8014 15.3325   1
  -9  -4  16 91.3233 36.8925   1
  -4   9  16 26.6289 19.0146   1
  -9  -4  17-32.5246 29.0854   1
  -4   9  17 32.7874 20.7959   1
  -4   9 -17 11.3907 6.47308   1
  -4   9 -17 23.2301 13.3925   1
  -9  -4  18 52.1818 38.4697   1
  -4   9 -18 36.5969 12.2290   1
  -4   9  18 22.1980 18.4210   1
  -4   9 -19 5.70639 8.30619   1
  -9  -4  19 17.4016 26.3272   1
  -4   9  19-11.4781 24.6988   1
  -9  -4  20 35.8042 27.1262   1
  -4   9  20 68.6249 32.0324   1
  -9  -4  21 21.4013 25.1949   1
  -4   9  21 29.3864 30.3912   1
  -9  -4  22 11.8722 20.0643   1
  -4   9  22 40.0366 26.5279   1
  -9  -4  23 45.4918 38.3269   1
  -4   9  23-11.4730 31.1450   1
  -9  -4  24 43.2367 37.1478   1
  -4   9  24 60.4256 27.4680   1
  -9  -4  25 13.8119 12.6418   1
  -4   9  25-2.46553 29.8351   1
  -9  -4  26-74.6895 36.9258   1
  -4   9  26 17.6458 28.0709   1
  -9  -4  27-15.7495 18.8766   1
  -4   9  27 33.4868 24.6699   1
  -9  -4  28-8.20978 20.0358   1
  -4   9  28 2.62244 25.5656   1
  -9  -4  29 45.8395 35.5089   1
  -4   9  29 67.3945 39.3532   1
  -4   9  30-1.00522 20.6207   1
  -9  -4  30 3.56094 27.3873   1
  -9  -4  31-16.5239 28.7819   1
  -4   9  31 21.1267 30.2427   1
  -4   9  32 24.1602 22.1751   1
  -9  -4  32 2.03626 22.7075   1
  -4   9  33 102.390 48.9858   1
  -9  -4  33 36.4127 28.2976   1
  -4   9  34 48.7308 42.7675   1
  -9  -4  34 9.90767 23.0604   1
  -4   9  35-42.8137 41.4672   1
  -9  -4  35 46.5564 35.9465   1
  -4   9  36 1.17993 20.1404   1
  -9  -4  36-8.47691 29.8784   1
  -4   9  37 16.8250 31.2503   1
  -9  -4  37 11.0590 17.0453   1
  -9  -4  38-32.7810 23.5615   1
  -4   9  38-59.9168 46.3239   1
  -9  -4  39 54.1061 27.7268   1
  -4   9  39-46.8235 39.6431   1
  -4   9  40 16.6641 30.0650   1
  -9  -4  40 40.6811 52.0605   1
  -9  -4  41 68.5291 37.5263   1
  -4   9  41 24.9312 30.5003   1
  -9  -4  42 71.8715 47.7801   1
  -4   9  42-13.5327 33.0482   1
  -9  -4  43-20.5085 15.5787   1
  -4   9  43-8.62991 34.3973   1
  -9  -4  44-64.7967 54.2417   1
  -4   9  44 8.69144 24.3043   1
  -9  -4  45 89.7340 51.7804   1
  -4   9  45 26.4499 44.5093   1
  -9  -4  46 39.9609 23.5908   1
  -9  -4  47-29.2189 20.0573   1
  -9  -4  48 35.8295 30.0117   1
  -9  -4  49-4.70189 16.6645   1
  -9  -4  50-1.93874 38.5104   1
  -5   9   0 16.3913 17.8585   1
  -5   9  -1-12.6697 19.2879   1
  -5   9   1 32.1147 26.6079   1
  -5   9  -2-3.11503 12.1378   1
  -5   9   2-9.21261 19.7651   1
  -5   9  -3 13.7940 9.89024   1
  -5   9   3 7.14055 13.1199   1
  -5   9  -4 46.2156 19.1810   1
  -5   9   4 41.1533 15.7225   1
  -5   9  -5 30.9030 12.4349   1
  -5   9   5 8.56675 13.2941   1
  -5   9  -6 112.954 29.1225   1
  -5   9   6 80.6230 27.9645   1
  -5   9   7 19.0442 24.1100   1
  -5   9  -7-10.6446 12.8587   1
  -5   9  -8 53.4708 13.2034   1
  -5   9   8 68.7972 29.8140   1
  -5   9  -9 44.3214 21.6395   1
  -5   9   9-17.1378 23.4197   1
  -5   9  10 8.61993 13.8604   1
  -5   9 -10 11.6271 11.9751   1
  -9  -5  10 0.07221 20.3799   1
  -9  -5  11-4.93682 23.6681   1
  -5   9  11 8.57869 18.8003   1
  -5   9 -11 26.9188 14.6914   1
  -9  -5  12 22.3361 21.4328   1
  -5   9  12 12.2498 19.5926   1
  -5   9 -12 34.2359 16.4939   1
  -9  -5  13 53.8945 38.8955   1
  -5   9  13 35.9695 22.7003   1
  -5   9 -13 25.1094 10.9980   1
  -5   9 -14 37.3840 16.3838   1
  -9  -5  14 64.7536 40.8601   1
  -5   9  14 91.6761 39.5584   1
  -9  -5  15 37.5598 33.6351   1
  -5   9  15 20.7136 11.5004   1
  -5   9 -15 19.5057 13.6050   1
  -9  -5  16-8.71223 17.1868   1
  -5   9  16-3.52850 23.1194   1
  -5   9 -16 28.3862 17.6020   1
  -9  -5  17 33.7402 30.6926   1
  -5   9  17 16.4454 16.6125   1
  -9  -5  18 1.29277 14.3842   1
  -5   9  18 37.0826 25.4549   1
  -9  -5  19 47.5689 29.7743   1
  -5   9  19 60.4810 37.1171   1
  -9  -5  20 49.4775 37.1521   1
  -5   9  20-7.35685 14.9846   1
  -9  -5  21 24.1167 16.6779   1
  -5   9  21 25.3870 22.3121   1
  -9  -5  22 32.3918 24.5181   1
  -5   9  22 1.99205 26.0524   1
  -9  -5  23 55.0869 29.6238   1
  -5   9  23 44.1090 21.8964   1
  -9  -5  24 6.63935 17.0500   1
  -5   9  24-11.1814 28.4120   1
  -9  -5  25 35.1423 30.5169   1
  -5   9  25 70.7398 33.1391   1
  -9  -5  26 24.5315 26.4306   1
  -5   9  26 6.97437 18.7101   1
  -9  -5  27 36.5227 31.9889   1
  -5   9  27 87.4641 43.0737   1
  -9  -5  28-12.2774 29.6021   1
  -5   9  28 15.9531 23.9830   1
  -9  -5  29 50.6824 31.5739   1
  -5   9  29 46.9846 41.6424   1
  -9  -5  30 13.5350 29.0789   1
  -5   9  30 10.4613 25.7549   1
  -9  -5  31 69.0889 47.7689   1
  -5   9  31 67.6830 42.3672   1
  -9  -5  32 34.8828 35.3971   1
  -5   9  32-27.2327 34.4151   1
  -9  -5  33 73.0955 45.1426   1
  -5   9  33 65.8350 30.8510   1
  -9  -5  34 12.5988 27.9178   1
  -5   9  34-27.0307 31.9310   1
  -5   9  35 28.9091 17.7056   1
  -9  -5  35 23.5568 30.8022   1
  -5   9  36-22.8930 32.0412   1
  -9  -5  36-9.28991 22.3713   1
  -9  -5  37 30.3633 37.4599   1
  -5   9  37-1.20357 33.4669   1
  -9  -5  38 113.297 49.7625   1
  -5   9  38-32.4706 42.5564   1
  -5   9  39 8.48794 25.9931   1
  -9  -5  39 30.9223 31.4074   1
  -9  -5  40-2.11735 16.0244   1
  -5   9  40 54.2131 44.6662   1
  -9  -5  41 35.6470 21.3743   1
  -5   9  41 85.5732 54.0895   1
  -9  -5  42-0.88273 21.9599   1
  -5   9  42-12.2285 32.1392   1
  -9  -5  43 30.3531 38.1229   1
  -5   9  43 17.7878 42.6892   1
  -9  -5  44 45.2038 39.3610   1
  -5   9  44 18.1077 25.5106   1
  -9  -5  45 2.94536 29.6059   1
  -9  -5  46-39.2573 28.6250   1
  -9  -5  47-40.6449 40.3029   1
  -9  -5  48-16.9724 42.3400   1
  -6   9   0 28.9343 19.7143   1
  -6   9  -1 33.8289 18.1966   1
  -6   9   1-2.35807 12.3937   1
  -6   9  -2 38.9887 24.7433   1
  -6   9   2 41.8211 15.7925   1
  -6   9  -3 51.1590 22.3153   1
  -6   9   3 17.2223 22.8692   1
  -6   9  -4 14.5989 17.9432   1
  -6   9   4 26.9922 19.2199   1
  -6   9  -5 3.14574 9.75450   1
  -6   9   5 10.4657 24.7760   1
  -6   9  -6 16.0784 10.8475   1
  -6   9   6 12.9406 23.5313   1
  -6   9  -7-37.8523 20.6777   1
  -6   9   7 17.7488 16.2923   1
  -6   9  -8 22.9064 12.0785   1
  -6   9   8 44.6725 31.6544   1
  -6   9  -9 9.27066 8.28107   1
  -6   9   9 40.9415 22.5547   1
  -6   9 -10 22.2668 20.0771   1
  -6   9  10 16.9089 22.4593   1
  -9  -6  10 26.6198 21.8498   1
  -6   9 -11-37.1566 22.8167   1
  -6   9  11-38.5832 26.1714   1
  -9  -6  11 25.9024 19.7169   1
  -9  -6  12-5.25034 14.3607   1
  -6   9 -12-3.56149 9.08323   1
  -6   9  12 56.9276 29.9787   1
  -6   9 -13 18.5154 20.3145   1
  -9  -6  13 51.6510 34.3324   1
  -6   9  13-12.3072 18.4637   1
  -6   9  14 41.2613 31.1114   1
  -9  -6  14 38.6714 30.9972   1
  -6   9 -14 59.2758 24.6715   1
  -6   9  15 22.9177 21.5636   1
  -9  -6  15-16.2659 18.6351   1
  -6   9 -15 32.4821 22.7166   1
  -6   9  16 50.3668 37.4821   1
  -9  -6  16 46.3643 25.7777   1
  -9  -6  17 40.5564 32.1950   1
  -6   9  17-32.8663 29.2544   1
  -6   9  18-19.7000 17.7940   1
  -9  -6  18-11.2879 20.9166   1
  -6   9  19 38.6498 20.5478   1
  -9  -6  19 38.4638 29.8786   1
  -6   9  20-23.8340 25.9192   1
  -9  -6  20-13.8505 17.8358   1
  -6   9  21 63.8011 39.5997   1
  -9  -6  21 63.8094 44.1965   1
  -6   9  22 12.2786 26.2502   1
  -9  -6  22 39.3176 41.2546   1
  -6   9  23-5.67596 21.8156   1
  -9  -6  23 49.1846 32.2068   1
  -6   9  24 12.0711 21.9418   1
  -9  -6  24-3.83607 13.1402   1
  -6   9  25 94.4179 43.6867   1
  -9  -6  25 68.1627 35.6002   1
  -6   9  26-14.8477 19.7188   1
  -9  -6  26 25.1313 27.5070   1
  -6   9  27-17.3541 32.0799   1
  -9  -6  27 0.81808 16.6042   1
  -6   9  28-22.2598 31.9781   1
  -9  -6  28-49.0335 31.9051   1
  -6   9  29 55.2423 47.7098   1
  -9  -6  29 45.8364 35.5729   1
  -6   9  30-1.65055 33.4322   1
  -9  -6  30-14.4005 19.8919   1
  -6   9  31 87.1834 51.0811   1
  -9  -6  31 68.3347 45.3251   1
  -6   9  32 10.1703 24.3098   1
  -9  -6  32-8.58162 20.5722   1
  -6   9  33 53.7305 38.8333   1
  -9  -6  33 59.3141 38.0502   1
  -6   9  34 18.7521 36.9536   1
  -9  -6  34 27.9609 27.0451   1
  -6   9  35 13.2317 30.5953   1
  -9  -6  35 16.2277 17.1057   1
  -6   9  36-8.90539 26.4504   1
  -9  -6  36-14.6141 31.6764   1
  -9  -6  37-23.8127 32.8165   1
  -6   9  37 124.973 62.8251   1
  -9  -6  38-24.6573 31.3806   1
  -6   9  38 3.87234 21.8687   1
  -9  -6  39 9.19617 18.5862   1
  -6   9  39 88.3854 48.7008   1
  -9  -6  40-1.50152 16.4614   1
  -6   9  40-7.16152 27.5975   1
  -9  -6  41 48.3829 37.9460   1
  -6   9  41 52.2836 32.4971   1
  -6   9  42-25.3002 26.4101   1
  -9  -6  42 17.9051 26.9760   1
  -6   9  43 38.8776 42.2594   1
  -9  -6  43 46.3190 25.9420   1
  -9  -6  44-4.64122 16.0928   1
  -7   9   0 91.7177 37.3979   1
  -7   9  -1 53.1492 31.8987   1
  -7   9   1 10.8604 14.4705   1
  -7   9  -2 58.1932 29.7852   1
  -7   9   2 35.2826 25.1060   1
  -7   9  -3-10.4230 15.3421   1
  -7   9   3 14.3345 14.9266   1
  -7   9  -4 14.4858 10.6361   1
  -7   9   4 5.63518 13.3499   1
  -7   9  -5 4.62793 19.2799   1
  -7   9   5-5.39865 24.7354   1
  -7   9  -6 172.766 46.5762   1
  -7   9   6 92.2249 37.5444   1
  -7   9  -7-12.4332 11.5162   1
  -7   9   7 11.0410 11.9391   1
  -7   9  -8 20.5076 28.2785   1
  -7   9   8-13.7519 16.2005   1
  -7   9  -9 37.4137 27.7238   1
  -7   9   9-3.02509 15.3933   1
  -9  -7  10 16.0136 25.6780   1
  -7   9 -10 74.0354 26.8407   1
  -7   9  10 86.1933 40.4913   1
  -9  -7  11 29.2487 21.2576   1
  -7   9 -11-9.83681 18.2064   1
  -7   9  11 16.1994 26.9823   1
  -9  -7  12 0.21830 15.4040   1
  -7   9 -12 15.4857 10.3739   1
  -7   9  12 25.7009 21.5563   1
  -7   9 -13-30.2303 15.2877   1
  -9  -7  13-32.6975 29.6766   1
  -7   9  13 10.4990 27.0788   1
  -9  -7  14 24.5502 20.7466   1
  -7   9  14 29.0232 12.0210   1
  -7   9 -14 43.3360 20.5023   1
  -9  -7  15 32.6064 29.2328   1
  -7   9  15 37.1894 29.1993   1
  -7   9 -15-7.19338 13.5967   1
  -9  -7  16 43.5196 23.6490   1
  -7   9  16-31.8614 26.2343   1
  -9  -7  17 27.7025 21.6484   1
  -7   9  17 43.8081 28.7333   1
  -7   9  18-3.06389 16.9160   1
  -9  -7  18 11.9980 19.8516   1
  -7   9  19 8.12167 17.7025   1
  -9  -7  19-26.7055 26.7572   1
  -7   9  20 31.5281 24.0038   1
  -9  -7  20 20.8020 13.0905   1
  -7   9  21 8.11647 23.6018   1
  -9  -7  21 24.5413 29.7590   1
  -7   9  22 33.4284 35.8043   1
  -9  -7  22 28.9224 30.3899   1
  -7   9  23 100.219 53.6807   1
  -9  -7  23-21.6827 29.0093   1
  -7   9  24-25.9494 22.5515   1
  -9  -7  24-16.8123 17.6483   1
  -7   9  25 13.2736 41.8138   1
  -9  -7  25-29.0928 26.8721   1
  -7   9  26 34.6699 31.9397   1
  -9  -7  26 18.2099 14.8690   1
  -7   9  27 88.6800 45.2055   1
  -9  -7  27 39.3328 23.8041   1
  -7   9  28-25.3685 24.9102   1
  -9  -7  28 59.1657 37.4985   1
  -7   9  29-12.6042 38.3742   1
  -9  -7  29 13.9382 33.5777   1
  -7   9  30-7.55418 23.2385   1
  -9  -7  30 48.8224 38.7491   1
  -7   9  31 2.57789 17.1218   1
  -9  -7  31 47.0409 29.5966   1
  -7   9  32-10.8853 34.8366   1
  -9  -7  32 39.0098 29.8866   1
  -7   9  33-5.82391 20.7765   1
  -9  -7  33 55.6216 44.2604   1
  -9  -7  34 62.1949 45.4744   1
  -7   9  34 48.0708 29.8196   1
  -7   9  35 59.4880 38.1828   1
  -9  -7  35 49.2158 26.2306   1
  -9  -7  36-12.5354 21.5120   1
  -7   9  36 112.914 64.6732   1
  -9  -7  37 2.81752 14.9979   1
  -7   9  37 22.0204 20.3091   1
  -9  -7  38 11.1077 17.0027   1
  -7   9  38 45.9486 47.9630   1
  -7   9  39-27.5870 40.8339   1
  -7   9  40 20.6881 45.1127   1
  -7   9  41-9.31144 28.1214   1
  -8   9   0 11.7081 15.7709   1
  -8   9  -1 13.3188 13.2522   1
  -8   9   1-1.23697 19.6972   1
  -8   9  -2 19.1034 20.6596   1
  -8   9   2-0.43456 17.9377   1
  -8   9  -3 32.9934 29.3304   1
  -8   9   3 14.1979 15.4041   1
  -8   9  -4 84.4502 33.8769   1
  -8   9   4 37.8741 22.4781   1
  -8   9  -5 23.5706 23.5601   1
  -8   9   5 5.81971 21.0313   1
  -8   9  -6-5.06511 15.8311   1
  -8   9   6 1.18158 21.1433   1
  -8   9  -7-1.24002 11.6769   1
  -8   9   7 44.9631 26.4823   1
  -8   9  -8 68.3224 33.6196   1
  -8   9   8 105.401 44.8882   1
  -8   9  -9 30.6257 25.3004   1
  -8   9   9-1.69924 12.6189   1
  -8   9 -10 7.20671 15.8582   1
  -8   9  10-10.6493 22.1045   1
  -9  -8  10 9.48004 21.2465   1
  -9  -8  11 50.5607 33.5798   1
  -8   9 -11-11.5815 15.8976   1
  -8   9  11 1.30832 21.7153   1
  -8   9 -12 99.2676 33.5533   1
  -9  -8  12 96.4249 43.0364   1
  -8   9  12 103.072 46.4895   1
  -8   9 -13 19.0865 33.2309   1
  -9  -8  13 24.9897 25.6497   1
  -8   9  13-32.2579 21.3326   1
  -8   9 -14 36.2333 29.0236   1
  -9  -8  14 27.1289 20.2255   1
  -8   9  14-23.4872 23.3170   1
  -9  -8  15 35.2816 18.1887   1
  -8   9  15 2.07960 17.8522   1
  -8   9 -15 21.8962 26.1353   1
  -9  -8  16 37.3370 18.6296   1
  -8   9  16 121.406 48.5991   1
  -9  -8  17 2.22917 10.8144   1
  -8   9  17-20.2709 28.7600   1
  -9  -8  18 9.53750 19.5086   1
  -8   9  18-13.1706 20.4419   1
  -9  -8  19-17.9870 21.3802   1
  -8   9  19-20.5719 22.2056   1
  -9  -8  20 11.6525 18.3387   1
  -8   9  20-18.7449 30.3921   1
  -8   9  21-15.2994 35.6797   1
  -9  -8  21 36.9309 20.6395   1
  -8   9  22-30.3863 21.5805   1
  -9  -8  22 7.46731 27.6859   1
  -8   9  23 37.4202 30.8112   1
  -9  -8  23 16.1223 30.1642   1
  -8   9  24 14.8702 17.5188   1
  -9  -8  24 13.5601 16.6736   1
  -8   9  25 39.0887 33.9719   1
  -9  -8  25 1.10971 21.5606   1
  -8   9  26-12.4002 25.2443   1
  -9  -8  26 11.9736 21.0763   1
  -8   9  27 17.9910 17.7860   1
  -9  -8  27 18.5969 29.3791   1
  -8   9  28 53.5597 48.0201   1
  -9  -8  28 47.6673 34.5588   1
  -8   9  29 1.78345 24.6912   1
  -9  -8  29-0.17272 25.7676   1
  -8   9  30 23.9936 28.7747   1
  -9  -8  30-5.26868 24.8170   1
  -8   9  31 62.9958 40.5334   1
  -9  -8  31-22.6593 24.1848   1
  -8   9  32-3.46457 28.6493   1
  -8   9  33-49.6688 41.1835   1
  -8   9  34 64.3415 45.7086   1
  -8   9  35 58.7304 46.4850   1
  -8   9  36 49.8590 46.2765   1
  -8   9  37 66.2099 53.1913   1
  -8   9  38-3.01001 32.8012   1
  -8   9  39-13.7629 47.6660   1
  -9   9   0 8.45771 20.8156   1
  -9   9  -1-7.78398 14.4126   1
  -9   9   1 6.63661 23.7644   1
  -9   9  -2 50.4092 24.1376   1
  -9   9   2 99.4891 42.1339   1
  -9   9  -3 11.1535 12.6624   1
  -9   9   3 25.9738 24.8713   1
  -9   9  -4 25.1404 28.3855   1
  -9   9   4 5.23129 16.3139   1
  -9   9  -5 12.8054 30.8774   1
  -9   9   5 55.2703 31.1046   1
  -9   9  -6 102.098 35.8421   1
  -9   9   6 90.4146 43.6811   1
  -9   9  -7 36.8301 34.4524   1
  -9   9   7 16.9769 30.4160   1
  -9   9  -8 4.24533 23.9292   1
  -9   9   8 47.8412 32.2678   1
  -9   9  -9 49.2026 34.4503   1
  -9   9   9 52.1233 34.2376   1
  -9  -9   9 20.4907 25.3217   1
  -9   9 -10 87.3076 40.8739   1
  -9  -9  10 42.3399 28.4109   1
  -9   9  10 63.2334 27.4769   1
  -9  -9  11-42.2248 24.0671   1
  -9   9 -11 27.4509 25.8956   1
  -9   9  11-58.7739 36.8498   1
  -9  -9  12 14.6287 15.9652   1
  -9   9 -12 36.0915 32.5998   1
  -9   9  12 36.0053 24.7157   1
  -9   9 -13-15.2447 14.9253   1
  -9  -9  13 36.2222 27.2617   1
  -9   9  13 20.9398 23.6990   1
  -9  -9  14 83.8633 39.7404   1
  -9   9  14 67.5157 34.9482   1
  -9   9 -14 35.3767 16.6693   1
  -9  -9  15 40.1315 33.2660   1
  -9   9  15 7.39362 22.2106   1
  -9   9 -15-34.3049 25.1206   1
  -9  -9  16-4.92106 14.1989   1
  -9   9  16-14.0586 30.5242   1
  -9  -9  17 20.6845 24.0279   1
  -9   9  17-3.49236 17.4162   1
  -9  -9  18 83.5104 30.8704   1
  -9   9  18 22.6769 16.7210   1
  -9  -9  19-42.6072 33.0470   1
  -9   9  19 23.4854 28.5627   1
  -9  -9  20 20.1572 14.3257   1
  -9   9  20-30.5965 22.7894   1
  -9  -9  21 23.8051 28.0527   1
  -9   9  21 23.5083 33.2049   1
  -9  -9  22 50.9256 31.6534   1
  -9   9  22-8.20776 29.7939   1
  -9  -9  23-4.38386 14.1670   1
  -9   9  23 11.2961 15.1716   1
  -9   9  24 72.9724 44.3413   1
  -9  -9  24-19.9709 31.8659   1
  -9   9  25 36.5728 29.1179   1
  -9   9  26-18.4655 23.9871   1
  -9   9  27 15.2698 40.9580   1
  -9   9  28-19.6642 21.6829   1
  -9   9  29 85.7476 53.3055   1
  -9   9  30-20.8009 21.9119   1
  -9   9  31-9.07530 46.6339   1
  -9   9  32-16.2018 20.0410   1
  -9   9  33 14.4430 37.8733   1
  -9   9  34-16.8363 26.2068   1
  -9   9  35-56.5102 42.3450   1
  -9   9  36-80.7243 50.8000   1
  -9   9  37 6.37292 34.9974   1
 -10   9   0 56.2094 41.2406   1
 -10   9  -1 10.7814 30.0392   1
 -10   9   1 18.1145 28.3774   1
 -10   9  -2 15.5769 24.9817   1
 -10   9   2-2.33754 21.9653   1
 -10   9  -3-19.4461 23.6918   1
 -10   9   3 10.2828 20.0306   1
 -10   9  -4 43.5922 32.7390   1
 -10   9   4 78.6750 38.3620   1
 -10   9  -5 12.3745 25.3602   1
 -10   9   5-22.6391 19.6672   1
 -10   9  -6-4.61823 15.8382   1
 -10   9   6 53.2985 38.0925   1
 -10   9  -7-6.27597 13.6697   1
 -10   9   7 14.6817 18.5559   1
 -10   9  -8 88.9068 43.4895   1
 -10   9   8-17.7183 24.2730   1
 -10   9  -9 40.9574 40.2323   1
 -10   9   9 5.30817 18.5618   1
  -9 -10   9 21.5347 21.6406   1
  -9 -10  10 43.7115 28.6455   1
 -10   9 -10 26.0531 32.7502   1
 -10   9  10 22.1165 27.8008   1
 -10   9 -11 13.9543 16.4134   1
 -10   9  11 13.7467 30.5050   1
  -9 -10  11-8.07358 14.9006   1
 -10   9 -12 9.22582 18.8062   1
  -9 -10  12 8.19220 18.1381   1
 -10   9  12 99.4494 46.0937   1
 -10   9 -13-39.6803 33.9688   1
  -9 -10  13 20.3357 20.7269   1
 -10   9  13 14.5818 33.3095   1
  -9 -10  14 7.57868 16.4523   1
 -10   9  14-30.9050 23.9652   1
 -10   9 -14-24.6548 25.2634   1
  -9 -10  15-21.3936 26.1611   1
 -10   9  15-7.36946 15.3092   1
 -10   9 -15-15.1845 24.2251   1
  -9 -10  16 22.3740 24.8735   1
 -10   9  16 55.3545 41.2853   1
 -10   9  17-19.5572 20.2169   1
 -10   9  18-6.21771 24.3467   1
 -10   9  19 22.6126 34.8926   1
 -10   9  20 82.6032 50.2122   1
 -10   9  21 45.0042 36.3610   1
 -10   9  22 54.8126 37.3037   1
 -10   9  23 69.2033 43.7265   1
 -10   9  24 16.2549 21.8633   1
 -10   9  25 21.0341 32.6473   1
 -10   9  26 22.4696 25.3047   1
 -10   9  27 17.6483 27.4448   1
 -10   9  28-110.976 57.8387   1
 -10   9  29-31.9462 43.8734   1
 -10   9  30-58.3625 56.4020   1
 -10   9  31-17.6420 39.3991   1
 -10   9  32 64.5191 63.5819   1
 -10   9  33 11.5531 32.5419   1
 -10   9  34-6.86671 18.5843   1
 -10   9  35-78.7452 54.7024   1
 -10   8   0 12.4701 15.5730   1
 -10   8  -1 11.1721 24.8133   1
 -10   8   1 5.94272 16.1128   1
 -10   8  -2 43.5101 36.1483   1
 -10   8   2 32.8940 31.1871   1
 -10   8  -3 18.7671 29.7991   1
 -10   8   3 9.98270 25.0635   1
 -10   8  -4-38.0832 30.2820   1
 -10   8   4 21.7413 21.3384   1
 -10   8  -5 25.2512 26.9652   1
 -10   8   5 7.15963 19.2835   1
 -10   8  -6 58.1528 35.0414   1
 -10   8   6 30.7396 30.5336   1
 -10   8  -7 73.0561 34.5276   1
 -10   8   7 65.7267 42.8548   1
 -10   8   8 39.1979 34.1149   1
 -10   8  -8 9.32061 27.3338   1
 -10   8  -9 21.7990 27.6955   1
 -10   8   9 11.4199 20.5435   1
  -8 -10   9 13.6961 25.9795   1
  -8 -10  10 42.6467 27.3214   1
 -10   8  10 32.0575 28.6605   1
 -10   8 -10 63.5400 36.0736   1
  -8 -10  11 24.9839 19.0028   1
 -10   8  11 8.40270 17.2768   1
 -10   8 -11 20.4046 20.1298   1
  -8 -10  12-11.5306 16.2184   1
 -10   8  12-44.8623 39.4468   1
  -8 -10  13 29.6441 25.6089   1
 -10   8  13-22.1166 26.1274   1
  -8 -10  14 4.35712 12.7529   1
 -10   8  14 40.5241 38.4966   1
  -8 -10  15 23.9454 15.7636   1
 -10   8  15 34.5012 32.2427   1
  -8 -10  16 8.78894 14.6115   1
 -10   8  16-8.18196 14.4890   1
  -8 -10  17 36.9962 28.3264   1
 -10   8  17 42.4052 37.4758   1
 -10   8  18 28.3396 23.4223   1
 -10   8  19 18.7560 17.7704   1
 -10   8  20 54.8264 35.1151   1
 -10   8  21 106.876 37.8876   1
 -10   8  22-7.36616 35.2226   1
 -10   8  23 7.10938 23.7685   1
 -10   8  24 19.2363 25.3574   1
 -10   8  25 21.9402 36.1742   1
 -10   8  26 37.0725 31.8602   1
 -10   8  27 42.3875 41.7467   1
 -10   8  28 117.638 58.8784   1
 -10   8  29-14.3874 27.5605   1
 -10   8  30-34.9322 51.2986   1
 -10   8  31 50.6159 45.9397   1
 -10   8  32 27.1175 27.9449   1
 -10   8  33 87.7807 44.7885   1
 -10   8  34-19.3644 34.6089   1
 -10   8  35 56.5493 32.5590   1
 -10   8  36-56.4943 56.5441   1
 -10   7   0 35.9680 27.8715   1
 -10   7  -1-17.8639 13.7270   1
 -10   7   1 5.66934 23.1986   1
 -10   7  -2-3.91338 29.3949   1
 -10   7   2 53.9567 37.3119   1
 -10   7  -3-2.05355 16.5562   1
 -10   7   3 35.7692 30.2273   1
 -10   7  -4 7.58286 19.3978   1
 -10   7   4 31.2541 29.0461   1
 -10   7  -5-8.27621 17.8268   1
 -10   7   5 4.94948 21.4865   1
 -10   7   6 23.4909 32.8848   1
 -10   7  -6-32.7117 22.5581   1
 -10   7   7 69.9955 37.4363   1
 -10   7  -7-23.3175 15.5603   1
 -10   7   8 17.1586 22.0469   1
 -10   7  -8 42.6440 31.1662   1
 -10   7   9 38.5054 37.1048   1
  -7 -10   9 15.7019 17.2133   1
  -7 -10  10 29.4325 17.0070   1
 -10   7  10 9.51655 29.8147   1
  -7 -10  11 12.5254 9.01104   1
 -10   7  11-8.15210 13.6964   1
  -7 -10  12 7.82407 19.0180   1
 -10   7  12-6.04806 15.2893   1
  -7 -10  13 2.32874 10.3153   1
 -10   7  13 41.8359 36.9753   1
  -7 -10  14 2.23785 11.9950   1
 -10   7  14 7.85124 28.7558   1
  -7 -10  15-14.8382 19.0006   1
 -10   7  15 11.0190 15.7513   1
  -7 -10  16-18.0919 21.9043   1
 -10   7  16-22.7818 28.3835   1
  -7 -10  17 15.9739 20.6552   1
 -10   7  17 57.1184 33.0370   1
 -10   7  18 12.5082 19.3104   1
 -10   7  19 26.2103 35.1656   1
 -10   7  20-17.9087 34.3653   1
 -10   7  21 50.8864 32.1474   1
 -10   7  22 1.54753 19.9663   1
 -10   7  23 40.2924 27.0571   1
 -10   7  24 44.4962 29.3923   1
 -10   7  25 84.6119 43.0809   1
 -10   7  26-8.90744 26.0111   1
 -10   7  27-21.6810 29.5463   1
 -10   7  28-15.4659 28.8070   1
 -10   7  29 92.3594 57.5603   1
 -10   7  30 37.1557 42.0845   1
 -10   7  31-3.71675 16.9859   1
 -10   7  32 87.9882 50.8195   1
 -10   7  33 44.2328 28.5584   1
 -10   7  34 18.0901 23.1238   1
 -10   7  35 20.5784 38.6091   1
 -10   7  36-13.6778 26.9425   1
 -10   7  37-16.8692 37.8594   1
 -10   7  38 7.80559 28.0883   1
 -10   6   0 121.338 48.1434   1
 -10   6  -1 29.4218 32.4674   1
 -10   6   1-9.49098 16.7922   1
 -10   6  -2 31.5262 27.0965   1
 -10   6   2-4.00913 15.3138   1
 -10   6  -3-0.48245 15.0666   1
 -10   6   3 18.7992 26.8806   1
 -10   6   4 89.8266 44.5681   1
 -10   6  -4 37.0721 28.5609   1
 -10   6  -5 81.5996 43.5107   1
 -10   6   5 91.2652 42.2876   1
 -10   6   6-13.5762 23.0894   1
 -10   6   7 24.0367 13.7690   1
 -10   6   8 53.7350 32.8455   1
 -10   6   9-28.3802 19.2538   1
  -6 -10   9-15.9676 9.82705   1
  -6 -10  10 24.9024 19.4779   1
 -10   6  10 45.5826 33.6787   1
 -10   6  11 25.2755 32.1149   1
  -6 -10  11 32.2504 22.9955   1
  -6 -10  12 73.4281 26.9804   1
 -10   6  12 92.9333 50.5643   1
  -6 -10  13 26.2136 16.0411   1
 -10   6  13 11.8160 15.2219   1
  -6 -10  14 5.55710 12.0585   1
 -10   6  14 26.3742 35.6480   1
  -6 -10  15 29.8933 19.7168   1
 -10   6  15-0.35858 25.1363   1
  -6 -10  16 31.8918 22.6550   1
 -10   6  16-2.81629 27.4199   1
  -6 -10  17-25.6280 20.2825   1
 -10   6  17 13.7110 29.4991   1
 -10   6  18 36.9366 24.7030   1
 -10   6  19 2.89344 17.9594   1
 -10   6  20-29.3403 19.6909   1
 -10   6  21 79.2378 43.9773   1
 -10   6  22 1.54450 17.4315   1
 -10   6  23-13.2955 18.1746   1
 -10   6  24 3.24283 23.8733   1
 -10   6  25-42.6014 49.2648   1
 -10   6  26 50.2639 40.5698   1
 -10   6  27-7.67000 27.7357   1
 -10   6  28 11.8094 36.1490   1
 -10   6  29 84.3983 61.0207   1
 -10   6  30 70.3520 40.8565   1
 -10   6  31 7.45678 25.1457   1
 -10   6  32-26.5911 42.3064   1
 -10   6  33 14.4655 41.5085   1
 -10   6  34 60.9986 51.9554   1
 -10   6  35-9.99912 24.5688   1
 -10   6  36 60.0830 43.3135   1
 -10   6  37 43.4215 40.8884   1
 -10   6  38-29.4248 42.9385   1
 -10   6  39 8.57468 37.9326   1
 -10   5   0 1.02375 19.7645   1
  -5 -10   0 24.6627 19.9586   1
 -10   5   1 24.7171 36.8234   1
  -5 -10   1-0.76113 11.4167   1
  -5 -10  -1 17.3216 11.9147   1
 -10   5  -1-9.32791 13.8235   1
 -10   5   2 62.5450 37.8820   1
  -5 -10   2 80.3581 27.1490   1
 -10   5  -2 42.7092 33.5651   1
 -10   5   3 7.61732 26.2318   1
 -10   5   4-7.65478 23.2325   1
 -10   5   5 26.3705 28.4972   1
 -10   5   6 43.2930 27.8003   1
 -10   5   7-6.83173 17.2574   1
 -10   5   8-21.0791 24.5919   1
  -5 -10   8-18.5990 9.82532   1
  -5 -10   9-15.0967 8.50945   1
 -10   5   9-28.0101 31.1936   1
  -5 -10  10 79.0581 21.8615   1
 -10   5  10 28.0145 21.6928   1
  -5 -10  11-18.8214 16.4557   1
 -10   5  11 25.5374 15.3513   1
  -5 -10  12 15.4694 12.6000   1
 -10   5  12 50.2374 28.5283   1
  -5 -10  13 47.4470 19.4981   1
 -10   5  13 10.2926 24.2603   1
 -10   5  14 12.7066 19.2282   1
  -5 -10  14 29.7301 16.8298   1
 -10   5  15 40.7189 43.1154   1
  -5 -10  15 26.6159 15.5588   1
 -10   5  16-5.37344 16.4324   1
  -5 -10  16 7.06637 10.2844   1
 -10   5  17-7.30383 15.6749   1
  -5 -10  17-11.3991 9.24569   1
 -10   5  18-4.71665 24.7077   1
 -10   5  19 7.07693 21.8768   1
 -10   5  20 32.9899 30.3024   1
 -10   5  21 17.5803 30.4309   1
 -10   5  22 5.91786 27.6299   1
 -10   5  23-9.05729 20.1978   1
 -10   5  24 35.9327 35.9554   1
 -10   5  25 48.3527 41.7115   1
 -10   5  26 24.4408 34.5324   1
 -10   5  27 58.6688 41.1579   1
 -10   5  28 5.45449 30.3229   1
 -10   5  29-12.7561 24.9573   1
 -10   5  30-5.75234 25.5236   1
 -10   5  31 52.1507 38.3554   1
 -10   5  32 43.0819 37.6359   1
 -10   5  33 52.3346 35.4997   1
 -10   5  34-51.2124 44.1500   1
 -10   5  35 30.0257 43.8776   1
 -10   5  36 11.2563 26.7922   1
 -10   5  37 37.0769 34.6113   1
 -10   5  38 7.46652 20.4339   1
 -10   5  39 8.11416 23.1331   1
 -10   5  40 25.5925 32.5495   1
 -10   5  41-20.4079 46.6512   1
  -4 -10   0 30.1250 17.9013   1
 -10   4   0 10.7823 16.1813   1
  -4 -10  -1 3.63311 9.15802   1
  -4 -10   1 17.5454 14.1450   1
 -10   4   1 46.8532 38.6574   1
 -10   4   2 65.8726 34.7405   1
  -4 -10  -2 43.4865 20.8958   1
  -4 -10   2 69.6076 18.8357   1
  -4 -10   3 12.4526 11.5450   1
 -10   4   3-22.5662 26.2372   1
  -4 -10  -3 16.4404 12.9147   1
 -10   4   4 26.8136 21.8888   1
  -4 -10   4 44.6796 17.6856   1
  -4 -10  -4 31.6119 19.2618   1
 -10   4   5 16.2510 15.1147   1
  -4 -10   5-7.56179 11.3697   1
  -4 -10  -5 36.1772 22.8881   1
 -10   4   6-1.64286 17.6778   1
  -4 -10  -6 32.4132 17.7495   1
  -4 -10   6-6.12712 10.2014   1
 -10   4   7-9.47762 21.8937   1
  -4 -10   7-2.97691 9.23328   1
  -4 -10   8 42.3504 12.1921   1
 -10   4   8-15.1793 20.0769   1
  -4 -10   8 49.4243 15.5652   1
  -4 -10   9 30.3214 14.3554   1
 -10   4   9 21.0173 18.2232   1
  -4 -10  10 13.0976 6.76959   1
 -10   4  10-11.5529 17.3597   1
 -10   4  11-13.9406 19.6574   1
  -4 -10  11-7.65209 7.66647   1
 -10   4  12 78.9998 43.0983   1
  -4 -10  12 60.1643 17.1697   1
 -10   4  13-5.23933 19.0170   1
  -4 -10  13 27.8472 10.7305   1
 -10   4  14 26.2392 22.3610   1
  -4 -10  14 27.8191 11.4910   1
 -10   4  15 12.5996 26.3817   1
  -4 -10  15 13.0136 10.8093   1
 -10   4  16 105.338 45.8556   1
  -4 -10  16 64.6013 16.7563   1
 -10   4  17 11.3262 23.4265   1
 -10   4  18 23.2853 26.4925   1
 -10   4  19 54.2687 43.1416   1
 -10   4  20 27.0922 32.5645   1
 -10   4  21 36.9608 24.8577   1
 -10   4  22-4.30824 19.6102   1
 -10   4  23 6.95362 29.5078   1
 -10   4  24-19.8999 27.8213   1
 -10   4  25 20.2327 27.1133   1
 -10   4  26 20.5756 16.2552   1
 -10   4  27 57.2167 43.9906   1
 -10   4  28-65.3204 39.2980   1
 -10   4  29 45.1213 41.7155   1
 -10   4  30-12.1613 26.0894   1
 -10   4  31 42.8818 40.3905   1
 -10   4  32-35.8627 45.0088   1
 -10   4  33-5.34819 24.9811   1
 -10   4  34 63.3465 47.4109   1
 -10   4  35-29.7046 40.4573   1
 -10   4  36-2.70052 33.7146   1
 -10   4  37-36.1399 41.2932   1
 -10   4  38 11.0985 31.4213   1
 -10   4  39 31.4888 28.5081   1
 -10   4  40-50.2186 44.8414   1
 -10   4  41 129.722 63.1797   1
 -10   4  42 55.7719 53.4534   1
  -3 -10   0 116.784 25.6101   1
  -3 -10  -1 10.7894 9.92981   1
  -3 -10   1 13.0475 10.7161   1
  -3 -10  -2-6.71266 7.83501   1
  -3 -10   2 8.91389 10.3643   1
 -10   3   2 13.7866 18.3375   1
  -3 -10  -3 8.26606 15.5140   1
  -3 -10   3 23.6457 12.2138   1
 -10   3   3 5.50828 12.7505   1
 -10   3   4 50.7116 25.9067   1
  -3 -10  -4 70.6283 23.4821   1
  -3 -10   4 72.4692 17.5076   1
 -10   3   5 37.5745 29.6273   1
  -3 -10  -5 4.74351 11.8325   1
  -3 -10   5 13.2131 6.08037   1
 -10   3   6-17.0337 22.5221   1
  -3 -10  -6 19.8663 19.2313   1
  -3 -10   6 13.8606 6.45509   1
  -3 -10   7 19.4343 7.94151   1
 -10   3   7 4.02002 19.8394   1
  -3 -10  -7 1.40348 7.38096   1
  -3 -10   7 14.5410 8.26466   1
 -10   3   8 41.1587 28.3670   1
  -3 -10   8 13.7997 6.40991   1
  -3 -10  -8 25.2560 19.0269   1
  -3 -10   8 28.0201 8.12985   1
 -10   3   9 22.8081 28.1812   1
  -3 -10   9 6.28859 4.62624   1
  -3 -10   9 8.18001 2.94496   1
 -10   3  10-12.3640 27.2878   1
 -10   3  11 52.3133 38.1990   1
 -10   3  12 73.6911 44.9906   1
 -10   3  13 68.9984 44.0106   1
 -10   3  14 11.6954 15.1793   1
 -10   3  15 36.2684 30.9752   1
 -10   3  16 61.3356 32.2898   1
 -10   3  17 0.06304 19.0500   1
 -10   3  18 75.3579 47.1921   1
 -10   3  19 9.01692 20.1042   1
 -10   3  20-32.1395 39.8522   1
 -10   3  21 28.4497 34.4038   1
 -10   3  22 9.90070 23.4855   1
 -10   3  23-3.45212 21.6534   1
 -10   3  24 22.5441 27.3682   1
 -10   3  25-2.92864 32.9623   1
 -10   3  26 13.7378 15.0489   1
 -10   3  27 47.3955 38.1067   1
 -10   3  28-33.3092 40.4136   1
 -10   3  29 12.1227 30.3550   1
 -10   3  30 120.563 61.4209   1
 -10   3  31 34.1145 19.9437   1
 -10   3  32-17.7655 29.9876   1
 -10   3  33 15.9692 38.0513   1
 -10   3  34 56.3837 48.1648   1
 -10   3  35-55.1021 42.4124   1
 -10   3  36 2.99607 21.2203   1
 -10   3  37 95.0698 59.5681   1
 -10   3  38 1.11697 17.5956   1
 -10   3  39 20.1325 53.1714   1
 -10   3  40 33.0871 46.9452   1
 -10   3  41 51.5007 53.9080   1
 -10   3  42 24.3554 27.1343   1
 -10   3  43 68.4215 49.8231   1
  -2 -10   0 34.7354 10.4325   1
  -2 -10   1-3.88643 7.73943   1
  -2 -10  -1-19.9660 17.2605   1
  -2 -10   2 37.6550 12.2010   1
  -2 -10  -2 37.8452 11.7419   1
  -2 -10  -3 3.96624 7.61294   1
  -2 -10   3 1.37702 3.64669   1
  -2 -10  -4 67.7386 23.4750   1
  -2 -10   4 13.4734 6.34646   1
 -10   2   4-15.4082 31.9517   1
  -2 -10  -5 11.5564 14.0869   1
 -10   2   5 14.7798 32.9059   1
  -2 -10   5 9.50044 4.87588   1
 -10   2   6 95.6349 42.6443   1
  -2 -10  -6 55.2631 18.5775   1
  -2 -10  -7-22.5138 8.12290   1
 -10   2   7 22.1604 27.0354   1
 -10   2   8 127.505 49.6776   1
  -2 -10  -8 92.8169 23.4902   1
 -10   2   9 6.75483 21.3231   1
  -2 -10  -9 58.6984 20.5723   1
 -10   2  10 38.3077 13.1934   1
 -10   2  11-36.0038 33.6945   1
 -10   2  12-37.8526 37.4808   1
 -10   2  13 16.4916 23.3610   1
 -10   2  14 51.6169 39.2656   1
 -10   2  15 62.9427 34.0441   1
 -10   2  16 33.0407 30.1225   1
 -10   2  17 86.7528 46.5624   1
 -10   2  18 19.9516 33.0750   1
 -10   2  19 14.0780 13.4565   1
 -10   2  20 25.8934 27.7465   1
 -10   2  21 48.5351 37.0164   1
 -10   2  22-13.2910 30.3096   1
 -10   2  23 62.9781 49.2713   1
 -10   2  24 34.2080 24.0588   1
 -10   2  25 30.7245 27.8223   1
 -10   2  26 8.18349 31.5429   1
 -10   2  27 84.1747 42.8803   1
 -10   2  28 42.9223 40.3691   1
 -10   2  29-15.6748 33.0696   1
 -10   2  30-29.7400 47.2324   1
 -10   2  31-4.91467 27.5430   1
 -10   2  32 7.23406 35.1991   1
 -10   2  33 26.2944 33.5824   1
 -10   2  34 56.3261 32.5169   1
 -10   2  35 62.8985 43.0473   1
 -10   2  36 61.5820 32.8001   1
 -10   2  37-5.17583 23.8306   1
 -10   2  38-30.0897 36.0449   1
 -10   2  39-53.7819 35.3776   1
 -10   2  40 41.0836 28.8603   1
 -10   2  41 57.2438 37.3212   1
 -10   2  42-4.34095 25.0043   1
 -10   2  43 37.5960 45.8916   1
 -10   2  44 46.3162 34.4960   1
  -1 -10   0-7.74334 9.29797   1
  -1 -10   1 36.7083 11.1091   1
  -1 -10  -1 40.9449 11.3143   1
  -1 -10  -2 234.514 33.4250   1
  -1 -10   2 178.826 21.4449   1
  -1 -10   3 13.6476 5.76433   1
  -1 -10  -3 43.8228 19.8108   1
  -1 -10  -4 66.9472 17.9916   1
 -10   1   5 12.4716 26.2801   1
  -1 -10  -5 6.06958 7.66931   1
  -1 -10  -6 164.474 33.6670   1
 -10   1   6 180.783 60.6204   1
 -10   1   7 49.8120 36.5094   1
  -1 -10  -7 1.10532 12.7044   1
 -10   1   8-11.7887 13.7107   1
  -1 -10  -8 22.5139 15.3264   1
 -10   1   9 10.3768 23.3520   1
  -1 -10  -9-10.2314 16.3401   1
 -10   1  10 71.6216 42.5639   1
  -1 -10 -10 78.0978 26.9537   1
 -10   1  11 23.5161 22.7776   1
 -10   1  12 50.4694 30.6281   1
 -10   1  13 29.1123 39.7932   1
 -10   1  14 102.369 43.4889   1
 -10   1  15 8.04558 16.0820   1
 -10   1  16 5.24855 21.0632   1
 -10   1  17-14.6049 19.3695   1
 -10   1  18 99.6344 42.0791   1
 -10   1  19 19.4464 29.7834   1
 -10   1  20 13.3845 14.8525   1
 -10   1  21 52.5730 41.9893   1
 -10   1  22 71.4120 40.9463   1
 -10   1  23 15.0449 24.3580   1
 -10   1  24-3.51205 17.7302   1
 -10   1  25-56.5758 38.1908   1
 -10   1  26 30.0760 21.5938   1
 -10   1  27 26.4212 21.2150   1
 -10   1  28 1.65022 25.4937   1
 -10   1  29 45.2528 35.0944   1
 -10   1  30-19.0047 18.8286   1
 -10   1  31 9.97777 25.6984   1
 -10   1  32-38.7125 33.9935   1
 -10   1  33-6.98286 28.8311   1
 -10   1  34 51.6198 43.5804   1
 -10   1  35-19.2713 17.4738   1
 -10   1  36 8.73675 32.2568   1
 -10   1  37 56.0971 26.7528   1
 -10   1  38 89.5891 57.0631   1
 -10   1  39 31.5590 22.1622   1
 -10   1  40 11.9703 37.8782   1
 -10   1  41 29.6337 31.7009   1
 -10   1  42 23.7633 43.1504   1
 -10   1  43 50.0189 30.6370   1
 -10   1  44 108.451 72.6543   1
 -10   1  45 51.2445 45.5334   1
   0 -10   0 127.695 20.5917   1
   0 -10   1 43.2112 11.1234   1
   0 -10  -1 46.0367 14.2022   1
   0 -10  -2 8.01085 7.72936   1
   0 -10   2-1.00818 3.47574   1
   0 -10  -3 13.7168 9.75405   1
   0 -10  -4 371.768 45.3949   1
   0 -10  -5 16.7902 8.49043   1
 -10   0   6 4.76529 24.6793   1
   0 -10  -6 22.1663 16.6268   1
 -10   0   7-9.26758 15.8484   1
   0 -10  -7-11.9092 15.3277   1
 -10   0   8 162.784 50.6634   1
   0 -10  -8 203.776 39.0482   1
 -10   0   9-8.91764 31.4358   1
   0 -10  -9 2.60473 13.9984   1
 -10   0  10-37.1759 30.5878   1
   0 -10 -10-15.5734 8.75125   1
   0  10  11-15.8480 19.1416   1
 -10   0  11 0.58523 17.2448   1
   0 -10 -11 5.38936 9.40888   1
 -10   0  12 27.2882 31.6412   1
   0  10  12 36.0807 10.5002   1
 -10   0  13 60.9156 37.5874   1
   0  10  13 96.5714 33.3411   1
   0  10  14 16.0721 19.8866   1
 -10   0  14-19.9433 24.8610   1
 -10   0  15 39.9247 39.1295   1
   0  10  15-0.16046 10.5946   1
 -10   0  16 125.242 50.6033   1
   0  10  16 55.2641 30.5681   1
 -10   0  17 20.7494 23.4754   1
   0  10  17 35.9405 18.6461   1
 -10   0  18 24.8830 33.9450   1
   0  10  18-13.6821 22.9180   1
 -10   0  19-2.62452 15.3203   1
   0  10  19-15.0588 15.1883   1
 -10   0  20 23.3608 23.2488   1
   0  10  20 51.2929 32.3423   1
 -10   0  21 5.22489 26.0110   1
   0  10  21-12.1215 19.4843   1
 -10   0  22-7.05964 14.1926   1
   0  10  22-2.12275 11.1612   1
   0  10  23 24.1342 23.7658   1
 -10   0  23 27.8920 36.7189   1
   0  10  24 11.5514 15.8517   1
 -10   0  24 22.0422 21.3914   1
   0  10  25 26.5347 28.1358   1
 -10   0  25-19.3626 33.1205   1
   0  10  26 9.87026 24.4179   1
 -10   0  26 10.3756 32.5835   1
   0  10  27 52.8072 36.8849   1
 -10   0  27 61.9761 40.6635   1
   0  10  28 21.7074 28.5525   1
 -10   0  28-23.9685 35.9067   1
   0  10  29-11.1545 16.1763   1
 -10   0  29-3.73979 19.5852   1
   0  10  30 4.46141 22.8406   1
 -10   0  30 13.6744 26.8046   1
 -10   0  31 24.7517 33.6782   1
   0  10  31 30.1398 34.7448   1
 -10   0  32 102.908 52.3471   1
   0  10  32 14.7946 37.5772   1
 -10   0  33-33.8789 15.4119   1
   0  10  33 20.3075 21.3339   1
 -10   0  34-24.9820 33.7173   1
   0  10  34-8.26300 25.3003   1
   0  10  35-31.7579 34.9770   1
 -10   0  35 35.1914 17.1924   1
   0  10  36 39.3245 37.1796   1
 -10   0  36 59.1931 53.3067   1
   0  10  37 36.5731 23.7406   1
 -10   0  37-33.6586 47.2770   1
   0  10  38-11.4074 24.4582   1
 -10   0  38 47.2666 41.5623   1
 -10   0  39 19.4309 22.5538   1
   0  10  39 104.233 53.6550   1
 -10   0  40-23.5978 34.7303   1
   0  10  40 10.5955 27.0331   1
 -10   0  41 0.60306 31.6483   1
   0  10  41 10.1405 39.3568   1
 -10   0  42-21.5347 26.8052   1
   0  10  42 83.7269 56.8904   1
   0  10  43-75.8636 55.5617   1
 -10   0  43-8.25728 23.6967   1
 -10   0  44 37.7376 31.5075   1
   0  10  44 7.33881 18.2903   1
 -10   0  45 5.12666 19.2717   1
   0  10  45-23.7249 49.8736   1
 -10   0  46 12.5623 32.8995   1
   1 -10   0-2.35505 8.39495   1
   1 -10  -1 39.0906 14.5436   1
   1 -10  -2 253.463 35.3838   1
   1 -10  -3 29.3735 10.9227   1
  -1  10   3-0.94393 11.1117   1
  -1  10   4 53.6689 17.6819   1
   1 -10  -4 51.5306 20.4576   1
   1 -10  -5 0.46921 9.45559   1
  -1  10   5 4.11379 13.3570   1
   1 -10  -6 199.719 37.7440   1
  -1  10   6 213.917 39.2419   1
   1 -10  -7 27.7800 13.7628   1
  -1  10   7 34.0964 23.3270   1
 -10  -1   7-14.1082 14.9005   1
  -1  10   8 33.3289 13.5890   1
   1 -10  -8 52.3148 22.7094   1
 -10  -1   8-4.88503 17.8842   1
 -10  -1   9-14.1618 23.6700   1
  -1  10   9-8.20679 10.9788   1
   1 -10  -9-32.1253 22.7905   1
  -1  10  10 78.6295 23.5317   1
   1 -10 -10 70.8439 23.1906   1
 -10  -1  10 35.8936 31.8894   1
 -10  -1  11-37.8977 30.4365   1
  -1  10  11 40.1889 22.7802   1
   1 -10 -11 20.5476 17.3141   1
 -10  -1  12 21.2951 25.8539   1
  -1  10  12 15.6416 19.3533   1
 -10  -1  13-13.0855 23.3134   1
  -1  10  13 7.17836 14.3600   1
 -10  -1  14 61.3415 42.2962   1
  -1  10  14 74.4003 33.9308   1
  -1  10  15 7.13135 10.7383   1
 -10  -1  15 14.1114 35.8561   1
  -1  10  16 20.0478 20.7463   1
 -10  -1  16 33.1666 27.5194   1
 -10  -1  17 13.0872 17.7148   1
  -1  10  17-3.11269 12.5021   1
 -10  -1  18 66.7942 44.7400   1
  -1  10  18 57.7224 23.2537   1
  -1  10  19 39.8481 28.7796   1
 -10  -1  19 44.4320 25.5857   1
  -1  10  20 37.4555 17.4241   1
 -10  -1  20 7.07852 17.2212   1
  -1  10  21 6.53686 12.1248   1
 -10  -1  21 20.7174 13.9039   1
  -1  10  22 21.4889 21.7914   1
 -10  -1  22 4.62434 22.1459   1
  -1  10  23 39.2303 21.4733   1
 -10  -1  23 47.6844 36.6336   1
  -1  10  24-15.9961 15.4370   1
 -10  -1  24 13.3499 41.3735   1
  -1  10  25 45.1501 24.0184   1
 -10  -1  25 60.9931 39.3376   1
  -1  10  26-10.9618 21.5197   1
 -10  -1  26-3.95807 16.9372   1
  -1  10  27 16.7318 29.4294   1
 -10  -1  27 36.8865 32.0725   1
  -1  10  28-2.71571 20.3767   1
 -10  -1  28 1.06099 17.0036   1
  -1  10  29 42.5416 25.1556   1
 -10  -1  29 31.6624 31.5905   1
  -1  10  30 6.85134 18.9938   1
 -10  -1  30-5.50452 32.2326   1
  -1  10  31-7.92724 28.0819   1
 -10  -1  31 22.3240 16.2829   1
  -1  10  32-0.79068 16.2206   1
 -10  -1  32-20.6183 39.4467   1
  -1  10  33 11.3876 22.1114   1
 -10  -1  33-22.9993 28.4637   1
  -1  10  34 29.6558 18.3911   1
 -10  -1  34 8.79331 24.1311   1
  -1  10  35-6.83952 36.6226   1
 -10  -1  35 36.9966 34.9770   1
  -1  10  36 13.6548 36.8280   1
 -10  -1  36 18.2882 27.2664   1
  -1  10  37 1.52643 20.9475   1
 -10  -1  37 44.8666 38.0882   1
 -10  -1  38 5.27059 21.7383   1
  -1  10  38 49.6092 40.1987   1
  -1  10  39-16.1786 47.1602   1
 -10  -1  39 58.8344 48.4758   1
 -10  -1  40-25.0597 35.9133   1
  -1  10  40 3.07969 39.9786   1
 -10  -1  41-30.2958 28.8836   1
  -1  10  41 68.7337 29.3895   1
 -10  -1  42 35.4551 38.8545   1
  -1  10  42 63.1240 47.2409   1
 -10  -1  43 9.94217 31.9676   1
  -1  10  43-74.8872 55.8441   1
 -10  -1  44 34.7748 33.9803   1
  -1  10  44 55.2418 44.3206   1
 -10  -1  45-16.5550 34.7854   1
  -1  10  45-46.7971 44.1077   1
 -10  -1  46 22.6674 32.9127   1
  -2  10   0 42.5335 15.8013   1
  -2  10   1-4.19788 6.11226   1
  -2  10  -1 2.06635 5.47845   1
  -2  10  -2 59.9299 14.5537   1
  -2  10   2 61.3495 17.9652   1
   2 -10  -2 57.8880 18.9123   1
   2 -10  -3 2.46190 14.2934   1
  -2  10   3 5.30011 9.66646   1
  -2  10  -3 2.84948 3.74741   1
   2 -10  -4 21.1129 6.79004   1
  -2  10   4 47.0120 16.0651   1
   2 -10  -5 51.8046 22.3473   1
  -2  10   5 29.4557 19.2353   1
   2 -10  -6 94.5606 22.8149   1
  -2  10   6 103.456 29.5198   1
   2 -10  -7 13.9788 15.7555   1
  -2  10   7 25.7761 12.9297   1
   2 -10  -8 135.708 33.8406   1
  -2  10   8 126.416 32.1319   1
 -10  -2   8 133.371 46.5881   1
   2 -10  -9 35.6022 20.4045   1
  -2  10   9 33.8013 17.7952   1
 -10  -2   9 46.0300 33.2340   1
 -10  -2  10 18.8688 24.0058   1
  -2  10  10 65.8163 26.6555   1
   2 -10 -10 43.7293 21.1459   1
  -2  10  11 49.5506 22.4703   1
 -10  -2  11 7.58528 19.9073   1
  -2  10  12 36.7953 22.0685   1
 -10  -2  12 45.9935 42.9296   1
 -10  -2  13-11.7554 13.9492   1
  -2  10  13 29.3999 20.5037   1
 -10  -2  14-35.1794 33.3415   1
  -2  10  14 29.7309 12.6273   1
 -10  -2  15 27.0496 18.8512   1
  -2  10  15 55.8121 31.1397   1
 -10  -2  16-19.8475 21.6043   1
  -2  10  16 22.7333 17.2667   1
 -10  -2  17 20.1254 37.6326   1
  -2  10  17 84.9892 32.6099   1
 -10  -2  18 5.57997 25.6235   1
  -2  10  18-8.03018 13.5744   1
 -10  -2  19-23.0491 32.8964   1
  -2  10  19 59.7004 28.0687   1
 -10  -2  20-12.5754 26.7737   1
  -2  10  20-22.8630 32.7721   1
 -10  -2  21 34.6341 31.3286   1
  -2  10  21 43.8171 29.3427   1
 -10  -2  22-4.62420 21.4595   1
  -2  10  22 26.3332 16.2031   1
 -10  -2  23 47.1703 35.2641   1
  -2  10  23 12.5993 19.7870   1
 -10  -2  24-3.67043 17.2653   1
  -2  10  24 38.5289 23.2933   1
 -10  -2  25 5.91187 25.1422   1
  -2  10  25 9.38974 29.4957   1
 -10  -2  26 2.08288 15.4053   1
  -2  10  26 8.13365 16.7780   1
 -10  -2  27 39.3802 33.1895   1
  -2  10  27 65.7431 39.1469   1
 -10  -2  28 24.0434 27.4972   1
  -2  10  28 8.18996 15.9181   1
 -10  -2  29 51.1574 29.9673   1
  -2  10  29 19.9403 27.8741   1
 -10  -2  30 9.85019 23.5768   1
  -2  10  30 105.296 54.1493   1
 -10  -2  31-5.66044 21.5650   1
  -2  10  31 18.9738 26.6148   1
 -10  -2  32 34.1561 37.8867   1
  -2  10  32 44.1267 32.0178   1
 -10  -2  33 20.9545 29.4028   1
  -2  10  33 40.8544 36.0987   1
  -2  10  34-41.4202 31.4559   1
 -10  -2  34-6.49724 22.9527   1
  -2  10  35-8.56792 24.8253   1
 -10  -2  35 33.5947 38.8234   1
  -2  10  36-13.8713 33.2319   1
 -10  -2  36-30.4116 36.4789   1
  -2  10  37 13.8699 21.9061   1
 -10  -2  37 21.5679 17.3195   1
  -2  10  38 47.7193 38.5719   1
 -10  -2  38 30.8274 35.6117   1
  -2  10  39-40.5044 46.1526   1
 -10  -2  39 27.4090 41.8601   1
 -10  -2  40-6.65000 25.1915   1
  -2  10  40-34.4434 47.5826   1
 -10  -2  41 35.4772 42.2639   1
  -2  10  41 79.3393 48.4889   1
 -10  -2  42 12.8820 20.1295   1
  -2  10  42-88.7430 60.8110   1
 -10  -2  43-27.1624 40.5559   1
  -2  10  43 20.7773 23.9250   1
 -10  -2  44 21.5021 26.4029   1
  -2  10  44-42.9853 32.9023   1
 -10  -2  45 27.4392 41.1794   1
  -2  10  45-1.83507 37.0373   1
 -10  -2  46 39.9105 34.0803   1
 -10  -2  47-1.95983 35.1636   1
  -3  10   0 128.627 24.3779   1
  -3  10  -1-6.66945 10.6181   1
  -3  10   1 18.2884 13.4832   1
  -3  10  -2 12.0511 11.3602   1
  -3  10   2 14.2269 17.4136   1
  -3  10  -3 10.6984 6.66944   1
  -3  10   3 19.1494 14.5601   1
  -3  10  -4 77.5238 18.5126   1
  -3  10   4 97.3605 26.3433   1
   3 -10  -4 75.7287 25.7683   1
   3 -10  -5 32.2838 13.5892   1
  -3  10   5 13.3720 14.6378   1
  -3  10  -5 0.15071 6.00740   1
   3 -10  -6-11.5240 19.8757   1
  -3  10   6 24.8403 18.0933   1
  -3  10  -6-9.87593 7.27418   1
   3 -10  -7-2.27542 13.8524   1
  -3  10   7 1.83023 9.34170   1
  -3  10  -7 3.19187 4.18977   1
   3 -10  -8 61.0704 26.8262   1
  -3  10   8 15.4053 18.0592   1
 -10  -3   9 68.6381 33.1470   1
  -3  10   9 35.3728 22.6724   1
  -3  10  10 7.12714 15.3411   1
 -10  -3  10 25.1835 20.0995   1
 -10  -3  11-0.49291 18.7559   1
  -3  10  11 19.6387 15.0486   1
 -10  -3  12 32.8679 31.0097   1
  -3  10  12 69.8683 29.9968   1
 -10  -3  13-21.1268 24.8115   1
  -3  10  13 17.5275 14.0194   1
 -10  -3  14 15.9034 21.4891   1
  -3  10  14 47.5353 25.7442   1
 -10  -3  15 69.0335 46.0748   1
  -3  10  15 45.2505 26.7749   1
 -10  -3  16 20.8631 13.3481   1
  -3  10  16 25.9098 10.2869   1
 -10  -3  17 15.7943 28.3550   1
  -3  10  17 23.4735 18.0087   1
 -10  -3  18 32.0980 31.4497   1
  -3  10  18 49.7754 32.6826   1
  -3  10  19 22.1090 27.1862   1
 -10  -3  19 12.9235 14.0073   1
  -3  10  20 6.68552 12.6684   1
 -10  -3  20-34.8940 38.3878   1
  -3  10  21 30.8712 26.9017   1
 -10  -3  21 15.0324 15.9266   1
  -3  10  22 26.7628 26.5371   1
 -10  -3  22 26.2848 28.8143   1
  -3  10  23 63.5645 35.3413   1
 -10  -3  23 41.7985 23.0026   1
  -3  10  24-49.8757 34.8753   1
 -10  -3  24 52.3939 25.1754   1
  -3  10  25 30.5430 23.7104   1
 -10  -3  25 24.0016 21.0550   1
  -3  10  26-35.3471 38.0545   1
 -10  -3  26 13.3435 33.1594   1
  -3  10  27 71.8922 40.5089   1
 -10  -3  27 16.7706 32.6750   1
  -3  10  28-2.15092 21.5019   1
 -10  -3  28 21.8942 23.3543   1
  -3  10  29 24.5558 32.4300   1
 -10  -3  29 71.5227 41.6061   1
  -3  10  30 14.2959 18.3351   1
 -10  -3  30-29.5734 26.7551   1
  -3  10  31 31.9264 28.9831   1
 -10  -3  31 6.18227 16.3553   1
  -3  10  32 39.9710 38.8519   1
 -10  -3  32-4.23497 34.5338   1
  -3  10  33 20.6718 26.1698   1
 -10  -3  33 41.3457 22.5908   1
  -3  10  34 43.4124 35.3268   1
 -10  -3  34 25.2715 27.8433   1
  -3  10  35 73.6654 41.5278   1
 -10  -3  35 2.33796 19.0287   1
  -3  10  36 8.82507 19.6510   1
 -10  -3  36-43.6917 27.5355   1
  -3  10  37 62.5169 40.5951   1
 -10  -3  37 47.5795 37.8014   1
  -3  10  38-4.03913 24.1139   1
 -10  -3  38-32.1620 44.0415   1
  -3  10  39 32.4788 23.8944   1
 -10  -3  39 25.2591 36.2886   1
 -10  -3  40 18.1592 30.4050   1
  -3  10  40 9.54922 19.6997   1
 -10  -3  41 28.5440 35.3124   1
  -3  10  41 9.83728 32.9476   1
  -3  10  42 45.0380 27.1403   1
 -10  -3  42 23.7075 28.0792   1
  -3  10  43 86.7925 58.0420   1
 -10  -3  43 28.5033 38.9097   1
  -3  10  44-82.2621 64.7819   1
 -10  -3  44 7.80106 24.5814   1
 -10  -3  45 19.5572 23.6626   1
 -10  -3  46-76.0554 55.3835   1
 -10  -3  47-13.3439 33.8606   1
  -4  10   0 63.5809 24.8493   1
  -4  10  -1 23.4944 16.1502   1
  -4  10   1-17.3655 18.3842   1
  -4  10  -2 46.3514 17.3855   1
  -4  10   2 72.8494 28.5066   1
  -4  10  -3 16.5240 16.1768   1
  -4  10   3 9.87293 12.9038   1
  -4  10   4 59.8779 25.2506   1
  -4  10  -4 40.9822 15.2722   1
  -4  10   5 9.90681 17.8187   1
  -4  10  -5 11.8897 13.3387   1
  -4  10   6 27.8150 24.3092   1
  -4  10  -6 0.37461 6.35328   1
  -4  10   7 17.3232 12.0570   1
  -4  10  -7-9.00071 8.20273   1
  -4  10   8 53.3926 27.0455   1
  -4  10  -8 51.9489 14.6702   1
 -10  -4   9 52.6311 29.4323   1
  -4  10   9 55.4288 24.7692   1
  -4  10  -9 19.2333 8.18491   1
  -4  10  10-15.7024 12.2607   1
 -10  -4  10 13.8884 32.2518   1
  -4  10 -10 11.9245 7.42113   1
 -10  -4  11-7.92781 16.5774   1
  -4  10  11-11.0730 23.1677   1
  -4  10 -11 8.52953 6.38518   1
  -4  10  12 92.4847 37.0588   1
 -10  -4  12 17.9989 17.5670   1
  -4  10 -12 35.5773 10.4557   1
 -10  -4  13 22.3784 31.5603   1
  -4  10  13-1.95649 14.0735   1
  -4  10 -13 16.9499 8.03536   1
  -4  10 -13 17.1112 8.53781   1
 -10  -4  14 11.6612 20.7140   1
  -4  10  14 58.6156 26.1765   1
  -4  10 -14 16.8932 8.14834   1
 -10  -4  15 3.30218 15.7976   1
  -4  10 -15 0.22018 3.29300   1
  -4  10  15 11.1877 23.7788   1
 -10  -4  16 99.6053 44.2398   1
  -4  10 -16 70.3615 12.8000   1
  -4  10  16 85.1378 32.7369   1
 -10  -4  17 34.5502 29.5445   1
  -4  10 -17 30.5333 9.04759   1
  -4  10  17 23.3625 15.1105   1
 -10  -4  18 20.9577 24.1531   1
  -4  10  18 6.26358 17.7509   1
 -10  -4  19-23.8105 34.8563   1
  -4  10  19 20.8166 23.2773   1
 -10  -4  20 13.8668 20.7678   1
  -4  10  20-4.90070 19.4918   1
 -10  -4  21 30.7133 27.9990   1
  -4  10  21-24.7237 20.2863   1
 -10  -4  22-2.79519 15.5762   1
  -4  10  22 10.5983 24.7390   1
 -10  -4  23 50.5211 31.4504   1
  -4  10  23 12.7530 24.1582   1
 -10  -4  24 50.2438 35.9681   1
  -4  10  24-7.72426 18.0006   1
 -10  -4  25-3.47061 26.0141   1
  -4  10  25 56.0505 32.6939   1
 -10  -4  26-24.8817 30.0287   1
  -4  10  26-29.5863 15.1817   1
 -10  -4  27-0.76344 19.8385   1
  -4  10  27 10.7103 17.4333   1
  -4  10  28-2.21667 23.1100   1
 -10  -4  28-20.6580 29.6806   1
  -4  10  29 33.6935 31.3874   1
 -10  -4  29-0.37772 29.8942   1
  -4  10  30-24.3228 18.9592   1
 -10  -4  30 3.21476 22.1646   1
  -4  10  31 52.1635 32.2337   1
 -10  -4  31 26.6055 37.0510   1
  -4  10  32-12.1299 19.7975   1
 -10  -4  32 6.91717 30.4398   1
  -4  10  33 39.5903 30.6431   1
 -10  -4  33 36.3296 28.8888   1
  -4  10  34 34.9082 26.8298   1
 -10  -4  34-0.15028 19.2970   1
  -4  10  35 19.5362 27.6217   1
 -10  -4  35 86.6997 44.4243   1
  -4  10  36-6.11840 24.7747   1
 -10  -4  36 52.7743 47.1491   1
  -4  10  37 66.9096 52.4915   1
 -10  -4  37 33.3919 35.8284   1
  -4  10  38-56.3170 44.8103   1
 -10  -4  38-1.82332 29.4817   1
  -4  10  39 5.95991 19.6237   1
 -10  -4  39 18.7103 37.9749   1
 -10  -4  40 12.1266 25.6891   1
  -4  10  40-64.0212 51.2190   1
 -10  -4  41 23.9534 24.3968   1
  -4  10  41 102.724 48.8328   1
 -10  -4  42-24.0712 28.5348   1
  -4  10  42-89.4227 63.1114   1
 -10  -4  43-34.2693 39.8542   1
  -4  10  43 12.3315 18.7259   1
 -10  -4  44-39.7158 42.8165   1
 -10  -4  45-9.27626 32.4982   1
 -10  -4  46-12.4830 24.3651   1
 -10  -4  47 12.3396 22.5223   1
 -10  -4  48-42.2536 30.8186   1
  -5  10   0 4.37471 7.76338   1
  -5  10  -1-14.8915 8.86479   1
  -5  10   1 14.8279 16.9091   1
  -5  10  -2 87.8795 25.5131   1
  -5  10   2 81.1743 32.6414   1
  -5  10  -3 8.91178 16.2966   1
  -5  10   3 20.2668 21.1743   1
  -5  10  -4 6.96604 9.04457   1
  -5  10   4 11.0178 17.4294   1
  -5  10   5 34.2418 23.2968   1
  -5  10  -5 6.81175 12.4923   1
  -5  10   6 44.6556 27.7377   1
  -5  10  -6 67.7844 20.0612   1
  -5  10   7-2.03160 14.8730   1
  -5  10  -7 4.02067 10.3384   1
  -5  10   8 11.1045 18.1908   1
  -5  10  -8 10.6076 12.6129   1
  -5  10   9 8.87915 10.5547   1
  -5  10  -9-0.54539 9.48968   1
  -5  10  10 63.0608 29.6917   1
  -5  10 -10 66.4770 19.0377   1
 -10  -5  10 70.7052 45.2933   1
 -10  -5  11 12.9281 33.4004   1
  -5  10  11-31.8307 19.7003   1
  -5  10 -11-0.75191 9.87433   1
 -10  -5  12 19.2395 13.8885   1
  -5  10  12 62.7545 32.5748   1
  -5  10 -12 25.6522 11.6865   1
 -10  -5  13 24.5650 27.9981   1
  -5  10  13 22.6787 14.7751   1
  -5  10 -13 40.8758 18.3148   1
 -10  -5  14 8.97310 31.2881   1
  -5  10 -14 37.4404 15.4847   1
  -5  10  14 9.84428 22.0641   1
 -10  -5  15 17.6439 20.9239   1
  -5  10 -15-8.67134 8.80320   1
  -5  10  15-23.8779 27.9397   1
 -10  -5  16-19.5324 22.5610   1
  -5  10 -16 4.71793 12.0813   1
  -5  10  16-17.1423 20.5425   1
  -5  10 -17-16.0531 13.3237   1
 -10  -5  17 5.52505 21.8086   1
  -5  10  17-10.3930 20.3612   1
  -5  10 -18 27.5173 12.8380   1
 -10  -5  18 34.8316 24.8476   1
  -5  10  18 63.1486 31.4357   1
 -10  -5  19 39.8187 27.2277   1
  -5  10  19-4.59587 12.5749   1
 -10  -5  20-13.5901 23.4653   1
  -5  10  20 59.4588 30.2854   1
 -10  -5  21 18.1396 13.7371   1
  -5  10  21 69.4934 45.9511   1
 -10  -5  22 8.38519 21.3330   1
  -5  10  22 4.35311 25.9888   1
 -10  -5  23 43.4934 25.3654   1
  -5  10  23-4.81761 24.4468   1
 -10  -5  24-29.6224 23.7931   1
  -5  10  24 2.50878 22.1442   1
 -10  -5  25 10.6244 14.5378   1
  -5  10  25 26.5407 31.4320   1
 -10  -5  26 31.2381 26.7661   1
  -5  10  26 1.64388 29.3505   1
 -10  -5  27 21.0691 19.0593   1
  -5  10  27 38.0508 35.5217   1
 -10  -5  28-47.2812 19.7089   1
  -5  10  28-21.0624 37.2326   1
 -10  -5  29 21.6691 17.8144   1
  -5  10  29-34.9295 20.1897   1
 -10  -5  30 8.97363 15.7431   1
  -5  10  30-15.9315 27.4137   1
 -10  -5  31 26.4794 24.6643   1
  -5  10  31-63.9816 48.5460   1
 -10  -5  32-2.77662 23.4698   1
  -5  10  32-7.42475 33.2299   1
 -10  -5  33-39.7514 36.7415   1
  -5  10  33-5.56078 24.2498   1
  -5  10  34 72.3564 49.7848   1
 -10  -5  34-15.1271 21.5969   1
  -5  10  35 31.3514 28.2161   1
 -10  -5  35-4.77189 21.0794   1
  -5  10  36-19.1080 19.4091   1
 -10  -5  36 15.0409 15.7256   1
  -5  10  37-17.8908 30.5052   1
 -10  -5  37 9.51332 26.6386   1
  -5  10  38-4.83343 28.2609   1
 -10  -5  38 40.2809 42.1686   1
 -10  -5  39 14.4104 40.2919   1
  -5  10  39 49.2783 36.9982   1
 -10  -5  40 22.1927 28.0337   1
  -5  10  40 89.9812 64.4670   1
 -10  -5  41 34.9346 23.7335   1
  -5  10  41-24.9315 38.2861   1
 -10  -5  42 3.29906 18.9478   1
  -5  10  42 27.3275 39.1570   1
 -10  -5  43 69.0807 47.2502   1
 -10  -5  44-90.5656 44.8867   1
 -10  -5  45 51.3884 50.8073   1
 -10  -5  46-7.34932 27.0758   1
  -6  10   0 116.682 35.1738   1
  -6  10  -1 40.2350 24.1836   1
  -6  10   1 5.35841 11.3955   1
  -6  10  -2-1.04841 12.4183   1
  -6  10   2-1.48295 9.80257   1
  -6  10  -3 28.1232 19.0336   1
  -6  10   3 0.09206 11.1096   1
  -6  10  -4 25.5010 17.5126   1
  -6  10   4 34.2090 26.7908   1
  -6  10  -5 75.4790 28.9658   1
  -6  10   5 30.0522 14.7125   1
  -6  10  -6-4.36749 9.59755   1
  -6  10   6-25.9104 16.2822   1
  -6  10  -7 9.95221 15.3521   1
  -6  10   7-11.6876 14.0698   1
  -6  10  -8 56.8052 21.1907   1
  -6  10   8 53.1664 32.2503   1
  -6  10  -9 1.43005 14.3151   1
  -6  10   9-15.1334 24.1918   1
  -6  10  10 40.4928 25.3214   1
  -6  10 -10 7.87730 12.3677   1
 -10  -6  10 19.9541 23.8501   1
 -10  -6  11 21.6093 29.0615   1
  -6  10  11-10.2534 12.3413   1
  -6  10 -11 28.9995 19.2270   1
 -10  -6  12 106.320 45.8703   1
  -6  10  12 116.147 41.4866   1
  -6  10 -12 118.143 29.7819   1
 -10  -6  13 47.3367 46.6364   1
  -6  10  13-24.9646 21.8418   1
  -6  10 -13 15.1849 17.6932   1
 -10  -6  14-20.1184 26.9997   1
  -6  10  14 31.8454 38.1512   1
  -6  10 -14-28.4622 10.7386   1
 -10  -6  15-5.68060 15.3619   1
  -6  10 -15 4.04353 13.1991   1
  -6  10  15 43.0730 35.0942   1
  -6  10 -16 28.3916 20.7329   1
 -10  -6  16 20.9554 23.2866   1
  -6  10  16 32.5811 17.7624   1
  -6  10 -17 1.88397 13.9673   1
 -10  -6  17-18.1506 25.0400   1
  -6  10  17-13.4816 19.6738   1
  -6  10 -18-21.6697 10.1620   1
 -10  -6  18 30.6721 31.1556   1
  -6  10  18 37.5306 35.2314   1
 -10  -6  19 25.4741 27.4816   1
  -6  10  19-5.58462 21.4756   1
 -10  -6  20 0.70398 16.8309   1
  -6  10  20 63.3809 32.7420   1
 -10  -6  21 15.8762 22.9062   1
  -6  10  21 76.2671 46.0218   1
 -10  -6  22 38.2429 38.3614   1
  -6  10  22-26.2637 30.3435   1
 -10  -6  23-0.18259 22.8848   1
  -6  10  23 24.0684 34.9180   1
 -10  -6  24 13.5098 27.5166   1
  -6  10  24 30.2121 35.3002   1
 -10  -6  25 46.0753 32.2647   1
  -6  10  25 1.37030 19.2273   1
 -10  -6  26 56.6208 40.9475   1
  -6  10  26 24.2162 36.3014   1
 -10  -6  27 30.7687 34.7751   1
  -6  10  27-19.7924 16.2052   1
 -10  -6  28 5.52982 24.0002   1
  -6  10  28 79.6019 55.3850   1
 -10  -6  29-16.4561 30.1572   1
  -6  10  29 39.9185 36.5293   1
 -10  -6  30-2.97350 15.9802   1
  -6  10  30 13.8350 30.1320   1
 -10  -6  31 25.2514 22.2018   1
  -6  10  31-17.4861 27.4479   1
 -10  -6  32-6.39439 28.1938   1
  -6  10  32 8.04103 28.0844   1
  -6  10  33-7.65304 25.6580   1
 -10  -6  33-11.1978 21.4159   1
  -6  10  34-18.5922 22.5033   1
 -10  -6  34-5.86033 22.4053   1
  -6  10  35-14.1717 18.2620   1
 -10  -6  35 7.58503 19.3420   1
  -6  10  36 5.93054 19.2136   1
 -10  -6  36-3.33618 32.8796   1
  -6  10  37 32.9349 48.1824   1
 -10  -6  37 7.48097 21.8399   1
  -6  10  38-3.06056 25.2113   1
 -10  -6  38-16.1308 32.6316   1
  -6  10  39 23.8056 40.7577   1
 -10  -6  39 68.8038 43.7262   1
  -6  10  40-12.6235 34.3147   1
 -10  -6  40 72.7032 48.2516   1
  -6  10  41 0.10090 36.2219   1
 -10  -6  41 25.0560 23.5259   1
 -10  -6  42-4.35169 25.8134   1
 -10  -6  43 52.1316 38.8563   1
  -7  10   0-9.82159 21.1053   1
  -7  10  -1 9.66179 17.1736   1
  -7  10   1 36.9818 27.8843   1
  -7  10  -2 42.0050 28.4307   1
  -7  10   2 3.33394 9.82893   1
  -7  10  -3 14.5303 20.7077   1
  -7  10   3 28.0285 19.1279   1
  -7  10  -4 72.6358 34.0713   1
  -7  10   4-6.63175 14.8261   1
  -7  10  -5-6.24937 16.2776   1
  -7  10   5 16.2322 12.1979   1
  -7  10  -6-17.9177 19.8702   1
  -7  10   6 66.6909 36.3961   1
  -7  10  -7-1.19098 14.1730   1
  -7  10   7 23.2536 21.1669   1
  -7  10  -8-38.8701 32.6638   1
  -7  10   8 43.8237 22.3967   1
  -7  10  -9-31.7547 17.1131   1
  -7  10   9 85.7955 35.0930   1
  -7  10 -10 39.1998 27.3220   1
 -10  -7  10 15.7937 23.1970   1
  -7  10  10 44.5405 22.9908   1
 -10  -7  11 30.0104 32.5008   1
  -7  10 -11 55.8758 30.3381   1
  -7  10  11 3.52745 18.1802   1
 -10  -7  12-48.8864 29.0737   1
  -7  10 -12 14.7256 18.2872   1
  -7  10  12 14.4439 14.7074   1
 -10  -7  13 79.4358 45.3882   1
  -7  10 -13 18.1826 13.7292   1
  -7  10  13 24.2213 18.0903   1
  -7  10  14 9.67612 12.2962   1
 -10  -7  14 38.9265 37.7840   1
  -7  10 -14 0.04771 9.93827   1
  -7  10  15 19.8722 20.6444   1
  -7  10 -15 8.55684 13.5956   1
 -10  -7  15-1.83905 16.3450   1
  -7  10 -16-29.2082 14.9532   1
  -7  10  16 6.28949 20.1732   1
 -10  -7  16 7.40474 26.7335   1
  -7  10  17 37.2932 22.4165   1
 -10  -7  17 47.4719 36.4333   1
  -7  10 -17 31.7850 21.4245   1
  -7  10  18 13.6475 24.1501   1
 -10  -7  18 35.7558 42.1634   1
  -7  10 -18 45.2009 24.0701   1
  -7  10  19 34.9111 22.9324   1
 -10  -7  19 46.5444 37.3400   1
  -7  10  20 30.3731 19.8786   1
 -10  -7  20-18.1156 13.9907   1
  -7  10  21 34.3418 28.2767   1
 -10  -7  21 53.2484 31.4924   1
  -7  10  22 29.0062 25.6901   1
 -10  -7  22 16.0802 32.6918   1
  -7  10  23 39.6033 40.5812   1
 -10  -7  23 19.7846 23.2156   1
  -7  10  24 26.3545 29.5715   1
 -10  -7  24 43.5013 36.9292   1
  -7  10  25-29.4176 29.0098   1
 -10  -7  25-19.1879 15.7858   1
  -7  10  26-2.96120 25.0819   1
 -10  -7  26 19.1701 26.3593   1
  -7  10  27-6.44417 17.8068   1
 -10  -7  27 32.2362 28.8697   1
  -7  10  28 34.6233 27.6384   1
 -10  -7  28 4.49856 17.9574   1
  -7  10  29 50.5501 40.0697   1
 -10  -7  29 34.5775 24.5045   1
  -7  10  30 20.1786 29.4150   1
 -10  -7  30-48.6004 34.4312   1
  -7  10  31 20.6959 22.0026   1
 -10  -7  31 17.4351 18.1616   1
  -7  10  32-36.5661 45.5895   1
 -10  -7  32-6.29430 34.2715   1
  -7  10  33 30.0916 41.4087   1
 -10  -7  33 47.9582 24.2688   1
  -7  10  34 70.5465 52.2936   1
 -10  -7  34 10.6099 21.7293   1
  -7  10  35 21.8203 44.6524   1
 -10  -7  35-17.9509 14.6777   1
  -7  10  36 3.59543 19.4938   1
 -10  -7  36 14.6032 24.3449   1
  -7  10  37 33.3814 24.6876   1
 -10  -7  37-20.2975 30.5370   1
  -7  10  38 42.1935 41.0205   1
  -7  10  39 12.0334 29.6545   1
  -7  10  40-22.6636 23.9129   1
  -8  10   0 26.6126 16.2497   1
  -8  10  -1 44.6489 29.7746   1
  -8  10   1 18.8587 20.2786   1
  -8  10  -2 33.4228 19.6892   1
  -8  10   2 56.4475 25.3535   1
  -8  10  -3-9.24822 18.7736   1
  -8  10   3-28.2564 26.8377   1
  -8  10  -4 24.3318 14.6031   1
  -8  10   4-16.8019 20.9580   1
  -8  10  -5 56.9145 29.9767   1
  -8  10   5 52.4004 35.3285   1
  -8  10  -6 37.4048 30.5251   1
  -8  10   6-16.9262 14.6543   1
  -8  10  -7 35.2649 26.2994   1
  -8  10   7 28.0469 28.3548   1
  -8  10  -8 46.6700 31.6849   1
  -8  10   8 36.0747 29.0806   1
  -8  10  -9-13.9024 14.9898   1
  -8  10   9 45.8930 26.4505   1
  -8  10 -10 51.1220 24.1625   1
  -8  10  10 4.62977 13.4187   1
 -10  -8  10 12.5100 17.6338   1
 -10  -8  11-5.88892 11.9347   1
  -8  10 -11 36.0096 18.1073   1
  -8  10  11 71.6833 37.1209   1
 -10  -8  12 4.80058 18.8834   1
  -8  10 -12-14.7390 10.4275   1
  -8  10  12 58.1660 34.6511   1
 -10  -8  13 14.6293 15.0239   1
  -8  10 -13 48.6989 15.4164   1
  -8  10  13 9.59927 17.5762   1
  -8  10 -14 19.5782 23.8201   1
 -10  -8  14 17.0236 23.0056   1
  -8  10  14 99.6479 43.3927   1
  -8  10 -15-28.9772 25.6211   1
 -10  -8  15 44.0007 31.8832   1
  -8  10  15 24.3267 24.8171   1
  -8  10 -16 0.36462 14.9001   1
 -10  -8  16 49.9084 44.0127   1
  -8  10  16 7.60393 23.7871   1
  -8  10 -17-4.15445 15.2437   1
 -10  -8  17 40.2059 30.2319   1
  -8  10  17 25.5689 16.3116   1
  -8  10  18 22.6472 15.9365   1
 -10  -8  18 14.6129 26.0244   1
  -8  10  19 58.9408 38.6064   1
 -10  -8  19 45.9096 22.1719   1
  -8  10  20 2.49878 16.3093   1
 -10  -8  20 5.30360 21.2053   1
  -8  10  21 27.9352 33.0416   1
 -10  -8  21 23.6385 20.6554   1
  -8  10  22-24.8095 21.9459   1
 -10  -8  22 53.9443 37.3490   1
  -8  10  23 76.7726 46.8485   1
 -10  -8  23 32.7245 29.3720   1
  -8  10  24-27.4797 29.5944   1
 -10  -8  24-51.4965 33.0913   1
  -8  10  25 42.9151 39.9829   1
 -10  -8  25-5.04821 20.2599   1
  -8  10  26 1.44835 19.5066   1
 -10  -8  26 38.1090 37.0273   1
  -8  10  27 18.8912 25.7567   1
 -10  -8  27 30.6714 28.6246   1
  -8  10  28-19.3143 39.4282   1
 -10  -8  28-9.27391 21.0601   1
  -8  10  29-19.6200 22.2557   1
 -10  -8  29 55.7308 37.6229   1
  -8  10  30 56.2357 48.1132   1
 -10  -8  30 58.4546 40.7880   1
  -8  10  31 31.2113 39.8351   1
  -8  10  32 23.7694 28.2640   1
  -8  10  33-28.5849 35.8238   1
  -8  10  34 28.5582 36.4919   1
  -8  10  35 192.206 78.2310   1
  -8  10  36 51.0563 45.4582   1
  -8  10  37 40.4139 44.2182   1
  -8  10  38-31.3179 49.3023   1
  -9  10   0 22.1804 29.7204   1
  -9  10  -1 56.8518 34.8761   1
  -9  10   1 21.7420 28.1485   1
  -9  10  -2 62.4952 37.4224   1
  -9  10   2 48.9992 35.5374   1
  -9  10  -3-21.1262 12.8052   1
  -9  10   3 68.5162 44.5591   1
  -9  10  -4 57.1385 23.3627   1
  -9  10   4 27.0821 29.6331   1
  -9  10  -5 32.4851 23.5073   1
  -9  10   5-11.0138 20.7493   1
  -9  10  -6 41.1215 28.5490   1
  -9  10   6 51.9324 26.6480   1
  -9  10  -7-4.89723 14.4083   1
  -9  10   7 45.0730 34.4827   1
  -9  10  -8-0.71694 14.8216   1
  -9  10   8 7.70840 19.6089   1
 -10  -9   9 31.0770 29.8799   1
  -9  10  -9 19.2169 20.9190   1
  -9  10   9 1.26944 13.4696   1
  -9  10 -10 32.5146 19.1466   1
  -9  10  10 1.56435 26.0570   1
 -10  -9  10-8.62281 24.3229   1
 -10  -9  11 21.3009 16.6878   1
  -9  10 -11 40.2724 30.8352   1
  -9  10  11 62.1558 33.1817   1
 -10  -9  12 25.7805 29.0098   1
  -9  10 -12 17.5017 16.3288   1
  -9  10  12 19.0078 20.0697   1
 -10  -9  13 18.1662 17.6220   1
  -9  10 -13-8.45590 15.6573   1
  -9  10  13 7.71492 21.0114   1
  -9  10 -14 39.9155 20.6927   1
 -10  -9  14-64.0421 40.2865   1
  -9  10  14-10.5999 26.3810   1
  -9  10 -15 8.50640 23.8972   1
 -10  -9  15-15.6324 17.6250   1
  -9  10  15 22.5876 32.2704   1
  -9  10 -16 6.66632 19.3070   1
 -10  -9  16 3.50114 17.2756   1
  -9  10  16 40.6750 38.3716   1
 -10  -9  17 15.4219 15.7217   1
  -9  10  17 24.3426 27.1770   1
 -10  -9  18 9.65756 21.5608   1
  -9  10  18 46.0525 39.6884   1
 -10  -9  19 78.7083 45.2778   1
  -9  10  19 66.6696 39.3541   1
 -10  -9  20-16.8029 12.9511   1
  -9  10  20 28.1873 28.7515   1
  -9  10  21 36.8253 27.8671   1
 -10  -9  21 19.4037 29.0707   1
  -9  10  22 20.8025 21.6567   1
 -10  -9  22-39.7086 21.2175   1
  -9  10  23-29.3156 28.1401   1
 -10  -9  23 12.2015 11.9442   1
  -9  10  24-7.57123 31.4819   1
  -9  10  25-14.1972 31.9182   1
  -9  10  26-7.01829 40.3714   1
  -9  10  27 54.6894 41.0847   1
  -9  10  28-31.9401 31.8313   1
  -9  10  29 27.1716 22.3428   1
  -9  10  30 83.9338 52.1406   1
  -9  10  31 55.3852 57.1575   1
  -9  10  32-28.6198 29.7408   1
  -9  10  33-24.2238 45.3627   1
  -9  10  34-12.6314 39.9831   1
  -9  10  35 70.7533 43.8111   1
 -10  10   0 90.7060 47.7913   1
 -10  10  -1 55.7996 36.4993   1
 -10  10   1 70.6406 40.6591   1
 -10  10  -2 14.1428 18.3724   1
 -10  10   2 15.8679 22.5524   1
 -10  10  -3-5.95071 13.4119   1
 -10  10   3 46.0024 29.8731   1
 -10  10  -4 63.4841 39.3273   1
 -10  10   4 1.29178 12.9067   1
 -10  10  -5-16.8707 19.5105   1
 -10  10   5-15.7896 31.2869   1
 -10  10  -6 24.5352 30.2851   1
 -10  10   6-4.61043 13.1800   1
 -10  10  -7 4.79087 24.6539   1
 -10  10   7 42.3270 31.3242   1
 -10  10  -8 67.1077 35.5061   1
 -10  10   8 67.3588 44.3605   1
 -10  10  -9 12.4091 26.8753   1
 -10  10   9-23.9759 18.1543   1
 -10 -10   9 12.4333 18.3743   1
 -10 -10  10-24.6049 27.2398   1
 -10  10 -10 37.2834 30.5657   1
 -10  10  10 21.7359 19.6250   1
 -10 -10  11-15.5008 19.8454   1
 -10  10 -11-10.3204 15.5268   1
 -10  10  11-33.8101 33.9104   1
 -10 -10  12 12.1836 20.6173   1
 -10  10 -12 26.8153 22.6832   1
 -10  10  12 75.3358 44.1326   1
 -10  10 -13 6.71606 18.4595   1
 -10 -10  13 16.2329 25.3520   1
 -10  10  13 3.02030 15.3752   1
 -10  10 -14-29.0107 32.8310   1
 -10 -10  14 2.95275 20.5783   1
 -10  10  14-29.7139 35.6278   1
 -10  10 -15-16.4716 34.4438   1
 -10 -10  15 10.4890 16.3821   1
 -10  10  15-8.23617 32.3850   1
 -10  10  16 22.3373 31.0187   1
 -10  10  17-4.40021 18.9458   1
 -10  10  18-30.2318 40.7333   1
 -10  10  19 63.7576 46.3261   1
 -10  10  20 72.8380 41.0857   1
 -10  10  21 6.54598 24.2055   1
 -10  10  22-18.7835 38.4817   1
 -10  10  23 35.1566 46.8225   1
 -10  10  24 82.3303 55.3270   1
 -10  10  25 34.4411 25.5076   1
 -10  10  26-9.05246 20.8065   1
 -10  10  27 23.2266 32.2205   1
 -10  10  28 44.2795 46.1493   1
 -10  10  29 8.98102 30.9578   1
 -10  10  30 43.6794 40.4914   1
 -10  10  31 9.04175 24.9303   1
 -10  10  32-67.7927 51.0618   1
 -10  10  33-22.7332 34.9002   1
 -11  10   0-18.7546 32.8780   1
 -11  10  -1 12.3683 21.2910   1
 -11  10   1-54.3551 29.8525   1
 -11  10  -2 23.8193 22.2666   1
 -11  10   2 34.5297 34.8641   1
 -11  10  -3 1.57612 24.7264   1
 -11  10   3-40.3554 30.0574   1
 -11  10  -4 68.5724 30.8512   1
 -11  10   4 31.4002 24.4143   1
 -11  10  -5 35.2324 30.4181   1
 -11  10   5 23.8817 20.9394   1
 -11  10  -6 15.7441 25.6065   1
 -11  10   6 72.6859 42.2094   1
 -11  10  -7-48.4772 32.8905   1
 -11  10   7 78.5797 44.2246   1
 -11  10  -8 17.2077 32.4512   1
 -11  10   8 34.4363 30.3215   1
 -11  10  -9 19.8044 22.9533   1
 -11  10   9-17.2864 30.1977   1
 -11  10 -10 18.6613 13.9755   1
 -11  10  10 3.57288 22.6743   1
 -11  10 -11 2.36231 20.9448   1
 -11  10  11 5.89748 17.7515   1
 -11  10 -12-23.2733 13.0620   1
 -11  10  12 30.7564 30.8800   1
 -11  10 -13 19.5308 30.0067   1
 -11  10  13 106.624 57.7900   1
 -11  10 -14 59.8991 42.0764   1
 -11  10  14 17.3809 41.3038   1
 -11  10  15 59.6878 44.1604   1
 -11  10  16 18.0285 16.4629   1
 -11  10  17 46.3207 39.6138   1
 -11  10  18 51.8474 37.9798   1
 -11  10  19-49.6020 37.9898   1
 -11  10  20-45.7910 40.3665   1
 -11  10  21-42.5309 35.7475   1
 -11  10  22 3.20039 31.4128   1
 -11  10  23-76.5947 44.7562   1
 -11  10  24 25.6038 43.6344   1
 -11  10  25-19.0816 18.3318   1
 -11  10  26-49.2368 46.6413   1
 -11  10  27 61.8947 45.6906   1
 -11  10  28-34.9393 25.9418   1
 -11  10  29-24.0106 31.1446   1
 -11  10  30 30.6064 31.4715   1
 -11   9   0-16.5387 27.2113   1
 -11   9  -1-5.49684 24.3945   1
 -11   9   1 47.1837 35.5842   1
 -11   9  -2 5.05043 15.1418   1
 -11   9   2 65.1183 45.8953   1
 -11   9  -3 25.5916 18.5534   1
 -11   9   3 12.8811 24.8290   1
 -11   9  -4-44.2768 27.4981   1
 -11   9   4-4.78944 21.5301   1
 -11   9  -5 24.7578 20.4602   1
 -11   9   5 48.3160 35.6126   1
 -11   9  -6 38.9859 20.7947   1
 -11   9   6-43.8284 28.7493   1
 -11   9  -7-14.7436 13.4379   1
 -11   9   7-43.8691 29.6940   1
 -11   9  -8 26.3224 25.3063   1
 -11   9   8 32.1418 39.4396   1
 -11   9  -9-20.9859 29.1699   1
 -11   9   9 4.60860 19.7349   1
 -11   9 -10 14.7075 23.3615   1
 -11   9  10 55.0084 38.6031   1
 -11   9 -11 8.81924 16.7903   1
 -11   9  11 21.7929 32.6214   1
 -11   9 -12 92.9750 40.4914   1
 -11   9  12-18.3595 35.5532   1
 -11   9 -13 17.9040 30.7036   1
 -11   9  13 34.6064 36.9561   1
 -11   9  14-76.9148 45.1267   1
 -11   9 -14-34.6255 43.5152   1
 -11   9  15-0.87682 22.6229   1
 -11   9 -15-29.0445 25.3121   1
 -11   9  16-17.6211 22.1455   1
 -11   9 -16 26.1570 26.8973   1
 -11   9  17 41.0443 46.7295   1
 -11   9  18-37.3167 18.7055   1
 -11   9  19 32.0809 25.9271   1
 -11   9  20-4.42376 18.3269   1
 -11   9  21 101.164 55.0904   1
 -11   9  22-9.32355 22.0945   1
 -11   9  23-43.8582 44.2887   1
 -11   9  24 4.02866 18.3792   1
 -11   9  25 20.6334 20.0437   1
 -11   9  26-39.7522 17.6972   1
 -11   9  27 24.8744 30.3550   1
 -11   9  28-8.31355 37.6423   1
 -11   9  29-15.6210 22.8975   1
 -11   9  30-9.74901 35.1559   1
 -11   9  31 38.6512 51.3907   1
 -11   9  32-5.05332 18.2194   1
 -11   8   0 7.04429 24.0113   1
 -11   8  -1 21.1627 16.0523   1
 -11   8   1 33.4332 18.9931   1
 -11   8  -2 12.0473 17.2830   1
 -11   8   2-6.78332 29.0637   1
 -11   8  -3 71.6698 37.8168   1
 -11   8   3 30.7161 28.8367   1
 -11   8  -4 52.2709 35.4027   1
 -11   8   4 19.8100 26.3676   1
 -11   8  -5 51.7343 37.5880   1
 -11   8   5 19.2362 25.7319   1
 -11   8  -6-7.77658 28.1522   1
 -11   8   6 18.3612 26.8885   1
 -11   8   7 76.4760 45.1254   1
 -11   8  -7 60.0770 35.9780   1
  -8 -11   8 1.79815 9.75410   1
 -11   8  -8-19.7630 18.6209   1
 -11   8   8 32.4994 20.4770   1
 -11   8  -9 16.1427 15.4477   1
 -11   8   9-59.2829 50.3446   1
 -11   8  10-40.4584 35.9634   1
 -11   8 -10-26.5510 27.5457   1
 -11   8  11 32.8490 28.0153   1
 -11   8 -11-55.5422 33.6640   1
 -11   8  12 32.5960 42.9099   1
 -11   8 -12-69.2713 42.4448   1
 -11   8  13 48.8745 33.6478   1
 -11   8  14 39.6843 35.0595   1
 -11   8  15 57.9850 34.8057   1
 -11   8  16-6.77346 14.7541   1
 -11   8  17 14.2982 25.7882   1
 -11   8  18-25.1493 24.9778   1
 -11   8  19 19.0897 27.4869   1
 -11   8  20 1.85580 26.6529   1
 -11   8  21 10.7061 18.9327   1
 -11   8  22 20.5239 24.6051   1
 -11   8  23 42.1765 40.7261   1
 -11   8  24-41.6991 32.8334   1
 -11   8  25 82.9690 51.1114   1
 -11   8  26 63.1574 38.5142   1
 -11   8  27-15.3309 37.5743   1
 -11   8  28 19.2636 25.0416   1
 -11   8  29 28.9445 43.2053   1
 -11   8  30 24.1891 20.8158   1
 -11   8  31 51.9458 46.6669   1
 -11   8  32-22.3917 44.7793   1
 -11   8  33 28.3248 49.4862   1
 -11   7   0 32.0560 35.2308   1
 -11   7  -1-25.2084 24.8345   1
 -11   7   1-6.61146 17.8274   1
 -11   7  -2 36.0651 32.6463   1
 -11   7   2 8.28914 20.8075   1
 -11   7   3 27.4108 28.2102   1
 -11   7  -3 19.8864 12.5067   1
 -11   7  -4 20.2595 19.0402   1
 -11   7   4 48.5074 36.5430   1
 -11   7  -5 46.7082 38.7998   1
 -11   7   5 32.1057 17.7217   1
 -11   7  -6-12.8795 19.3766   1
 -11   7   6 18.2477 23.7818   1
 -11   7   7 36.3351 34.5740   1
 -11   7  -7 4.19626 16.9915   1
 -11   7   8-7.60256 21.7090   1
  -7 -11   8-3.34150 13.0622   1
 -11   7  -8 28.0321 22.0533   1
 -11   7   9 6.14822 18.5932   1
 -11   7  10 35.8194 41.2209   1
 -11   7  11 34.4234 38.8031   1
 -11   7  12 34.2921 46.3060   1
 -11   7  13 15.6135 26.5738   1
 -11   7  14 18.6373 14.5511   1
 -11   7  15-26.8536 18.7982   1
 -11   7  16 60.6533 51.4959   1
 -11   7  17-28.0512 27.0599   1
 -11   7  18 6.56018 25.6999   1
 -11   7  19-2.28625 27.9853   1
 -11   7  20 68.5998 39.5451   1
 -11   7  21 59.1649 45.2247   1
 -11   7  22-8.18094 30.7406   1
 -11   7  23-3.27000 17.0281   1
 -11   7  24 43.9143 40.0667   1
 -11   7  25 52.9020 30.0970   1
 -11   7  26 8.49957 21.5579   1
 -11   7  27 8.16217 27.2262   1
 -11   7  28-11.7846 22.9250   1
 -11   7  29 108.659 53.7714   1
 -11   7  30 15.0683 34.3851   1
 -11   7  31 92.6754 63.9509   1
 -11   7  32-8.68504 30.0170   1
 -11   7  33 18.6774 23.5735   1
 -11   7  34-15.9521 22.6862   1
 -11   7  35 72.7269 62.4753   1
 -11   6   0 10.0613 16.6551   1
 -11   6  -1 49.0726 37.1848   1
 -11   6   1 32.5126 21.8804   1
 -11   6  -2 109.784 46.8078   1
 -11   6   2 68.1202 40.2092   1
 -11   6  -3 45.7552 40.4187   1
 -11   6   3 11.8530 26.5388   1
 -11   6   4 21.6729 17.5794   1
 -11   6  -4 2.81956 26.4702   1
 -11   6   5-21.1685 18.5643   1
 -11   6  -5 26.2810 22.7399   1
 -11   6   6 41.8446 35.8349   1
 -11   6   7-15.8425 27.5698   1
 -11   6   8-15.9797 29.1170   1
  -6 -11   8 8.90560 19.0097   1
  -6 -11   9 10.3681 12.7399   1
 -11   6   9 34.6620 37.9016   1
 -11   6  10 61.9025 38.4491   1
 -11   6  11 24.9997 20.7774   1
 -11   6  12-11.4630 18.7265   1
 -11   6  13 13.2803 21.2905   1
 -11   6  14 71.0784 50.7655   1
 -11   6  15-33.2990 33.4131   1
 -11   6  16-8.39213 31.7362   1
 -11   6  17-74.2746 48.1507   1
 -11   6  18 45.5914 36.2469   1
 -11   6  19-24.5349 33.4174   1
 -11   6  20-14.6947 31.5206   1
 -11   6  21 19.5078 36.4165   1
 -11   6  22 37.1972 39.6932   1
 -11   6  23 47.0351 38.3448   1
 -11   6  24-64.8501 51.6566   1
 -11   6  25-12.9178 23.4748   1
 -11   6  26 16.8437 28.4851   1
 -11   6  27-25.1050 39.5726   1
 -11   6  28-10.4410 17.1508   1
 -11   6  29-23.2748 47.0060   1
 -11   6  30-21.9151 18.9508   1
 -11   6  31 45.0001 45.6503   1
 -11   6  32 4.63924 23.0373   1
 -11   6  33-24.8285 25.9143   1
 -11   6  34 32.2110 38.4655   1
 -11   6  35-50.8635 50.6438   1
 -11   6  36 9.67939 19.7832   1
 -11   6  37-13.4407 37.8513   1
 -11   5   0 109.031 46.9551   1
 -11   5  -1-7.93518 21.5251   1
 -11   5   1-15.6546 22.8523   1
 -11   5   2-1.58678 17.3926   1
 -11   5  -2-3.35480 24.7477   1
 -11   5   3-12.3476 17.1041   1
 -11   5  -3-10.1572 16.4198   1
 -11   5   4 95.1706 39.7883   1
 -11   5   5 16.5294 28.2573   1
 -11   5   6 11.3252 23.9146   1
 -11   5   7-1.52416 28.4602   1
  -5 -11   8 92.0465 24.6485   1
 -11   5   8 61.1913 37.1538   1
 -11   5   9-12.7376 22.2796   1
 -11   5  10 24.0564 35.6099   1
 -11   5  11 27.8544 27.7392   1
 -11   5  12 4.80021 27.1101   1
 -11   5  13 14.6871 26.4011   1
 -11   5  14 15.7781 17.3315   1
 -11   5  15-18.4049 22.3559   1
 -11   5  16 71.5832 32.7161   1
 -11   5  17 9.99047 28.0511   1
 -11   5  18-19.4780 24.4227   1
 -11   5  19-3.62951 32.5890   1
 -11   5  20 32.5389 37.7894   1
 -11   5  21 55.3422 37.2578   1
 -11   5  22-8.42902 26.1709   1
 -11   5  23 22.7057 21.6736   1
 -11   5  24 35.6565 40.4156   1
 -11   5  25 45.2919 32.5757   1
 -11   5  26-24.7209 34.6545   1
 -11   5  27-7.10236 20.2558   1
 -11   5  28-19.1030 25.5868   1
 -11   5  29-70.5091 56.6170   1
 -11   5  30 28.8017 34.2455   1
 -11   5  31-33.5018 28.8801   1
 -11   5  32-6.47174 18.0337   1
 -11   5  33 8.47410 27.4357   1
 -11   5  34 5.22657 24.2961   1
 -11   5  35 14.8480 35.0621   1
 -11   5  36 64.0337 48.6906   1
 -11   5  37-35.0241 42.9192   1
 -11   5  38-0.82620 28.9829   1
 -11   4   0-29.0904 33.2722   1
 -11   4   1-39.7282 35.7077   1
 -11   4  -1-29.9489 27.4237   1
 -11   4   2 45.7517 24.7957   1
 -11   4   3 65.6315 47.3903   1
 -11   4   4 30.1388 39.7378   1
 -11   4   5-19.7033 17.2924   1
 -11   4   6 33.2951 30.2203   1
  -4 -11   7-0.02314 6.94163   1
 -11   4   7-18.0896 25.1905   1
  -4 -11   8 20.2489 8.50320   1
 -11   4   8 8.81285 21.1850   1
 -11   4   9 54.1039 33.7573   1
 -11   4  10 3.80403 22.3159   1
 -11   4  11-22.6223 22.1440   1
 -11   4  12 30.1760 36.3214   1
 -11   4  13-6.64341 16.9118   1
 -11   4  14 37.5302 44.0959   1
 -11   4  15-12.3680 18.2966   1
 -11   4  16-6.73794 30.2615   1
 -11   4  17 18.7044 36.7019   1
 -11   4  18 85.8832 48.2829   1
 -11   4  19 39.7956 25.4222   1
 -11   4  20-9.79812 27.1016   1
 -11   4  21 53.2413 39.0592   1
 -11   4  22-16.1568 17.5892   1
 -11   4  23 35.2769 37.6423   1
 -11   4  24-34.0183 31.1049   1
 -11   4  25-39.7872 40.5557   1
 -11   4  26-7.27329 25.9555   1
 -11   4  27-41.4225 44.2528   1
 -11   4  28 45.9380 32.4513   1
 -11   4  29 82.1651 50.3655   1
 -11   4  30 4.00994 32.0229   1
 -11   4  31 89.9961 60.9335   1
 -11   4  32-5.55811 31.2654   1
 -11   4  33 44.8232 38.4160   1
 -11   4  34 29.4356 35.3636   1
 -11   4  35 19.7185 23.0055   1
 -11   4  36-18.1418 53.7284   1
 -11   4  37 13.8741 27.1044   1
 -11   4  38-52.6539 23.5829   1
 -11   4  39 14.2991 33.4000   1
 -11   3   1-4.89085 24.5290   1
  -3 -11  -2 24.6903 12.4140   1
 -11   3   2 3.59304 15.8659   1
 -11   3   3 35.8325 27.9315   1
  -3 -11  -3 32.4535 12.3339   1
 -11   3   4-12.6766 17.6079   1
  -3 -11  -4 20.7740 17.8920   1
 -11   3   5 42.9913 32.1128   1
  -3 -11   6 7.53177 4.47108   1
 -11   3   6 27.0760 29.1770   1
 -11   3   7 33.3764 34.7659   1
 -11   3   8 22.9086 28.9587   1
 -11   3   9 46.5547 31.0851   1
 -11   3  10 37.8343 22.3894   1
 -11   3  11 6.22760 31.5613   1
 -11   3  12 72.1871 39.5909   1
 -11   3  13-28.3394 32.0658   1
 -11   3  14 7.41275 19.5969   1
 -11   3  15 44.8435 25.4399   1
 -11   3  16-12.8268 17.0775   1
 -11   3  17 48.1060 41.4347   1
 -11   3  18 37.3907 43.5836   1
 -11   3  19 53.4912 40.5139   1
 -11   3  20-15.7507 29.9378   1
 -11   3  21 47.2842 39.6453   1
 -11   3  22-19.6371 36.1305   1
 -11   3  23 36.5374 30.9908   1
 -11   3  24-1.30848 25.3342   1
 -11   3  25 66.0484 38.7780   1
 -11   3  26-36.0525 27.8823   1
 -11   3  27 71.4860 50.9757   1
 -11   3  28 48.9704 40.9562   1
 -11   3  29-10.2271 36.9262   1
 -11   3  30-30.9739 34.4757   1
 -11   3  31 20.9786 19.3118   1
 -11   3  32-27.9944 39.1936   1
 -11   3  33 105.341 55.0226   1
 -11   3  34 48.3464 44.3477   1
 -11   3  35-1.35495 27.2523   1
 -11   3  36 55.0209 36.4070   1
 -11   3  37 22.2568 40.5925   1
 -11   3  38 4.54511 17.8916   1
 -11   3  39 12.0809 18.4223   1
 -11   3  40 7.69350 36.8498   1
  -2 -11   0-4.84128 7.18024   1
  -2 -11   1 12.0701 8.20273   1
  -2 -11  -1 17.9446 11.7964   1
  -2 -11   2 18.1510 5.78805   1
  -2 -11  -2 27.9311 12.4796   1
  -2 -11  -3 1.48240 13.9994   1
  -2 -11   3-2.73777 3.65004   1
 -11   2   3 1.40377 20.0330   1
  -2 -11  -4 31.4564 14.4527   1
  -2 -11   4 2.42001 3.06284   1
 -11   2   4 23.0471 24.2309   1
 -11   2   5 11.4063 28.4594   1
  -2 -11  -5-8.91641 16.5394   1
 -11   2   6 24.5356 29.6923   1
  -2 -11  -6 24.2382 11.7807   1
 -11   2   7 29.1124 32.3112   1
  -2 -11  -7 25.4325 14.7306   1
 -11   2   8-8.90659 14.8180   1
 -11   2   9-3.38782 20.3168   1
 -11   2  10 64.4273 39.3138   1
 -11   2  11 54.4195 31.0305   1
 -11   2  12-14.2119 23.5138   1
 -11   2  13 43.6274 45.6914   1
 -11   2  14 54.9105 41.8773   1
 -11   2  15-27.5765 16.6492   1
 -11   2  16-4.69968 14.6225   1
 -11   2  17 30.4102 33.1120   1
 -11   2  18 43.0028 28.2797   1
 -11   2  19 33.5424 29.8883   1
 -11   2  20 20.6551 31.6442   1
 -11   2  21 67.2953 40.6263   1
 -11   2  22-35.4851 29.5557   1
 -11   2  23 65.9620 42.4798   1
 -11   2  24 17.1064 33.2809   1
 -11   2  25 66.8662 44.3119   1
 -11   2  26 9.09365 26.6549   1
 -11   2  27 40.0907 38.5697   1
 -11   2  28 62.2663 30.7407   1
 -11   2  29 3.69792 30.3795   1
 -11   2  30-13.4232 21.3657   1
 -11   2  31 56.6991 44.7599   1
 -11   2  32-40.6942 31.4644   1
 -11   2  33 108.868 56.8223   1
 -11   2  34 3.86503 34.3310   1
 -11   2  35 84.9592 49.2343   1
 -11   2  36 16.5533 37.0800   1
 -11   2  37-1.75762 29.7667   1
 -11   2  38-9.77626 34.1525   1
 -11   2  39-20.2670 17.6685   1
 -11   2  40-40.9497 53.6832   1
 -11   2  41 40.2416 43.8032   1
  -1 -11   0 169.026 23.8479   1
  -1 -11   1-3.34575 6.15210   1
  -1 -11  -1 8.06333 10.6443   1
  -1 -11   2 14.9974 6.83482   1
  -1 -11  -2 11.8206 5.60659   1
  -1 -11  -3-2.34076 8.80150   1
  -1 -11  -4 195.334 32.7736   1
  -1 -11  -5 39.5825 13.7612   1
 -11   1   5 4.97587 17.7446   1
 -11   1   6 8.25827 14.2859   1
  -1 -11  -6 7.82823 9.25528   1
 -11   1   7 13.4658 14.9829   1
  -1 -11  -7 12.1291 11.4563   1
 -11   1   8 40.6813 36.6370   1
  -1 -11  -8 81.6024 26.1751   1
 -11   1   9 4.73989 25.6105   1
 -11   1  10 44.4796 30.7227   1
 -11   1  11 12.5610 29.9165   1
 -11   1  12 81.9912 38.2326   1
 -11   1  13 9.14173 15.7095   1
 -11   1  14 17.9047 24.8094   1
 -11   1  15-22.6591 23.0951   1
 -11   1  16 112.930 53.4321   1
 -11   1  17 55.6126 38.4325   1
 -11   1  18 18.6146 29.6216   1
 -11   1  19 34.9880 26.6783   1
 -11   1  20 12.3995 31.3760   1
 -11   1  21 23.4270 36.9298   1
 -11   1  22-28.5299 27.9847   1
 -11   1  23 13.1160 31.1812   1
 -11   1  24 57.1557 43.0531   1
 -11   1  25 20.4416 28.5931   1
 -11   1  26 0.11501 36.2723   1
 -11   1  27 37.6958 40.7444   1
 -11   1  28 20.1808 15.4257   1
 -11   1  29 11.0115 26.2672   1
 -11   1  30-2.38052 26.3284   1
 -11   1  31-11.8635 30.0926   1
 -11   1  32-14.0753 23.9872   1
 -11   1  33 28.2716 31.1847   1
 -11   1  34 7.84753 30.4474   1
 -11   1  35 20.1153 26.7908   1
 -11   1  36-25.5194 45.9061   1
 -11   1  37 32.0988 29.4597   1
 -11   1  38 41.5762 33.0036   1
 -11   1  39-113.828 69.9438   1
 -11   1  40 8.03077 21.2731   1
 -11   1  41 1.20483 20.8202   1
 -11   1  42-18.5173 27.0075   1
   0 -11   0 6.15609 7.04357   1
   0 -11  -1 17.1301 7.88306   1
   0 -11   1 6.45125 6.29386   1
   0 -11  -2 269.389 33.1277   1
   0 -11  -3-2.69333 10.5374   1
   0 -11  -4 38.8004 15.5691   1
   0 -11  -5 13.3710 8.44060   1
   0 -11  -6 352.262 48.3289   1
 -11   0   6 272.520 72.5537   1
 -11   0   7-34.7329 24.2603   1
   0 -11  -7 0.37595 9.10523   1
 -11   0   8-54.9415 39.5610   1
   0 -11  -8 40.9789 18.0876   1
 -11   0   9-17.7493 20.5366   1
 -11   0  10 125.051 53.2504   1
 -11   0  11-14.8087 20.4017   1
 -11   0  12 26.0033 35.1988   1
 -11   0  13 12.8129 27.2849   1
 -11   0  14 15.3125 24.5509   1
 -11   0  15 23.9829 39.7609   1
 -11   0  16 11.4775 17.7449   1
 -11   0  17-5.49461 27.8244   1
   0  11  17-0.27394 22.5924   1
   0  11  18 13.4799 11.6369   1
 -11   0  18-9.31954 27.4144   1
 -11   0  19-57.4088 35.8141   1
   0  11  19 12.3453 22.4061   1
 -11   0  20 13.6032 26.7904   1
   0  11  20 12.0373 12.0310   1
 -11   0  21 48.8316 40.6734   1
   0  11  21 34.4237 27.3438   1
 -11   0  22 15.4532 17.2358   1
   0  11  22 80.3130 38.5335   1
 -11   0  23 53.4285 29.5628   1
   0  11  23 35.3525 15.0772   1
 -11   0  24-7.63612 28.4053   1
   0  11  24-3.54515 17.3294   1
 -11   0  25-24.8307 20.1582   1
   0  11  25 6.77769 13.7554   1
 -11   0  26-7.76980 17.8503   1
   0  11  26 10.0550 25.4859   1
   0  11  27 0.12883 18.9321   1
 -11   0  27 20.9339 30.9828   1
 -11   0  28 39.9988 41.1711   1
   0  11  28 72.0759 41.8952   1
 -11   0  29 4.16338 26.7741   1
   0  11  29 30.1677 17.5980   1
 -11   0  30 1.25050 17.5088   1
   0  11  30-4.47303 23.8600   1
 -11   0  31-4.63833 21.3070   1
   0  11  31 86.6032 44.0677   1
   0  11  32-59.5965 49.0305   1
 -11   0  32 18.7160 33.4374   1
   0  11  33-35.5139 48.1299   1
 -11   0  33 40.0609 41.5365   1
   0  11  34 35.5997 33.5042   1
 -11   0  34 2.07835 25.0565   1
   0  11  35-27.9116 25.7906   1
 -11   0  35 34.6555 33.7166   1
   0  11  36 4.32760 21.1306   1
 -11   0  36-35.0248 41.5226   1
   0  11  37-61.6992 39.9771   1
 -11   0  37 18.1573 25.3000   1
   0  11  38-76.9739 56.2598   1
 -11   0  38 71.4678 49.8144   1
   0  11  39 27.3193 55.1566   1
 -11   0  39 28.9042 38.4731   1
 -11   0  40 22.0010 33.5554   1
 -11   0  41 18.3759 23.5732   1
 -11   0  42 73.6865 59.7637   1
 -11   0  43 122.847 76.8204   1
   1 -11  -1 17.1700 9.66038   1
   1 -11  -2 2.58205 5.68247   1
   1 -11  -3-13.0907 11.0223   1
   1 -11  -4 202.525 34.2627   1
   1 -11  -5 43.8691 17.3836   1
   1 -11  -6 4.55274 10.1895   1
 -11  -1   7 16.4343 37.7934   1
   1 -11  -7 29.6890 17.3848   1
  -1  11   7 13.3491 17.6049   1
   1 -11  -8 119.321 34.9688   1
  -1  11   8 96.4333 31.6685   1
 -11  -1   8 66.5447 43.4199   1
 -11  -1   9 62.1533 48.0894   1
  -1  11   9 25.7691 18.7510   1
 -11  -1  10 2.81552 15.2317   1
  -1  11  10 45.3396 18.9765   1
  -1  11  11 5.37158 18.5969   1
 -11  -1  11-15.5117 25.3148   1
 -11  -1  12 37.0992 34.2116   1
  -1  11  12 98.2823 37.2707   1
 -11  -1  13 23.9117 40.2817   1
  -1  11  13-6.45707 19.2031   1
 -11  -1  14 24.1770 33.2799   1
  -1  11  14 22.8143 24.9497   1
 -11  -1  15 12.8068 18.1628   1
  -1  11  15-24.5990 16.1604   1
 -11  -1  16 45.5131 28.3542   1
  -1  11  16 112.320 40.0477   1
 -11  -1  17 5.37059 24.8316   1
  -1  11  17 3.67345 21.3183   1
 -11  -1  18-29.5345 35.7882   1
  -1  11  18-33.8581 22.0723   1
 -11  -1  19 30.0456 22.1165   1
  -1  11  19 31.6532 28.1591   1
 -11  -1  20 11.9397 15.5904   1
  -1  11  20 18.2339 21.2989   1
 -11  -1  21 75.9354 45.8328   1
  -1  11  21 37.5099 30.3039   1
 -11  -1  22 21.8948 32.2366   1
  -1  11  22-0.63324 20.1131   1
 -11  -1  23 83.5764 45.3852   1
  -1  11  23 26.0787 14.2711   1
 -11  -1  24 28.1351 19.3530   1
  -1  11  24 70.3378 40.1642   1
 -11  -1  25 19.0592 17.4009   1
  -1  11  25 41.7662 32.8708   1
 -11  -1  26 23.4488 21.9829   1
  -1  11  26 7.67922 22.4757   1
 -11  -1  27 18.1638 16.3299   1
  -1  11  27 39.2082 24.7333   1
 -11  -1  28-7.60032 21.7110   1
  -1  11  28 1.03276 19.2537   1
 -11  -1  29-60.1060 49.4503   1
  -1  11  29-49.6243 44.7014   1
 -11  -1  30-15.0049 30.6400   1
  -1  11  30 28.4091 20.5747   1
 -11  -1  31-28.3486 34.3421   1
  -1  11  31 29.0550 22.1652   1
  -1  11  32-15.7485 27.1992   1
 -11  -1  32 65.8271 41.0360   1
  -1  11  33 80.4290 34.4827   1
 -11  -1  33-22.6662 33.2984   1
  -1  11  34-0.83025 15.6627   1
 -11  -1  34 3.15013 21.4597   1
  -1  11  35-34.8535 48.6582   1
 -11  -1  35-7.06434 27.0906   1
  -1  11  36-33.0027 46.6669   1
 -11  -1  36 26.3016 41.7269   1
  -1  11  37 31.9578 35.4244   1
 -11  -1  37-2.92116 19.0462   1
  -1  11  38-6.90335 25.1004   1
 -11  -1  38 22.1992 43.9430   1
  -1  11  39 84.1889 52.9362   1
 -11  -1  39 23.1244 21.6014   1
  -1  11  40-24.9911 39.5173   1
 -11  -1  40 36.7582 41.8973   1
 -11  -1  41 90.9537 48.5074   1
  -1  11  41-12.5289 24.1904   1
 -11  -1  42 34.2049 38.3439   1
  -1  11  42-117.591 72.0701   1
 -11  -1  43-50.0609 38.0707   1
  -1  11  43-3.63986 19.4957   1
 -11  -1  44-52.9955 54.2832   1
  -2  11   0 6.58490 8.32679   1
  -2  11   1-4.01679 7.92915   1
  -2  11   2 40.5246 15.1724   1
  -2  11   3 11.8749 13.7107   1
   2 -11  -3 9.20568 9.52989   1
  -2  11   4-3.00843 9.41911   1
   2 -11  -4 0.66146 11.4624   1
   2 -11  -5 0.88162 11.0057   1
  -2  11   5 26.9942 18.4856   1
   2 -11  -6 100.730 28.1591   1
  -2  11   6 53.5778 19.6886   1
   2 -11  -7 16.5403 15.9713   1
  -2  11   7 24.0200 17.3996   1
  -2  11   8 1.22922 12.0663   1
 -11  -2   8 38.5857 35.5004   1
  -2  11   9 11.4581 15.6307   1
 -11  -2   9 36.4878 36.0061   1
 -11  -2  10 77.5675 42.5058   1
  -2  11  10 60.2528 23.0521   1
 -11  -2  11 38.1289 25.3573   1
  -2  11  11 27.8431 23.4495   1
 -11  -2  12 1.26826 30.3597   1
  -2  11  12 15.9892 19.5509   1
 -11  -2  13 13.6615 28.6715   1
  -2  11  13 44.4025 23.1764   1
 -11  -2  14 27.2234 22.0847   1
  -2  11  14 63.3657 27.8905   1
 -11  -2  15 7.46771 14.4151   1
  -2  11  15 40.5408 28.9556   1
 -11  -2  16-28.9600 24.5981   1
  -2  11  16-17.1683 21.1104   1
 -11  -2  17 15.0609 19.8766   1
  -2  11  17 52.1906 24.8309   1
 -11  -2  18 27.8110 32.1644   1
  -2  11  18 13.8723 19.3790   1
 -11  -2  19 56.8629 36.3134   1
  -2  11  19 14.1571 12.5563   1
 -11  -2  20 26.8573 37.5691   1
  -2  11  20 10.3780 27.3014   1
 -11  -2  21 54.6291 41.1862   1
  -2  11  21 14.0414 18.3350   1
 -11  -2  22-0.69136 15.0158   1
  -2  11  22 12.9535 21.2475   1
 -11  -2  23 10.0266 18.4800   1
  -2  11  23 53.5107 35.6528   1
 -11  -2  24 22.0892 28.8238   1
  -2  11  24-20.2091 22.8899   1
 -11  -2  25 24.0459 21.5701   1
  -2  11  25 44.6650 26.1099   1
 -11  -2  26 37.2114 30.2968   1
  -2  11  26 11.6585 15.7005   1
 -11  -2  27 45.9913 46.2959   1
  -2  11  27 49.1461 37.7122   1
  -2  11  28 34.9101 30.7028   1
 -11  -2  28-11.6548 27.4450   1
  -2  11  29 12.2248 30.4823   1
 -11  -2  29 32.0002 46.5557   1
  -2  11  30 8.11353 14.7271   1
 -11  -2  30 67.1039 44.5221   1
  -2  11  31 16.4724 22.7454   1
 -11  -2  31 43.9846 36.8109   1
  -2  11  32 42.6864 34.6898   1
 -11  -2  32 3.31726 22.1853   1
  -2  11  33 55.0696 43.0668   1
 -11  -2  33 22.3913 17.7532   1
  -2  11  34-3.15466 34.1361   1
 -11  -2  34-45.2382 29.2676   1
  -2  11  35 31.6645 35.9987   1
 -11  -2  35 86.9742 56.3013   1
  -2  11  36-7.66492 32.4462   1
 -11  -2  36 63.5402 33.0295   1
  -2  11  37 17.4645 16.6577   1
 -11  -2  37 9.80996 25.6653   1
  -2  11  38-46.6208 38.9729   1
 -11  -2  38 82.2525 52.9699   1
  -2  11  39-9.82878 33.9079   1
 -11  -2  39 98.4259 55.0100   1
  -2  11  40-39.4780 37.8532   1
 -11  -2  40 17.7802 39.6423   1
 -11  -2  41 7.50990 19.9847   1
  -2  11  41-49.8022 51.9846   1
  -2  11  42-46.8753 40.5047   1
 -11  -2  42 47.6383 39.0372   1
  -2  11  43-20.4980 44.6513   1
 -11  -2  43 62.7746 60.2842   1
 -11  -2  44-4.82197 27.2531   1
  -3  11   0-4.71712 9.09835   1
  -3  11   1-28.6209 12.9603   1
  -3  11  -1-8.46884 10.0507   1
  -3  11   2 11.2130 10.3048   1
  -3  11  -2 9.81632 6.01319   1
  -3  11   3 26.1178 19.2899   1
  -3  11  -3 3.90935 5.05405   1
  -3  11   4-12.0049 10.7894   1
  -3  11  -4 7.46066 6.71309   1
  -3  11   5-0.98829 11.5162   1
  -3  11  -5 2.06528 3.99061   1
   3 -11  -5-14.5611 7.31869   1
  -3  11   6 30.8120 16.6537   1
  -3  11   7-4.01468 18.9217   1
  -3  11   8 12.4832 15.7914   1
 -11  -3   8-1.98985 27.2132   1
  -3  11   9-10.1567 9.29683   1
 -11  -3   9 5.20863 13.8070   1
 -11  -3  10 47.7922 44.4057   1
  -3  11  10 4.79956 19.1401   1
 -11  -3  11 79.8049 44.4273   1
  -3  11  11 46.6494 25.0141   1
 -11  -3  12 18.6217 20.0091   1
  -3  11  12-40.7187 27.5216   1
 -11  -3  13 19.5379 37.9067   1
  -3  11  13-3.66862 20.2023   1
 -11  -3  14 14.5312 29.5258   1
  -3  11  14-21.8024 10.9361   1
 -11  -3  15 85.7849 44.0881   1
  -3  11  15 106.069 38.1654   1
 -11  -3  16 28.6142 25.6173   1
  -3  11  16 48.5516 33.1389   1
  -3  11  17 74.3128 37.2893   1
 -11  -3  17 55.1723 35.2326   1
  -3  11  18-8.85364 20.2183   1
 -11  -3  18 85.4503 47.7467   1
  -3  11  19 49.5978 32.0662   1
 -11  -3  19 35.1918 36.2527   1
  -3  11  20 3.06973 12.8195   1
 -11  -3  20 31.4806 31.6172   1
  -3  11  21 52.8188 30.5437   1
 -11  -3  21 24.7858 33.3134   1
  -3  11  22 26.9866 23.3308   1
 -11  -3  22 3.11320 30.4058   1
  -3  11  23 16.6102 13.5522   1
 -11  -3  23 12.8303 33.1425   1
  -3  11  24 2.99814 23.6359   1
 -11  -3  24 77.2210 45.6057   1
  -3  11  25 86.6319 38.6719   1
 -11  -3  25 30.6088 16.2283   1
  -3  11  26 29.8280 23.1815   1
 -11  -3  26 38.8863 31.1771   1
  -3  11  27 45.6061 27.6870   1
 -11  -3  27 29.3722 24.9817   1
 -11  -3  28-4.92852 19.5218   1
  -3  11  28 13.3974 16.8997   1
 -11  -3  29 63.7305 32.8423   1
  -3  11  29 24.8747 34.9196   1
 -11  -3  30 62.7654 48.0665   1
  -3  11  30 6.15857 24.8829   1
 -11  -3  31-8.77939 34.8312   1
  -3  11  31 10.8266 26.9977   1
 -11  -3  32-16.3006 33.9682   1
  -3  11  32-10.3173 29.9787   1
 -11  -3  33-35.6314 17.8497   1
  -3  11  33 27.6435 29.6876   1
 -11  -3  34-33.7743 28.0951   1
  -3  11  34-27.6160 37.9222   1
 -11  -3  35 65.2069 47.3813   1
  -3  11  35 35.0625 31.4119   1
 -11  -3  36 8.96762 19.0444   1
  -3  11  36 36.1117 39.1320   1
 -11  -3  37 59.5467 45.4241   1
  -3  11  37 79.3653 51.0139   1
  -3  11  38 53.4870 47.9731   1
 -11  -3  38 34.9100 41.2757   1
  -3  11  39 24.9288 37.0798   1
 -11  -3  39 2.11716 35.2058   1
  -3  11  40 30.7592 36.4889   1
 -11  -3  40-1.46767 30.2092   1
 -11  -3  41 32.7843 32.6690   1
  -3  11  41 45.9248 44.0683   1
 -11  -3  42-15.3604 31.5901   1
  -3  11  42 51.6214 56.0745   1
 -11  -3  43-28.0876 58.0199   1
  -3  11  43 106.763 45.5669   1
 -11  -3  44-35.0627 22.6197   1
 -11  -3  45-73.4190 47.0241   1
  -4  11   0 18.1818 13.9226   1
  -4  11  -1 12.0314 13.0659   1
  -4  11   1 11.0093 12.1277   1
  -4  11  -2 42.4489 19.3037   1
  -4  11   2 52.6596 22.3539   1
  -4  11  -3 14.8740 13.8474   1
  -4  11   3 10.3647 15.8300   1
  -4  11  -4-0.98431 9.45825   1
  -4  11   4 3.50804 9.20060   1
  -4  11  -5 14.0188 12.2160   1
  -4  11   5 19.3300 15.3810   1
  -4  11  -6 31.0758 12.0724   1
  -4  11   6-2.44851 15.4696   1
  -4  11  -7 3.36316 6.06099   1
  -4  11   7 10.6024 17.5516   1
  -4  11  -8 12.6562 6.76463   1
  -4  11   8 21.0961 10.5033   1
  -4  11   9-9.92075 22.0515   1
 -11  -4   9 16.7958 34.3431   1
  -4  11  10 90.5946 37.1499   1
 -11  -4  10 17.1116 19.1834   1
 -11  -4  11-56.4308 36.1643   1
  -4  11  11-10.2242 21.8391   1
 -11  -4  12-47.7423 28.0226   1
  -4  11  12 23.2328 18.7786   1
 -11  -4  13-21.0390 27.3978   1
  -4  11  13 20.6704 16.7967   1
 -11  -4  14 32.8362 26.7245   1
  -4  11  14 47.3444 28.2963   1
 -11  -4  15 56.1967 43.4581   1
  -4  11  15-9.62067 19.3651   1
 -11  -4  16 15.0770 30.7222   1
  -4  11  16 2.26235 15.9427   1
 -11  -4  17 44.6011 35.5213   1
  -4  11  17 31.4893 24.2481   1
 -11  -4  18 4.14266 23.4738   1
  -4  11  18 74.2164 44.1981   1
 -11  -4  19 13.5099 21.7569   1
  -4  11  19 65.4681 24.7408   1
 -11  -4  20-17.1365 29.9642   1
  -4  11  20 20.1523 16.5830   1
 -11  -4  21 40.6727 35.9849   1
  -4  11  21 0.60718 19.9079   1
 -11  -4  22 25.3173 33.5420   1
  -4  11  22 3.69635 15.1327   1
  -4  11  23 21.6554 26.0790   1
 -11  -4  23 56.4748 44.0035   1
  -4  11  24-19.8994 15.0145   1
 -11  -4  24 35.5932 32.2979   1
  -4  11  25-18.8572 28.5516   1
 -11  -4  25 10.1951 15.7473   1
  -4  11  26 18.7674 19.8142   1
 -11  -4  26 35.3898 42.8521   1
  -4  11  27 18.0973 17.7380   1
 -11  -4  27 74.6205 49.7835   1
  -4  11  28 2.94170 16.6067   1
 -11  -4  28-35.1291 27.1748   1
  -4  11  29 16.0280 23.2370   1
 -11  -4  29 1.08556 23.4243   1
  -4  11  30 22.2313 37.8377   1
 -11  -4  30-17.8341 25.4362   1
  -4  11  31 48.3577 38.3817   1
 -11  -4  31 50.0767 44.3948   1
  -4  11  32-7.02539 25.9694   1
 -11  -4  32-56.3580 34.8677   1
  -4  11  33 64.1708 41.5506   1
 -11  -4  33 65.2437 46.7917   1
  -4  11  34 15.0901 23.5672   1
 -11  -4  34 36.9903 43.3972   1
  -4  11  35-20.9384 21.3173   1
 -11  -4  35 35.3933 30.6228   1
  -4  11  36-6.69130 24.9975   1
 -11  -4  36-9.41107 24.0670   1
  -4  11  37 59.0085 44.8922   1
 -11  -4  37 16.1158 19.0028   1
  -4  11  38-18.8897 20.5324   1
 -11  -4  38-6.00304 28.3553   1
  -4  11  39 48.8398 57.6257   1
 -11  -4  39 11.3335 23.4014   1
  -4  11  40 57.9964 49.5171   1
 -11  -4  40 8.96706 21.4041   1
 -11  -4  41-1.83469 29.5486   1
  -4  11  41 74.5722 60.2880   1
 -11  -4  42 1.54079 32.4846   1
  -4  11  42-38.0529 49.0422   1
 -11  -4  43-8.41290 29.9630   1
 -11  -4  44-67.8371 56.2150   1
 -11  -4  45 82.4551 45.3926   1
  -5  11   0 167.676 38.2035   1
  -5  11  -1-27.0820 13.2904   1
  -5  11   1 4.16168 12.4882   1
  -5  11  -2-7.58876 13.2421   1
  -5  11   2-11.0157 19.0941   1
  -5  11  -3-12.4425 10.6250   1
  -5  11   3 20.7598 21.7948   1
  -5  11   4 70.9402 29.1988   1
  -5  11  -4 63.0185 19.4294   1
  -5  11   5 32.8752 9.22435   1
  -5  11  -5-39.0643 19.1584   1
  -5  11   6 16.5447 11.9242   1
  -5  11  -6-19.3208 13.4185   1
  -5  11   7 40.6123 21.1131   1
  -5  11  -7 0.02978 7.54451   1
  -5  11   8 59.5288 31.2676   1
  -5  11  -8 84.6389 21.9005   1
  -5  11   9 6.66519 20.0266   1
  -5  11  -9-12.4685 11.8054   1
 -11  -5   9 20.2461 25.2964   1
  -5  11  10-1.51825 17.9643   1
 -11  -5  10-3.59901 13.7906   1
 -11  -5  11 19.0796 28.7826   1
  -5  11  11 25.3523 21.7998   1
 -11  -5  12 49.4246 38.0798   1
  -5  11  12-4.90259 19.2636   1
 -11  -5  13 18.8480 28.2548   1
  -5  11  13-3.10297 15.0543   1
 -11  -5  14 21.8656 26.1438   1
  -5  11  14 23.1772 28.4659   1
 -11  -5  15-24.7198 24.9513   1
  -5  11  15 41.8763 26.6308   1
 -11  -5  16-19.4761 30.9130   1
  -5  11  16 94.5699 35.8218   1
 -11  -5  17 4.20919 14.8391   1
  -5  11  17 16.5708 31.0081   1
 -11  -5  18 34.4029 29.2202   1
  -5  11  18 0.61010 17.0573   1
 -11  -5  19 21.7103 34.4798   1
  -5  11  19 45.6614 31.5588   1
 -11  -5  20 22.2998 22.7267   1
  -5  11  20 17.8336 20.8285   1
 -11  -5  21-4.61575 17.6590   1
  -5  11  21-12.6936 14.9276   1
 -11  -5  22-18.3091 32.8375   1
  -5  11  22 32.7015 25.9187   1
 -11  -5  23-21.3554 42.8445   1
  -5  11  23-34.9197 25.2137   1
 -11  -5  24-40.0177 30.4435   1
  -5  11  24 16.3205 21.9650   1
 -11  -5  25 16.4352 25.4251   1
  -5  11  25-19.0796 13.4581   1
 -11  -5  26 18.5350 30.8226   1
  -5  11  26 0.66160 21.0946   1
 -11  -5  27 20.9850 34.0810   1
  -5  11  27-5.04319 24.6748   1
 -11  -5  28 10.9543 18.4739   1
  -5  11  28 29.7862 34.8335   1
 -11  -5  29-16.6949 27.4513   1
  -5  11  29-10.8584 23.8894   1
  -5  11  30-24.7245 34.6299   1
 -11  -5  30-40.6119 44.6515   1
  -5  11  31-2.30244 20.7912   1
 -11  -5  31-42.0829 43.9961   1
  -5  11  32 14.6175 21.9157   1
 -11  -5  32-11.6841 31.6542   1
  -5  11  33-50.6463 40.8200   1
 -11  -5  33-50.0474 48.6836   1
  -5  11  34-17.5925 30.5953   1
 -11  -5  34-18.0218 18.9580   1
  -5  11  35 12.4594 22.1250   1
 -11  -5  35 82.0614 52.5406   1
  -5  11  36-28.1862 34.9099   1
 -11  -5  36 27.5113 29.8468   1
  -5  11  37 58.9476 47.7897   1
 -11  -5  37 43.9433 37.3806   1
  -5  11  38-16.3200 17.9966   1
 -11  -5  38 39.3131 35.5974   1
  -5  11  39-25.6464 38.4621   1
 -11  -5  39-16.2144 24.3828   1
  -5  11  40 39.2592 45.8422   1
 -11  -5  40-35.4693 33.4385   1
 -11  -5  41-18.7644 31.3110   1
  -5  11  41 39.1699 20.8692   1
 -11  -5  42 41.9410 42.7682   1
 -11  -5  43 13.0921 43.2399   1
 -11  -5  44 54.5212 39.4087   1
  -6  11   0 13.7430 10.1882   1
  -6  11  -1 17.5527 17.7618   1
  -6  11   1-2.53304 12.3471   1
  -6  11  -2 113.528 31.6891   1
  -6  11   2 120.311 35.3919   1
  -6  11  -3 2.05506 14.3270   1
  -6  11   3 9.15585 13.8299   1
  -6  11  -4-14.3373 16.1036   1
  -6  11   4-21.1687 13.7825   1
  -6  11   5 2.19526 14.6230   1
  -6  11  -5 14.4769 10.0258   1
  -6  11   6 66.1249 24.4670   1
  -6  11  -6 76.0809 21.7599   1
  -6  11   7 19.0038 10.2413   1
  -6  11  -7-15.3749 9.93905   1
  -6  11   8-26.3982 12.9504   1
  -6  11  -8 0.47540 11.9307   1
  -6  11   9-5.79979 17.8887   1
  -6  11  -9-14.1521 8.55479   1
 -11  -6   9 3.14312 18.4522   1
  -6  11  10 131.501 45.2252   1
 -11  -6  10 60.8937 37.8461   1
 -11  -6  11-13.9891 19.0664   1
  -6  11  11 33.3022 14.3434   1
 -11  -6  12 46.4706 36.7057   1
  -6  11  12 0.14886 15.9021   1
 -11  -6  13 9.09574 20.1125   1
  -6  11  13 4.95739 17.3668   1
 -11  -6  14 33.1574 14.2827   1
  -6  11  14 85.2945 42.9686   1
 -11  -6  15-33.1730 48.3249   1
  -6  11  15 21.2558 21.7922   1
 -11  -6  16 19.0007 25.5035   1
  -6  11  16-32.0373 23.5784   1
 -11  -6  17 4.34964 18.5553   1
  -6  11  17 11.1744 23.5464   1
 -11  -6  18-14.8536 29.6169   1
  -6  11  18 102.135 40.4041   1
 -11  -6  19 23.8039 36.5178   1
  -6  11  19 17.5318 14.2887   1
 -11  -6  20-2.24998 18.2347   1
  -6  11  20-21.8102 24.1193   1
 -11  -6  21 47.9628 34.4531   1
  -6  11  21-42.1873 36.2814   1
 -11  -6  22 70.1916 37.2477   1
  -6  11  22 89.5686 42.2459   1
 -11  -6  23 4.44533 13.8847   1
  -6  11  23 5.39137 26.2341   1
 -11  -6  24-17.8230 32.5079   1
  -6  11  24-9.33804 15.8610   1
 -11  -6  25 32.7772 28.6214   1
  -6  11  25-34.2824 31.1045   1
 -11  -6  26 25.8268 32.3720   1
  -6  11  26-11.3591 19.7160   1
 -11  -6  27 4.49784 21.6570   1
  -6  11  27-31.7771 34.5364   1
 -11  -6  28 26.2468 34.6250   1
  -6  11  28 17.1919 18.3876   1
 -11  -6  29 29.3511 38.1800   1
  -6  11  29 3.65054 18.5492   1
 -11  -6  30 23.0180 31.2790   1
  -6  11  30-12.9548 36.9284   1
 -11  -6  31 4.91236 26.5799   1
  -6  11  31 9.60598 24.0678   1
 -11  -6  32-19.7969 32.2309   1
  -6  11  32-28.4685 28.3118   1
 -11  -6  33 0.57994 36.3082   1
  -6  11  33 49.0191 47.2372   1
 -11  -6  34-1.37459 18.8863   1
  -6  11  34 14.9760 30.3245   1
 -11  -6  35-54.7086 48.1956   1
  -6  11  35 25.6320 37.8405   1
  -6  11  36 101.010 63.5644   1
 -11  -6  36 19.0599 37.8641   1
  -6  11  37 80.6627 53.2341   1
 -11  -6  37-22.0525 39.2825   1
  -6  11  38 41.5383 45.0535   1
 -11  -6  38 18.8987 31.2184   1
  -6  11  39-3.63269 30.8066   1
 -11  -6  39 54.3217 33.0015   1
 -11  -6  40 30.4993 39.2841   1
 -11  -6  41-51.7661 42.6059   1
  -7  11   0 56.4263 28.7740   1
  -7  11  -1 32.8839 17.2268   1
  -7  11   1 24.1441 22.0054   1
  -7  11  -2-5.99601 11.3987   1
  -7  11   2-3.16381 16.9161   1
  -7  11  -3 9.54949 19.0387   1
  -7  11   3 2.18745 18.8188   1
  -7  11  -4 67.1727 26.0313   1
  -7  11   4 73.3566 34.8898   1
  -7  11  -5 14.6242 20.3484   1
  -7  11   5 37.6172 28.8091   1
  -7  11  -6-6.65310 19.1385   1
  -7  11   6 6.05214 20.1035   1
  -7  11  -7 8.27145 13.4848   1
  -7  11   7 44.3625 23.9419   1
  -7  11  -8 5.57488 10.1495   1
  -7  11   8 11.7480 14.1564   1
  -7  11  -9 14.6314 16.5366   1
 -11  -7   9 23.5070 20.8819   1
  -7  11   9-4.13767 25.1295   1
  -7  11  10-7.72921 27.0388   1
 -11  -7  10 1.99434 13.2630   1
 -11  -7  11 34.7062 32.2520   1
  -7  11  11-5.88575 25.1622   1
 -11  -7  12 16.2749 23.6762   1
  -7  11  12 31.8005 26.7940   1
 -11  -7  13 42.3752 37.8391   1
  -7  11  13 68.9600 43.4188   1
 -11  -7  14 39.3559 40.9558   1
  -7  11  14-9.03415 25.5628   1
 -11  -7  15 34.4334 33.6128   1
  -7  11  15-37.3111 28.3576   1
 -11  -7  16 68.7296 37.2987   1
  -7  11  16 38.1572 31.3828   1
 -11  -7  17-17.4123 25.2989   1
  -7  11  17 33.5253 28.4085   1
 -11  -7  18 40.9637 36.4296   1
  -7  11  18 2.07612 19.6658   1
 -11  -7  19 57.1984 46.4359   1
  -7  11  19 2.12880 25.9168   1
 -11  -7  20 116.540 53.7445   1
  -7  11  20 27.3799 29.6171   1
 -11  -7  21 47.5413 40.8586   1
  -7  11  21 35.5563 36.8429   1
 -11  -7  22 56.9108 45.7110   1
  -7  11  22 101.019 56.1099   1
 -11  -7  23 36.7476 39.7210   1
  -7  11  23-14.7725 31.5671   1
 -11  -7  24 63.4567 42.1661   1
  -7  11  24 0.61999 25.5419   1
 -11  -7  25 1.39687 15.6776   1
  -7  11  25-39.0771 44.8876   1
 -11  -7  26-33.1006 25.9158   1
  -7  11  26 31.3374 27.4374   1
 -11  -7  27-9.53079 28.3261   1
  -7  11  27 11.0105 31.7972   1
 -11  -7  28 35.1872 37.4992   1
  -7  11  28-27.3212 40.0644   1
 -11  -7  29 45.9797 28.6620   1
  -7  11  29 16.3874 24.9075   1
 -11  -7  30 1.70759 25.5247   1
  -7  11  30 33.0850 43.6325   1
 -11  -7  31 7.84818 16.0828   1
  -7  11  31-18.1560 42.2168   1
 -11  -7  32 24.0726 41.1471   1
  -7  11  32-40.5464 38.8833   1
  -7  11  33 36.8888 48.3876   1
 -11  -7  33-13.1248 24.0922   1
  -7  11  34 83.5332 56.5375   1
 -11  -7  34-24.6432 20.9202   1
  -7  11  35 34.0709 37.0320   1
 -11  -7  35 5.16057 21.2907   1
  -7  11  36-4.86722 29.8749   1
 -11  -7  36-57.4507 39.1143   1
  -7  11  37 63.9064 43.8172   1
  -7  11  38 57.2212 54.1489   1
  -8  11   0 21.3153 25.6111   1
  -8  11  -1-11.1681 20.7310   1
  -8  11   1-20.4123 13.9104   1
  -8  11  -2-7.29783 21.5302   1
  -8  11   2-22.2837 34.7421   1
  -8  11  -3 17.5545 19.5202   1
  -8  11   3-19.2005 16.0620   1
  -8  11  -4 9.99586 11.4114   1
  -8  11   4 37.7101 17.0522   1
  -8  11  -5-29.4509 23.9403   1
  -8  11   5-12.6769 11.7305   1
  -8  11  -6-34.6847 24.0472   1
  -8  11   6 11.3243 13.5491   1
  -8  11  -7-1.34200 16.2936   1
  -8  11   7 46.1474 32.4956   1
  -8  11  -8-4.37275 19.3376   1
  -8  11   8 9.48955 19.4564   1
  -8  11  -9 29.2938 24.6654   1
  -8  11   9 10.9424 14.4758   1
 -11  -8   9-31.8495 35.8904   1
  -8  11  10-14.6468 19.9702   1
 -11  -8  10-18.2456 15.6886   1
 -11  -8  11 42.8572 30.7501   1
  -8  11  11 15.1299 15.9491   1
 -11  -8  12-2.68241 13.0325   1
  -8  11  12 9.01843 25.1149   1
 -11  -8  13-7.94140 30.7546   1
  -8  11  13 19.5982 37.6224   1
  -8  11  14 49.1496 38.1935   1
 -11  -8  14-29.2880 23.9071   1
  -8  11  15 11.5499 21.5674   1
 -11  -8  15 26.5046 16.4474   1
  -8  11  16-36.7094 20.5588   1
 -11  -8  16 26.9364 34.7296   1
  -8  11  17 69.4525 38.8999   1
 -11  -8  17 46.3020 34.1191   1
  -8  11  18 18.5736 24.9204   1
 -11  -8  18-21.9303 26.4652   1
  -8  11  19 17.4501 23.4354   1
 -11  -8  19 7.88906 13.0985   1
  -8  11  20 16.2993 14.7665   1
 -11  -8  20-10.9914 13.9375   1
  -8  11  21 19.6326 32.6854   1
 -11  -8  21 40.2482 32.9369   1
  -8  11  22 51.9392 37.1500   1
 -11  -8  22 31.2134 31.5563   1
  -8  11  23 3.92667 20.0437   1
 -11  -8  23 6.47820 17.0590   1
  -8  11  24 26.5280 40.1533   1
 -11  -8  24-11.8888 20.2335   1
  -8  11  25 3.35651 37.3458   1
 -11  -8  25 16.6435 19.5825   1
  -8  11  26-23.2582 38.4351   1
 -11  -8  26 65.6082 51.3188   1
  -8  11  27-7.18371 29.1976   1
 -11  -8  27 73.0866 47.5125   1
  -8  11  28-5.40277 24.2611   1
 -11  -8  28 49.1332 30.7619   1
  -8  11  29-1.33762 19.3056   1
 -11  -8  29 15.3973 21.0550   1
  -8  11  30-37.8868 46.0440   1
  -8  11  31-10.5034 34.2764   1
  -8  11  32-4.56080 23.9004   1
  -8  11  33 93.9149 50.7907   1
  -8  11  34-2.02012 34.5970   1
  -8  11  35 33.9050 43.1079   1
  -8  11  36-61.4368 43.6206   1
  -9  11   0-7.21632 14.0854   1
  -9  11  -1-4.43912 14.6815   1
  -9  11   1-22.1260 21.4715   1
  -9  11  -2 28.7284 15.5051   1
  -9  11   2-8.65869 17.3517   1
  -9  11  -3-37.5719 30.8300   1
  -9  11   3-16.9864 28.9657   1
  -9  11  -4 16.5707 20.1899   1
  -9  11   4 34.9031 28.8501   1
  -9  11  -5-15.4654 25.3737   1
  -9  11   5-2.67757 26.9624   1
  -9  11  -6-45.2701 28.4985   1
  -9  11   6-42.1559 28.6838   1
  -9  11  -7 12.7473 13.8898   1
  -9  11   7 11.9393 21.4328   1
  -9  11  -8-9.77972 16.5171   1
  -9  11   8 40.8968 29.0668   1
  -9  11   9-7.56467 27.2104   1
 -11  -9   9 40.4541 25.1938   1
 -11  -9  10 14.2650 13.9670   1
  -9  11  10-5.34946 21.8170   1
 -11  -9  11-22.8434 20.4744   1
  -9  11  11-14.1780 13.7723   1
 -11  -9  12-4.67950 14.3604   1
  -9  11  12 8.44998 24.9936   1
 -11  -9  13 19.5026 27.5395   1
  -9  11  13 50.1080 32.6654   1
 -11  -9  14-6.75769 30.7494   1
  -9  11  14-14.9693 18.6574   1
 -11  -9  15 0.40206 28.4003   1
  -9  11  15-4.93444 29.3243   1
 -11  -9  16 9.95816 28.7278   1
  -9  11  16 24.5256 32.0478   1
  -9  11  17-15.2849 23.0027   1
 -11  -9  17 12.3938 13.4145   1
  -9  11  18-13.6495 16.4106   1
 -11  -9  18-56.4626 34.3179   1
  -9  11  19-12.5678 29.6856   1
 -11  -9  19 21.4458 35.0757   1
  -9  11  20-34.1543 36.8415   1
 -11  -9  20 38.8764 35.2942   1
  -9  11  21 43.0015 37.0602   1
 -11  -9  21 32.4155 34.1708   1
  -9  11  22 8.73368 25.2305   1
 -11  -9  22 56.1304 35.8204   1
  -9  11  23 11.0459 23.2459   1
  -9  11  24-46.9152 32.1033   1
  -9  11  25 18.7576 26.1130   1
  -9  11  26-46.7218 48.8145   1
  -9  11  27-15.8414 27.8590   1
  -9  11  28 35.5070 32.5229   1
  -9  11  29 72.1290 50.0623   1
  -9  11  30 0.23212 23.7693   1
  -9  11  31 7.67632 25.1560   1
  -9  11  32 0.62872 19.5161   1
  -9  11  33 44.1755 49.3504   1
  -9  11  34 80.5915 50.3592   1
 -10  11   0 22.9870 28.6173   1
 -10  11  -1 47.3827 28.3993   1
 -10  11   1 1.10478 22.3087   1
 -10  11  -2 35.7969 34.7081   1
 -10  11   2 30.3893 29.1713   1
 -10  11  -3-5.67559 16.3503   1
 -10  11   3-5.09232 20.4646   1
 -10  11  -4 18.9472 23.4211   1
 -10  11   4 18.1636 29.7984   1
 -10  11  -5-34.6408 36.3515   1
 -10  11   5-19.4140 18.2154   1
 -10  11  -6 10.3327 19.4786   1
 -10  11   6 47.2274 35.4713   1
 -10  11   7 36.4537 32.6414   1
 -11 -10   8 45.7883 35.4639   1
 -10  11   8-54.0379 37.1334   1
 -10  11   9 23.2397 27.4765   1
 -11 -10   9 60.3619 36.9025   1
 -11 -10  10 16.9810 33.5454   1
 -10  11  10 51.9734 33.0284   1
 -11 -10  11-41.1226 20.9331   1
 -10  11  11 25.6113 31.5679   1
 -11 -10  12 14.1545 23.1687   1
 -10  11  12 45.1057 41.8617   1
 -11 -10  13-14.5700 23.3903   1
 -10  11  13-28.9980 25.9568   1
 -11 -10  14-19.4336 32.3953   1
 -10  11  14-16.9890 24.4385   1
 -10  11  15-1.65681 29.3563   1
 -10  11  16-48.3087 38.2791   1
 -10  11  17 50.6324 29.4214   1
 -10  11  18-36.1725 27.4047   1
 -10  11  19 61.5413 41.2357   1
 -10  11  20 4.81204 24.3674   1
 -10  11  21-12.5702 35.4970   1
 -10  11  22 28.2290 23.5299   1
 -10  11  23 16.6136 29.9477   1
 -10  11  24 6.45980 29.4112   1
 -10  11  25 20.9119 31.2342   1
 -10  11  26 31.4322 44.8397   1
 -10  11  27 53.3116 47.0202   1
 -10  11  28 41.9503 18.3384   1
 -10  11  29 71.3066 35.1764   1
 -10  11  30 58.5340 57.5963   1
 -10  11  31 67.8070 50.5614   1
 -11  11   0 54.2354 39.5272   1
 -11  11  -1 46.3085 44.6481   1
 -11  11   1-28.5154 22.1450   1
 -11  11  -2 27.4477 24.8299   1
 -11  11   2 20.5831 27.9736   1
 -11  11  -3 61.8369 46.4623   1
 -11  11   3-11.5882 31.7519   1
 -11  11  -4 62.1725 31.7817   1
 -11  11   4-12.0137 14.9585   1
 -11  11  -5-44.4188 34.7988   1
 -11  11   5 2.72951 15.3140   1
 -11  11   6 18.0986 21.2016   1
 -11  11   7 36.4450 41.7972   1
 -11  11   8 87.0923 46.3826   1
 -11  11   9-21.1281 32.6076   1
 -11  11  10-22.3747 20.0364   1
 -11  11  11-15.7119 14.6889   1
 -11  11  12-2.95770 19.7844   1
 -11  11  13 60.3093 25.5442   1
 -11  11  14 31.6116 33.4690   1
 -11  11  15-30.0283 25.4719   1
 -11  11  16-7.37047 18.1868   1
 -11  11  17-32.9495 28.1457   1
 -11  11  18-21.6177 36.9309   1
 -11  11  19-42.1090 42.9775   1
 -11  11  20 54.2486 39.0839   1
 -11  11  21-19.7242 36.0423   1
 -11  11  22 48.3179 48.9109   1
 -11  11  23-5.94129 29.9947   1
 -11  11  24 2.79102 24.1423   1
 -11  11  25 6.43952 31.2354   1
 -11  11  26-21.4969 21.2296   1
 -11  11  27-15.7013 29.8268   1
 -11  11  28 30.5202 46.6290   1
 -12  11   0-47.6479 41.5808   1
 -12  11  -1 44.5433 36.5696   1
 -12  11   1-31.4172 20.4944   1
 -12  11  -2-12.5867 15.6587   1
 -12  11   2 46.5354 49.1928   1
 -12  11  -3-0.55134 18.5851   1
 -12  11   3 38.9323 30.0154   1
 -12  11   4 22.9370 26.2314   1
 -12  11   5 40.4298 36.5236   1
 -12  11   6 15.3032 31.4691   1
 -12  11   7-36.7689 20.6051   1
 -12  11   8 28.1351 33.2559   1
 -12  11   9 19.0758 16.3901   1
 -12  11  10 36.8762 33.9952   1
 -12  11  11-3.28885 16.0445   1
 -12  11  12 32.1247 31.7329   1
 -12  11  13 40.6166 38.0282   1
 -12  11  14 29.5996 33.7457   1
 -12  11  15 29.7437 27.7977   1
 -12  11  16 6.59885 35.6319   1
 -12  11  17 32.4387 39.4541   1
 -12  11  18 0.04507 32.2316   1
 -12  11  19 22.6155 32.9210   1
 -12  11  20 29.9988 27.3612   1
 -12  11  21-32.7020 30.0097   1
 -12  11  22 25.4040 30.3094   1
 -12  11  23 95.7082 55.7225   1
 -12  11  24 11.0127 22.9940   1
 -12  10   0 8.95430 38.1849   1
 -12  10  -1 8.73798 14.2779   1
 -12  10   1-11.6332 31.8471   1
 -12  10  -2-34.2904 25.4052   1
 -12  10   2-49.8192 36.3412   1
 -12  10  -3 1.85830 20.0791   1
 -12  10   3-0.10885 27.3258   1
 -12  10  -4 44.2573 27.5357   1
 -12  10   4-15.1435 21.0832   1
 -12  10  -5 15.2479 35.3281   1
 -12  10   5 39.5931 36.8950   1
 -12  10  -6 72.6631 41.0476   1
 -12  10   6 18.0739 19.4872   1
 -12  10  -7 3.59444 20.0912   1
 -12  10   7 36.4256 30.2257   1
 -12  10  -8 53.6746 31.1580   1
 -12  10   8 28.6148 44.0498   1
 -12  10  -9 49.9699 29.6402   1
 -12  10   9-40.6452 46.3424   1
 -12  10 -10-17.2009 32.7026   1
 -12  10  10-14.3418 15.0989   1
 -12  10 -11 86.7117 46.5570   1
 -12  10  11 79.7322 46.4636   1
 -12  10 -12-22.2482 21.3140   1
 -12  10  12 108.017 52.5070   1
 -12  10  13 13.5418 19.0228   1
 -12  10  14 45.4908 34.6233   1
 -12  10  15-28.0366 26.9029   1
 -12  10  16 65.8126 59.3764   1
 -12  10  17 41.7929 28.8213   1
 -12  10  18-38.6758 42.7696   1
 -12  10  19 34.6095 18.8039   1
 -12  10  20-12.3843 25.6126   1
 -12  10  21-52.7701 41.3270   1
 -12  10  22-12.4984 36.2560   1
 -12  10  23-14.3705 29.8061   1
 -12  10  24-45.7033 48.6596   1
 -12  10  25-22.8309 26.1164   1
 -12  10  26 3.00735 22.6036   1
 -12   9   0 19.6821 32.7323   1
 -12   9  -1-13.9847 20.0756   1
 -12   9   1-8.56303 26.3838   1
 -12   9  -2 3.75677 19.1137   1
 -12   9   2-27.1527 22.1915   1
 -12   9  -3-43.8428 43.5667   1
 -12   9   3 83.3815 35.6781   1
 -12   9  -4-32.1875 41.3134   1
 -12   9   4 64.9560 43.4421   1
 -12   9  -5-53.5490 37.7071   1
 -12   9   5-16.3481 26.8958   1
 -12   9  -6-6.14163 34.8300   1
 -12   9   6 46.7542 35.3449   1
 -12   9  -7 39.1351 31.9419   1
 -12   9   7 1.12103 17.8033   1
 -12   9  -8-21.5197 26.8924   1
 -12   9   8-1.02050 24.9110   1
 -12   9  -9-96.6780 46.1111   1
 -12   9   9-23.1388 30.6857   1
 -12   9 -10-26.3074 34.0774   1
 -12   9  10 62.7977 45.8654   1
 -12   9 -11-1.26736 35.9520   1
 -12   9  11 43.6373 42.0413   1
 -12   9 -12-27.1063 29.4211   1
 -12   9  12-14.8149 20.2033   1
 -12   9 -13 27.4163 28.4177   1
 -12   9  13-42.0609 41.2132   1
 -12   9 -14 67.9445 40.0204   1
 -12   9  14-36.0685 39.2877   1
 -12   9  15 14.6876 28.9776   1
 -12   9 -15 21.3047 35.5103   1
 -12   9  16-1.59469 29.0148   1
 -12   9 -16 32.4859 19.4492   1
 -12   9  17 24.2265 33.3546   1
 -12   9 -17-19.6384 28.0953   1
 -12   9  18 9.93813 19.2490   1
 -12   9  19-3.68432 29.1484   1
 -12   9  20 12.8699 27.6586   1
 -12   9  21 29.8023 38.7624   1
 -12   9  22 39.8250 29.6219   1
 -12   9  23-10.0329 27.0914   1
 -12   9  24 49.4056 49.9075   1
 -12   9  25-3.13191 19.3390   1
 -12   9  26-15.2791 18.8710   1
 -12   9  27 24.7401 23.1872   1
 -12   9  28-28.3389 41.8729   1
 -12   8   0 55.5261 36.2876   1
 -12   8  -1 61.1258 34.6496   1
 -12   8   1 28.8282 33.8571   1
 -12   8  -2 14.2280 17.2788   1
 -12   8   2 20.0902 32.9819   1
 -12   8  -3 19.7023 24.8385   1
 -12   8   3-29.9558 22.6418   1
 -12   8  -4-35.1986 31.3628   1
 -12   8   4-7.85771 27.2983   1
 -12   8  -5 22.4771 15.6756   1
 -12   8   5 9.48035 19.3557   1
 -12   8  -6 33.2408 37.8857   1
 -12   8   6 37.7456 21.4192   1
 -12   8  -7-17.0163 23.7887   1
 -12   8   7-30.7049 16.7558   1
 -12   8  -8 16.4841 24.7273   1
 -12   8   8 76.6022 42.3673   1
 -12   8  -9 5.82357 23.7306   1
 -12   8   9-37.5840 26.9747   1
 -12   8 -10 21.2450 27.0146   1
 -12   8  10-13.6878 33.4782   1
 -12   8  11 34.0169 26.9081   1
 -12   8 -11-20.5157 29.0350   1
 -12   8  12 4.44151 31.4977   1
 -12   8 -12-3.68523 21.3150   1
 -12   8  13-21.2698 24.0089   1
 -12   8 -13 28.2907 29.9854   1
 -12   8  14 30.5872 38.7055   1
 -12   8  15-17.1018 25.3165   1
 -12   8  16 32.1314 43.4854   1
 -12   8  17 23.2532 38.0464   1
 -12   8  18-6.42604 16.7057   1
 -12   8  19 44.7458 40.5304   1
 -12   8  20 63.7077 49.5444   1
 -12   8  21-11.3622 20.8257   1
 -12   8  22 21.9992 40.0946   1
 -12   8  23-39.0350 48.7593   1
 -12   8  24 31.8730 22.3564   1
 -12   8  25-6.63720 26.1502   1
 -12   8  26-34.7300 31.1922   1
 -12   8  27-16.9206 29.5406   1
 -12   8  28 33.3138 43.7847   1
 -12   8  29 64.1707 62.4629   1
 -12   8  30 2.75911 27.5728   1
 -12   7   0 37.3800 26.9926   1
 -12   7  -1-21.3670 29.1049   1
 -12   7   1 23.9905 16.8438   1
 -12   7  -2-6.85126 25.9834   1
 -12   7   2 30.1881 32.4790   1
 -12   7  -3 23.4766 34.5979   1
 -12   7   3 0.80388 26.2879   1
 -12   7  -4-8.55087 25.6368   1
 -12   7   4 20.7837 37.2008   1
 -12   7  -5 59.3918 38.6384   1
 -12   7   5 120.498 56.9881   1
 -12   7  -6 113.853 58.5790   1
 -12   7   6-10.2514 28.4292   1
 -12   7  -7 63.6776 49.1729   1
 -12   7   7-54.3513 42.8366   1
 -12   7   8 67.5809 40.2231   1
 -12   7  -8 59.1237 35.5688   1
 -12   7   9 17.0644 41.8393   1
 -12   7  -9-15.2170 18.0247   1
 -12   7  10 50.3765 31.8621   1
 -12   7  11 26.5543 30.7069   1
 -12   7  12-0.03822 28.1606   1
 -12   7  13-18.8063 31.8435   1
 -12   7  14 25.1989 25.0080   1
 -12   7  15-24.6167 21.9736   1
 -12   7  16-6.23725 24.4337   1
 -12   7  17 18.4403 26.7328   1
 -12   7  18 19.9014 22.5558   1
 -12   7  19 6.92567 30.9523   1
 -12   7  20 36.8432 27.7957   1
 -12   7  21 27.6694 39.1961   1
 -12   7  22-5.04784 27.5152   1
 -12   7  23 81.0831 56.6054   1
 -12   7  24 15.9830 21.5420   1
 -12   7  25-23.1839 33.8026   1
 -12   7  26-25.4279 44.5445   1
 -12   7  27 6.08069 23.0342   1
 -12   7  28 14.2934 30.7989   1
 -12   7  29 19.8330 30.0355   1
 -12   7  30-24.3084 30.9026   1
 -12   7  31 15.8870 42.5740   1
 -12   7  32 35.8240 34.3974   1
 -12   6   0 35.9890 17.5774   1
 -12   6  -1 23.1985 28.5865   1
 -12   6   1 16.3997 23.1495   1
 -12   6  -2-6.59332 21.6093   1
 -12   6   2 27.5034 24.4611   1
 -12   6  -3-34.7080 36.6351   1
 -12   6   3 51.9797 49.8081   1
 -12   6  -4 7.59381 19.7633   1
 -12   6   4 91.4872 49.3096   1
 -12   6   5 0.52540 25.0695   1
 -12   6  -5-39.3060 29.3040   1
 -12   6   6 56.2245 39.1814   1
 -12   6  -6 11.8432 19.5781   1
 -12   6   7 6.80522 32.6226   1
 -12   6   8 67.7211 46.7461   1
 -12   6   9 10.9328 20.0751   1
 -12   6  10 1.43135 26.9512   1
 -12   6  11 6.19616 20.6065   1
 -12   6  12 102.559 53.1046   1
 -12   6  13 39.1866 30.5760   1
 -12   6  14 29.1748 17.5256   1
 -12   6  15 21.4488 41.6499   1
 -12   6  16 99.5000 52.0730   1
 -12   6  17 42.3668 45.3711   1
 -12   6  18 27.7167 39.3408   1
 -12   6  19 20.8354 31.9923   1
 -12   6  20-0.37522 21.5164   1
 -12   6  21-22.1265 17.9781   1
 -12   6  22 71.5450 48.6521   1
 -12   6  23 34.8819 38.6757   1
 -12   6  24-17.5354 33.8510   1
 -12   6  25 25.7743 33.8706   1
 -12   6  26-9.50599 41.7760   1
 -12   6  27-67.2496 47.6797   1
 -12   6  28-47.5353 38.7070   1
 -12   6  29-72.6525 55.5045   1
 -12   6  30 19.6623 22.6691   1
 -12   6  31-13.7923 36.8872   1
 -12   6  32 59.7896 41.6299   1
 -12   6  33 82.8275 58.7847   1
 -12   5   0-11.7298 27.8773   1
 -12   5  -1 38.4105 26.5716   1
 -12   5   1-38.0425 30.2562   1
 -12   5   2 83.1493 45.2660   1
 -12   5  -2 121.671 49.6602   1
 -12   5   3 71.2025 43.9770   1
 -12   5  -3 9.76121 21.5053   1
 -12   5   4 11.4672 20.6453   1
 -12   5  -4-15.0685 36.9472   1
 -12   5   5 11.2358 18.9237   1
 -12   5   6 61.3771 43.2236   1
 -12   5   7 3.93328 28.4057   1
 -12   5   8-16.4732 21.2909   1
 -12   5   9-28.7481 31.5931   1
 -12   5  10 13.8298 38.3050   1
 -12   5  11-23.3864 35.8745   1
 -12   5  12 4.86838 14.3052   1
 -12   5  13 9.25070 28.5922   1
 -12   5  14 34.7989 36.1357   1
 -12   5  15 49.1715 47.2380   1
 -12   5  16 56.9154 40.7493   1
 -12   5  17-29.2423 34.2846   1
 -12   5  18-33.5300 40.5349   1
 -12   5  19 57.6374 51.0408   1
 -12   5  20 67.6467 45.2454   1
 -12   5  21 36.3037 36.1878   1
 -12   5  22 18.7995 18.2049   1
 -12   5  23-24.8898 31.3176   1
 -12   5  24 44.3032 40.8925   1
 -12   5  25 42.2663 54.5815   1
 -12   5  26 30.8612 39.1343   1
 -12   5  27 61.3525 54.9437   1
 -12   5  28-23.7863 22.2321   1
 -12   5  29 48.0285 56.3148   1
 -12   5  30-49.0673 48.6332   1
 -12   5  31 27.2274 27.9502   1
 -12   5  32-3.99790 35.6793   1
 -12   5  33 44.7786 31.6017   1
 -12   5  34 42.7915 52.7923   1
 -12   5  35 91.7389 64.2120   1
 -12   4   0 14.3058 17.2908   1
 -12   4   1 24.5629 37.7700   1
 -12   4  -1 2.69348 20.9512   1
 -12   4   2 58.7094 28.8365   1
 -12   4   3 29.3806 21.1849   1
 -12   4   4-3.05634 25.2827   1
 -12   4   5 13.7710 20.9323   1
 -12   4   6 15.7237 29.0461   1
 -12   4   7 55.2555 41.8544   1
 -12   4   8 14.7822 16.5751   1
 -12   4   9-14.4527 25.1228   1
 -12   4  10 23.1609 38.9731   1
 -12   4  11 19.3289 24.1206   1
 -12   4  12 40.2200 26.2982   1
 -12   4  13-29.8693 26.2686   1
 -12   4  14-48.6904 38.4453   1
 -12   4  15-3.52979 34.2160   1
 -12   4  16-21.4770 35.2114   1
 -12   4  17 54.0097 44.3479   1
 -12   4  18-19.4226 22.0112   1
 -12   4  19 4.03190 24.4454   1
 -12   4  20 28.4148 37.8666   1
 -12   4  21 44.6314 35.0139   1
 -12   4  22 9.11406 34.3366   1
 -12   4  23 12.5143 22.9917   1
 -12   4  24 30.3795 28.1874   1
 -12   4  25-17.3444 23.3520   1
 -12   4  26 3.28672 35.1732   1
 -12   4  27-36.1516 35.2150   1
 -12   4  28-56.8688 56.0286   1
 -12   4  29 68.1924 39.4859   1
 -12   4  30 55.4391 34.0710   1
 -12   4  31 22.2428 42.1221   1
 -12   4  32-0.24165 20.5662   1
 -12   4  33 19.4161 24.6284   1
 -12   4  34 2.09996 24.1538   1
 -12   4  35 14.7504 29.5695   1
 -12   4  36-46.5731 43.5960   1
 -12   3   1 66.1986 40.5177   1
 -12   3   2 5.86908 17.5188   1
 -12   3   3-21.0959 23.2429   1
 -12   3   4 43.6750 37.6673   1
 -12   3   5-22.6686 26.3131   1
 -12   3   6 49.0562 33.0590   1
 -12   3   7 35.9897 24.9391   1
 -12   3   8-0.55251 29.5835   1
 -12   3   9-15.0036 31.6529   1
 -12   3  10 2.84419 32.5707   1
 -12   3  11 42.7037 39.3037   1
 -12   3  12 67.4222 39.5247   1
 -12   3  13 6.25525 28.3981   1
 -12   3  14 29.1676 35.1079   1
 -12   3  15 41.1438 46.1980   1
 -12   3  16 18.3657 28.3128   1
 -12   3  17-48.5053 41.5803   1
 -12   3  18 24.0441 48.5445   1
 -12   3  19 62.2415 48.9165   1
 -12   3  20-35.5986 32.4705   1
 -12   3  21 23.7968 22.5983   1
 -12   3  22 30.0088 42.5746   1
 -12   3  23-12.4913 40.5733   1
 -12   3  24 10.4675 36.4336   1
 -12   3  25 14.3527 39.6278   1
 -12   3  26-59.3761 38.2059   1
 -12   3  27 96.1680 49.3233   1
 -12   3  28-40.3788 38.6771   1
 -12   3  29 40.4933 39.4951   1
 -12   3  30 45.8344 44.7951   1
 -12   3  31 15.2838 22.6003   1
 -12   3  32 2.22688 39.4126   1
 -12   3  33-43.8961 38.3963   1
 -12   3  34 1.07820 27.3326   1
 -12   3  35-9.97086 29.5014   1
 -12   3  36 35.7573 41.6242   1
 -12   3  37-82.8255 60.0652   1
 -12   2   2 26.1595 20.3113   1
 -12   2   3-0.83171 25.5066   1
 -12   2   4 49.1388 38.9161   1
 -12   2   5 1.37619 23.2123   1
 -12   2   6 17.1112 24.7059   1
 -12   2   7 40.4097 36.9998   1
 -12   2   8 24.1033 23.2473   1
 -12   2   9-29.2428 19.5418   1
 -12   2  10 64.8950 44.7351   1
 -12   2  11 65.0726 49.7881   1
 -12   2  12 67.9371 50.5734   1
 -12   2  13 30.0902 39.7594   1
 -12   2  14-1.91140 25.4292   1
 -12   2  15 5.94245 27.8233   1
 -12   2  16 2.98663 15.3195   1
 -12   2  17-32.1236 19.4132   1
 -12   2  18 47.4010 39.8377   1
 -12   2  19 6.00558 19.2467   1
 -12   2  20 23.1764 16.9788   1
 -12   2  21 21.8807 19.6048   1
 -12   2  22-46.6430 36.1351   1
 -12   2  23-12.2015 32.2830   1
 -12   2  24 12.6673 24.2851   1
 -12   2  25 7.98881 31.1792   1
 -12   2  26 62.1409 45.0330   1
 -12   2  27 61.9492 46.9180   1
 -12   2  28-4.00933 16.4125   1
 -12   2  29-34.0067 28.9912   1
 -12   2  30 5.13008 22.5937   1
 -12   2  31 38.2868 37.7410   1
 -12   2  32-42.5996 44.0869   1
 -12   2  33 12.0117 17.8927   1
 -12   2  34-30.9250 27.2631   1
 -12   2  35-22.7478 29.6864   1
 -12   2  36 28.7645 49.3757   1
 -12   2  37-7.18961 23.4540   1
 -12   2  38 42.2433 21.4321   1
 -12   1   4 64.5754 40.5809   1
 -12   1   5-58.7990 34.3160   1
 -12   1   6 83.1213 46.4728   1
 -12   1   7 32.3312 34.5703   1
 -12   1   8 52.1356 36.6240   1
 -12   1   9 32.1360 39.2402   1
 -12   1  10 104.109 51.7698   1
 -12   1  11-22.4046 24.4979   1
 -12   1  12-22.2839 24.7944   1
 -12   1  13 2.18899 16.9657   1
 -12   1  14-36.6512 22.1764   1
 -12   1  15 83.5723 49.4038   1
 -12   1  16 13.8741 33.4838   1
 -12   1  17 69.3508 50.9850   1
 -12   1  18 58.9946 42.6305   1
 -12   1  19 30.2576 32.7134   1
 -12   1  20 48.0302 26.9061   1
 -12   1  21 73.4808 28.4598   1
 -12   1  22 4.59128 16.6263   1
 -12   1  23-5.84922 43.5260   1
 -12   1  24 13.2789 26.9028   1
 -12   1  25-16.0131 28.9184   1
 -12   1  26 48.8847 37.4574   1
 -12   1  27 74.3646 45.3963   1
 -12   1  28-63.5648 32.2948   1
 -12   1  29 45.8926 29.2376   1
 -12   1  30 14.3786 22.0050   1
 -12   1  31 1.25897 39.4827   1
 -12   1  32 19.1051 30.7669   1
 -12   1  33 4.36812 31.3189   1
 -12   1  34 31.9434 35.7020   1
 -12   1  35-21.1937 24.6009   1
 -12   1  36 1.75980 22.7842   1
 -12   1  37-14.8687 44.3850   1
 -12   1  38-30.4570 32.2730   1
 -12   1  39 36.3429 20.6135   1
 -12   0   5-22.6103 24.8356   1
 -12   0   6-0.16693 20.7469   1
 -12   0   7 39.8841 37.5358   1
 -12   0   8 174.705 63.3269   1
 -12   0   9 11.7409 36.0661   1
 -12   0  10-42.9088 38.1928   1
 -12   0  11-17.9998 21.4965   1
 -12   0  12 9.88760 23.9663   1
 -12   0  13-13.0526 24.7043   1
 -12   0  14-15.3275 22.5768   1
 -12   0  15 20.4350 14.4374   1
 -12   0  16-5.90936 23.4180   1
 -12   0  17-36.3885 36.1173   1
 -12   0  18-7.99427 26.6588   1
 -12   0  19-7.67919 34.6786   1
 -12   0  20-0.33964 16.1007   1
 -12   0  21 11.3132 15.2711   1
 -12   0  22 39.0737 47.5449   1
 -12   0  23 38.3495 43.7567   1
 -12   0  24 77.5331 51.0557   1
 -12   0  25 47.3166 45.9425   1
 -12   0  26 39.2449 50.5570   1
 -12   0  27 56.0084 41.3484   1
 -12   0  28 79.7889 51.8939   1
 -12   0  29-26.6248 43.8999   1
 -12   0  30 51.4799 42.5393   1
 -12   0  31 133.424 59.7873   1
 -12   0  32 46.5040 45.1249   1
 -12   0  33 75.2503 41.8751   1
 -12   0  34 41.4601 52.4637   1
 -12   0  35 92.3526 60.6715   1
 -12   0  36 18.0251 30.9307   1
 -12   0  37 59.1086 46.7654   1
 -12   0  38 14.5223 34.4760   1
 -12   0  39 22.4142 33.2822   1
 -12   0  40-3.19162 39.2380   1
 -12  -1   6 76.4926 50.7707   1
 -12  -1   7-5.78681 20.5845   1
 -12  -1   8 2.65502 27.5663   1
 -12  -1   9 3.58171 19.9517   1
 -12  -1  10 35.2872 39.6581   1
 -12  -1  11 48.5648 40.7321   1
  -1  12  11 2.41620 13.6012   1
 -12  -1  12-2.65477 23.4367   1
  -1  12  12 21.7913 24.8920   1
 -12  -1  13 45.1800 35.3452   1
  -1  12  13-8.58110 19.4167   1
 -12  -1  14 34.8081 28.2835   1
  -1  12  14 62.2022 33.1432   1
 -12  -1  15 14.7166 18.2766   1
  -1  12  15-16.4825 22.2242   1
 -12  -1  16-5.39408 30.8194   1
  -1  12  16 4.30134 12.2413   1
 -12  -1  17-9.09504 18.4506   1
  -1  12  17-21.9296 27.6801   1
 -12  -1  18 17.1472 38.4335   1
  -1  12  18-26.1514 33.2115   1
 -12  -1  19 23.0982 43.1120   1
  -1  12  19 29.8317 22.9453   1
 -12  -1  20 35.2821 40.3621   1
  -1  12  20 18.7992 18.5230   1
 -12  -1  21 26.2679 31.2647   1
  -1  12  21 56.5830 39.8484   1
 -12  -1  22-3.44500 16.2312   1
  -1  12  22 18.9140 28.8753   1
 -12  -1  23-11.6735 27.8966   1
  -1  12  23 54.8359 26.1427   1
 -12  -1  24 1.41514 33.4775   1
  -1  12  24-9.77853 22.3589   1
  -1  12  25 41.5796 35.0283   1
 -12  -1  25 8.52965 24.4601   1
 -12  -1  26 21.8721 34.0209   1
  -1  12  26 31.8597 34.8387   1
 -12  -1  27 13.9473 26.7922   1
  -1  12  27-23.9274 31.1937   1
 -12  -1  28 45.8825 26.8866   1
  -1  12  28-5.27050 37.6880   1
 -12  -1  29 44.4272 46.6457   1
  -1  12  29 36.1354 32.4119   1
 -12  -1  30 0.17171 17.2996   1
  -1  12  30 3.74866 19.9588   1
 -12  -1  31 45.4817 46.1536   1
  -1  12  31 5.82254 26.7904   1
 -12  -1  32 24.0138 18.8097   1
  -1  12  32-19.2450 26.0994   1
 -12  -1  33-15.6690 18.2524   1
  -1  12  33 96.8678 54.1925   1
 -12  -1  34-45.2630 51.1129   1
  -1  12  34-18.1480 34.5356   1
  -1  12  35 8.34954 28.6621   1
 -12  -1  35-66.8134 33.0957   1
  -1  12  36 34.7652 36.8038   1
 -12  -1  36-5.86625 20.5408   1
  -1  12  37 23.5940 33.9768   1
 -12  -1  37-26.6044 54.8340   1
  -1  12  38 2.64402 27.5694   1
 -12  -1  38 10.4220 17.8657   1
  -1  12  39 58.8640 48.2794   1
 -12  -1  39 10.9492 22.5966   1
  -1  12  40 27.7076 27.1049   1
 -12  -1  40-44.9064 28.4672   1
  -1  12  41-48.9375 47.4196   1
  -1  12  42 31.1135 24.4906   1
  -2  12   4 68.8162 24.5512   1
  -2  12   5-0.98209 8.81633   1
  -2  12   6 25.2968 10.5649   1
  -2  12   7 31.8397 15.5125   1
 -12  -2   7 3.67704 26.2560   1
  -2  12   8 33.6168 25.6388   1
 -12  -2   8-18.8276 25.5705   1
 -12  -2   9-4.45075 21.9334   1
  -2  12   9-2.92328 12.9508   1
 -12  -2  10 9.38991 14.9927   1
  -2  12  10 37.3945 14.4354   1
 -12  -2  11 8.62811 24.4229   1
  -2  12  11 22.2629 14.2730   1
 -12  -2  12 44.9398 37.5169   1
  -2  12  12 10.6095 16.9100   1
 -12  -2  13 44.3703 40.8426   1
  -2  12  13-3.43915 16.8433   1
 -12  -2  14 35.4512 34.2998   1
  -2  12  14 31.3141 20.9539   1
 -12  -2  15 121.258 51.2144   1
  -2  12  15 41.0439 30.9371   1
  -2  12  16-6.76485 15.6089   1
 -12  -2  16 19.6910 28.0328   1
  -2  12  17 24.9055 27.7113   1
 -12  -2  17 50.8706 19.0960   1
  -2  12  18 8.97365 19.0415   1
 -12  -2  18 21.2088 31.5788   1
  -2  12  19 62.6934 27.5066   1
 -12  -2  19 27.5840 42.7179   1
  -2  12  20 7.40651 26.2684   1
 -12  -2  20-35.5915 31.2506   1
  -2  12  21-1.91623 15.1904   1
 -12  -2  21 1.57222 21.3002   1
  -2  12  22-11.5094 16.0612   1
 -12  -2  22 46.1535 44.0006   1
  -2  12  23-21.1930 13.6842   1
 -12  -2  23 9.97730 17.7471   1
  -2  12  24 3.38760 25.7525   1
 -12  -2  24-36.5840 32.7000   1
  -2  12  25-0.96191 19.6802   1
 -12  -2  25-21.1203 38.3282   1
  -2  12  26 21.3559 33.9526   1
 -12  -2  26-5.47331 23.6284   1
  -2  12  27 67.0051 38.4887   1
 -12  -2  27 35.1719 38.6560   1
  -2  12  28-30.8019 30.2682   1
 -12  -2  28-4.23450 23.4608   1
  -2  12  29 16.7194 24.0841   1
 -12  -2  29 25.2849 22.2740   1
  -2  12  30-20.5824 25.2729   1
 -12  -2  30-40.6637 38.5199   1
  -2  12  31 25.0252 26.6063   1
 -12  -2  31 77.5523 34.2741   1
  -2  12  32 19.5189 30.2670   1
 -12  -2  32-57.4070 46.1816   1
  -2  12  33 26.0284 16.2678   1
 -12  -2  33 18.7306 34.3733   1
  -2  12  34 45.9663 43.3842   1
 -12  -2  34-16.7329 39.3550   1
 -12  -2  35 91.0366 56.9092   1
  -2  12  35 54.0471 42.1200   1
 -12  -2  36-71.7114 37.3174   1
  -2  12  36 41.3206 36.2229   1
 -12  -2  37 63.1951 29.6938   1
  -2  12  37 82.3721 53.9098   1
  -2  12  38-0.13790 27.8034   1
 -12  -2  38-40.0760 41.7746   1
  -2  12  39 10.6993 18.9234   1
 -12  -2  39 5.09421 17.9145   1
  -2  12  40 49.3769 37.7521   1
 -12  -2  40-9.96312 31.6406   1
  -2  12  41-61.4901 47.5142   1
 -12  -2  41 24.2185 44.5279   1
  -3  12   0 55.0239 19.3320   1
  -3  12   1-4.84355 12.9004   1
  -3  12   2 27.4809 16.7274   1
  -3  12   3-16.8326 11.5743   1
  -3  12   4 27.1462 14.4010   1
  -3  12   5 19.7275 16.0042   1
  -3  12   6 5.31888 16.5529   1
  -3  12   7 54.4082 25.3922   1
  -3  12   8 31.7243 23.7113   1
 -12  -3   8 10.5109 20.1827   1
  -3  12   9 5.24569 10.0636   1
 -12  -3   9 34.7912 30.0162   1
 -12  -3  10 75.2199 45.7170   1
  -3  12  10 4.03154 12.9156   1
 -12  -3  11 3.33657 22.4584   1
  -3  12  11 24.3260 23.1667   1
 -12  -3  12 20.6866 22.3258   1
  -3  12  12-1.11902 10.7006   1
 -12  -3  13-23.5125 29.9271   1
  -3  12  13-29.7489 24.2700   1
 -12  -3  14 10.1747 25.9296   1
  -3  12  14 30.4904 22.4165   1
 -12  -3  15-4.40992 18.9870   1
  -3  12  15 5.29302 15.5396   1
 -12  -3  16-17.3657 33.0822   1
  -3  12  16-6.42208 13.2163   1
 -12  -3  17-16.9890 27.7867   1
  -3  12  17 53.7789 11.8749   1
 -12  -3  18 29.5587 32.3388   1
  -3  12  18-11.9256 15.1329   1
 -12  -3  19 50.8561 44.6846   1
  -3  12  19 32.5986 31.1671   1
 -12  -3  20-24.5622 32.8720   1
  -3  12  20-33.0462 32.2786   1
 -12  -3  21 11.8434 21.6935   1
  -3  12  21 34.5292 30.8301   1
 -12  -3  22 47.7401 48.8193   1
  -3  12  22-23.5233 31.4031   1
 -12  -3  23 79.5714 50.4384   1
  -3  12  23 71.6545 38.0840   1
 -12  -3  24 7.54540 34.4180   1
  -3  12  24 48.0035 37.0550   1
 -12  -3  25 59.5112 47.4289   1
  -3  12  25 52.9193 30.8747   1
 -12  -3  26-38.9285 31.2522   1
  -3  12  26-25.1285 29.4070   1
 -12  -3  27 20.1933 25.0294   1
  -3  12  27 42.4583 40.5231   1
 -12  -3  28-18.6504 26.7559   1
  -3  12  28-18.9297 36.3917   1
 -12  -3  29-46.8677 35.3782   1
  -3  12  29 8.50236 21.8645   1
 -12  -3  30 42.5824 40.7783   1
  -3  12  30 11.2770 37.4066   1
 -12  -3  31 29.0847 28.5844   1
  -3  12  31 39.5522 41.7726   1
 -12  -3  32 0.08622 36.7375   1
  -3  12  32 2.07756 39.8832   1
  -3  12  33-39.7161 49.3899   1
 -12  -3  33 25.5245 44.0643   1
  -3  12  34-73.8765 46.0352   1
 -12  -3  34 53.5451 40.0297   1
  -3  12  35-15.1713 19.8153   1
 -12  -3  35 78.3036 56.0725   1
  -3  12  36 62.2998 31.2306   1
 -12  -3  36-18.6413 45.0121   1
  -3  12  37-36.1977 30.6294   1
 -12  -3  37-94.4959 59.3349   1
  -3  12  38 54.6877 36.1221   1
 -12  -3  38 1.56530 20.0463   1
  -3  12  39 55.5732 40.8871   1
 -12  -3  39-4.09874 34.0053   1
 -12  -3  40 23.5322 34.5320   1
  -3  12  40-43.6734 47.1920   1
  -3  12  41 26.1796 31.5903   1
 -12  -3  41 55.4806 38.2434   1
  -4  12   0-5.55226 9.52220   1
  -4  12   1-19.2623 15.6651   1
  -4  12  -1-10.8240 7.92836   1
  -4  12   2 40.0863 18.6556   1
  -4  12   3-9.71028 16.3731   1
  -4  12   4 51.4136 24.2130   1
  -4  12   5-31.7652 20.4750   1
  -4  12   6 29.8159 18.3868   1
  -4  12   7-24.0308 20.3933   1
 -12  -4   8 1.17817 19.7673   1
  -4  12   8 43.2108 22.9116   1
  -4  12   9 34.6476 25.4734   1
 -12  -4   9 16.3092 30.0637   1
 -12  -4  10-27.8955 27.9952   1
  -4  12  10 17.1229 18.3008   1
 -12  -4  11 70.0690 42.2302   1
  -4  12  11-21.2721 21.5948   1
 -12  -4  12 91.4100 46.7662   1
  -4  12  12 14.0836 11.3615   1
 -12  -4  13 39.6896 27.7035   1
  -4  12  13-11.4349 25.2385   1
  -4  12  14-12.0831 27.8080   1
 -12  -4  14 14.1010 25.2022   1
  -4  12  15-22.4228 26.1110   1
 -12  -4  15-46.6172 32.9821   1
  -4  12  16-39.2611 26.2079   1
 -12  -4  16 9.63479 31.0623   1
  -4  12  17 9.41841 13.9486   1
 -12  -4  17 18.1895 21.3765   1
  -4  12  18-14.6481 12.7227   1
 -12  -4  18-13.5583 27.4742   1
  -4  12  19 11.6953 24.4686   1
 -12  -4  19 2.16682 23.9265   1
  -4  12  20 13.0632 24.5421   1
 -12  -4  20 58.1070 46.8789   1
  -4  12  21 37.8201 34.1391   1
 -12  -4  21 17.0671 28.0448   1
  -4  12  22-5.63253 25.4450   1
 -12  -4  22-2.75799 30.3431   1
  -4  12  23 27.6808 26.3145   1
 -12  -4  23 26.8428 34.5615   1
  -4  12  24 41.7772 29.9793   1
 -12  -4  24 17.4361 23.3530   1
  -4  12  25-0.54093 22.0426   1
 -12  -4  25 1.08159 23.3048   1
  -4  12  26-34.6458 20.1725   1
 -12  -4  26 3.28650 19.6930   1
  -4  12  27 32.9119 32.1431   1
 -12  -4  27 26.4818 34.0103   1
  -4  12  28 20.8147 16.5780   1
 -12  -4  28-14.3856 28.6293   1
  -4  12  29 4.76148 23.5581   1
 -12  -4  29 16.5015 19.5238   1
  -4  12  30-24.2607 27.9883   1
 -12  -4  30 43.5581 44.7982   1
  -4  12  31 43.8444 37.1445   1
 -12  -4  31 37.8621 32.0484   1
  -4  12  32 101.711 53.1763   1
 -12  -4  32-17.1061 19.2098   1
  -4  12  33 44.3760 41.8254   1
 -12  -4  33 12.0949 37.0881   1
  -4  12  34 19.0355 36.1754   1
 -12  -4  34-2.49998 24.3118   1
  -4  12  35 31.6220 42.6307   1
 -12  -4  35-13.2290 22.5999   1
  -4  12  36 39.8443 36.1187   1
 -12  -4  36 17.1928 22.7329   1
 -12  -4  37-8.45752 27.8301   1
  -4  12  37-26.7758 17.0867   1
 -12  -4  38-83.0859 51.7421   1
  -4  12  38-11.9819 31.2171   1
 -12  -4  39 9.68192 17.7159   1
  -4  12  39-73.5435 44.8761   1
 -12  -4  40 13.2644 17.4659   1
  -4  12  40 36.4592 21.0964   1
 -12  -4  41 36.8667 49.5308   1
 -12  -4  42-14.4013 22.3092   1
  -5  12   0 6.50523 10.9444   1
  -5  12  -1 29.4784 11.0969   1
  -5  12   1 46.0084 24.6049   1
  -5  12   2 83.8257 27.3724   1
  -5  12   3 5.85709 12.3338   1
  -5  12   4 10.5043 14.6503   1
  -5  12   5-4.62075 15.0786   1
  -5  12   6 34.0672 17.1904   1
  -5  12   7-9.50791 19.3730   1
  -5  12   8-20.4838 24.2546   1
  -5  12   9 18.7730 11.2285   1
 -12  -5   9 54.9373 47.5352   1
 -12  -5  10 24.3566 38.1169   1
  -5  12  10 23.3135 17.7128   1
 -12  -5  11-1.05691 21.9976   1
  -5  12  11 9.95825 26.8662   1
 -12  -5  12-18.9013 30.9974   1
  -5  12  12-6.37446 10.8807   1
 -12  -5  13-4.92103 19.0422   1
  -5  12  13-8.87089 14.6192   1
 -12  -5  14 27.4439 33.7191   1
  -5  12  14 17.8435 21.8236   1
 -12  -5  15 8.39310 28.6208   1
  -5  12  15 43.0175 40.4655   1
 -12  -5  16 10.2399 27.6906   1
  -5  12  16 30.3166 27.9353   1
 -12  -5  17 30.0685 32.3415   1
  -5  12  17 26.1923 20.3887   1
 -12  -5  18 19.4137 22.7420   1
  -5  12  18 66.9154 35.8961   1
 -12  -5  19 38.5919 31.6239   1
  -5  12  19 42.7561 30.6111   1
 -12  -5  20-36.0133 25.8589   1
  -5  12  20-2.16421 28.9378   1
 -12  -5  21 10.8774 21.7761   1
  -5  12  21-2.73054 21.5227   1
  -5  12  22-16.6994 27.3278   1
 -12  -5  22 32.9703 36.8023   1
 -12  -5  23 6.32156 24.6673   1
  -5  12  23 22.4616 30.8559   1
 -12  -5  24-10.7058 32.4035   1
  -5  12  24 32.2527 32.5330   1
  -5  12  25 45.2661 29.3654   1
 -12  -5  25 66.7913 46.9788   1
  -5  12  26 11.2934 18.5724   1
 -12  -5  26 66.6391 44.8198   1
  -5  12  27-55.5874 38.9378   1
 -12  -5  27 30.2486 37.3885   1
  -5  12  28 21.6878 42.6870   1
 -12  -5  28 46.2218 38.5817   1
  -5  12  29-3.12423 16.3964   1
 -12  -5  29 24.8095 24.4584   1
  -5  12  30-61.7895 49.0053   1
 -12  -5  30-20.4954 25.9996   1
  -5  12  31-8.38507 22.2682   1
 -12  -5  31 57.8777 43.3317   1
  -5  12  32 64.7002 46.6605   1
 -12  -5  32 46.6545 38.8070   1
  -5  12  33 0.04321 28.1959   1
 -12  -5  33-38.6009 28.3540   1
  -5  12  34-12.4890 39.0491   1
 -12  -5  34 7.52341 17.5218   1
  -5  12  35 29.5864 37.9827   1
 -12  -5  35 40.8168 33.9522   1
  -5  12  36-59.5453 46.3849   1
 -12  -5  36-10.6941 20.8128   1
  -5  12  37 79.9269 47.7261   1
 -12  -5  37 98.2299 60.0256   1
  -5  12  38 19.2032 39.1471   1
 -12  -5  38 43.9298 35.9456   1
  -5  12  39 62.7605 56.3941   1
 -12  -5  39-20.4432 38.1686   1
 -12  -5  40 40.2061 26.3950   1
 -12  -5  41 2.74554 29.7261   1
  -6  12   0 72.1662 32.1318   1
  -6  12   1 35.1020 21.0521   1
  -6  12   2 71.2310 28.9284   1
  -6  12   3 19.2974 24.6149   1
  -6  12   4 36.6412 25.5542   1
  -6  12   5-22.0388 25.6812   1
  -6  12   6-23.2087 19.4067   1
  -6  12   7 5.31223 12.1978   1
  -6  12   8 82.0627 37.3784   1
  -6  12   9 46.1551 38.9225   1
 -12  -6   9 37.7169 29.5293   1
  -6  12  10 14.2236 18.0273   1
 -12  -6  10 16.7671 15.3741   1
 -12  -6  11-0.03417 19.9247   1
  -6  12  11 23.8535 15.5044   1
 -12  -6  12 6.37786 14.9751   1
  -6  12  12 94.6114 45.5134   1
 -12  -6  13 15.6657 30.2748   1
  -6  12  13-9.51876 26.6309   1
 -12  -6  14 54.4858 33.1383   1
  -6  12  14 5.33840 18.2219   1
 -12  -6  15 20.8690 26.9902   1
  -6  12  15 49.7405 34.2533   1
 -12  -6  16 82.8973 50.5004   1
  -6  12  16 31.3531 27.8282   1
 -12  -6  17-17.3315 30.1865   1
  -6  12  17 10.3806 19.2422   1
 -12  -6  18 31.5807 17.0604   1
  -6  12  18-11.1041 12.7535   1
 -12  -6  19-7.97539 17.9470   1
  -6  12  19 43.2630 33.9651   1
 -12  -6  20 47.7167 34.3066   1
  -6  12  20-30.6426 28.8255   1
 -12  -6  21-5.02219 26.4122   1
  -6  12  21-7.10317 15.6075   1
 -12  -6  22 25.2041 32.0786   1
  -6  12  22-13.9133 31.3080   1
 -12  -6  23-22.2666 38.0052   1
  -6  12  23-2.89211 29.7149   1
 -12  -6  24-39.5285 36.0477   1
  -6  12  24 31.7975 30.9863   1
 -12  -6  25 11.8302 36.1330   1
  -6  12  25 17.2877 25.6817   1
 -12  -6  26-5.29271 27.1210   1
  -6  12  26 23.3834 28.5093   1
 -12  -6  27-24.4114 28.2918   1
  -6  12  27 66.5397 53.0044   1
 -12  -6  28-48.7168 28.2532   1
  -6  12  28 7.80058 34.7319   1
 -12  -6  29 57.6901 53.3400   1
  -6  12  29 42.7814 42.4771   1
 -12  -6  30 4.95754 29.5461   1
  -6  12  30-8.27778 21.6734   1
  -6  12  31 62.6498 33.1591   1
 -12  -6  31-28.7543 32.6544   1
  -6  12  32 1.65892 39.8054   1
 -12  -6  32 1.15927 27.8231   1
  -6  12  33-33.7542 33.7838   1
 -12  -6  33 17.2540 29.6880   1
  -6  12  34-10.2077 40.6806   1
 -12  -6  34 5.19440 36.6369   1
  -6  12  35-55.8528 25.0312   1
 -12  -6  35-24.0579 22.6553   1
  -6  12  36 21.8187 25.1672   1
 -12  -6  36 54.8248 47.5988   1
  -6  12  37 76.8360 43.0234   1
 -12  -6  37 13.0312 21.0568   1
 -12  -6  38-25.7760 41.5009   1
 -12  -6  39 66.0793 48.0807   1
  -7  12   0 14.3730 29.7458   1
  -7  12   1 16.6529 12.8176   1
  -7  12   2 51.4036 25.3836   1
  -7  12   3 15.7084 26.3919   1
  -7  12   4 56.1096 29.7670   1
  -7  12   5-17.7151 27.4513   1
  -7  12   6 75.3248 39.1316   1
  -7  12   7-3.12555 19.9699   1
  -7  12   8 19.0754 20.4291   1
  -7  12   9 46.6531 28.3221   1
 -12  -7   9 41.7188 23.9810   1
  -7  12  10 48.3969 25.6411   1
 -12  -7  10 29.1077 28.4452   1
 -12  -7  11 12.4378 25.0613   1
  -7  12  11 2.71788 26.4946   1
 -12  -7  12 28.7831 34.2964   1
  -7  12  12 31.5845 30.0531   1
 -12  -7  13 83.5857 49.7059   1
  -7  12  13-20.7729 27.7663   1
 -12  -7  14-5.49889 27.2293   1
  -7  12  14 32.6630 21.4590   1
 -12  -7  15-15.0067 19.0961   1
  -7  12  15 66.8733 38.5257   1
 -12  -7  16 64.1724 44.8603   1
  -7  12  16-5.72369 19.9680   1
 -12  -7  17-0.21068 21.4313   1
  -7  12  17 23.4981 34.7971   1
 -12  -7  18-9.92957 20.9185   1
  -7  12  18 13.8704 29.1807   1
 -12  -7  19 17.5063 16.8952   1
  -7  12  19-4.02263 25.2033   1
 -12  -7  20-49.4371 38.5710   1
  -7  12  20-8.35346 33.9302   1
 -12  -7  21-39.8990 38.5854   1
  -7  12  21 29.2268 27.8159   1
 -12  -7  22 64.8136 46.3003   1
  -7  12  22-14.1205 22.0747   1
 -12  -7  23-23.3234 23.5282   1
  -7  12  23 25.3079 30.2817   1
 -12  -7  24 9.43462 25.5472   1
  -7  12  24 8.92023 30.6520   1
 -12  -7  25 42.8502 32.1846   1
  -7  12  25-3.85593 20.4462   1
 -12  -7  26-5.11935 23.7266   1
  -7  12  26 13.3493 33.5107   1
 -12  -7  27 27.1839 42.2575   1
  -7  12  27 50.2739 35.5438   1
 -12  -7  28 72.3666 47.8598   1
  -7  12  28-34.7025 33.6014   1
 -12  -7  29 84.4497 46.0002   1
  -7  12  29 17.2110 21.7686   1
 -12  -7  30 1.98615 35.7674   1
  -7  12  30 32.8874 42.3730   1
 -12  -7  31 66.6095 49.9138   1
  -7  12  31 151.796 67.6916   1
 -12  -7  32 15.2783 22.4466   1
  -7  12  32 35.6123 36.7255   1
 -12  -7  33 7.96700 26.7654   1
  -7  12  33-8.08493 24.6358   1
 -12  -7  34 4.47639 29.4616   1
  -7  12  34 20.8620 21.9657   1
  -7  12  35-4.08185 19.3315   1
  -7  12  36 66.4225 52.8229   1
  -8  12   1-24.7020 15.6429   1
  -8  12   2 10.2432 21.4898   1
  -8  12   3-8.49451 16.2657   1
  -8  12   4 6.55395 16.4014   1
  -8  12   5-2.71209 27.3829   1
  -8  12   6 47.6921 37.3902   1
  -8  12   7-10.0358 13.1382   1
  -8  12   8-23.1595 14.0245   1
 -12  -8   8-0.51516 16.8929   1
  -8  12   9 19.1467 12.7550   1
 -12  -8   9 59.0307 40.1311   1
 -12  -8  10-18.1209 20.9839   1
  -8  12  10-6.18591 28.8543   1
 -12  -8  11-27.0963 28.4240   1
  -8  12  11 7.39361 23.9998   1
 -12  -8  12 0.61899 25.1804   1
  -8  12  12 33.4815 27.7928   1
 -12  -8  13 74.6008 44.1900   1
  -8  12  13 59.0454 30.1385   1
 -12  -8  14-0.96740 15.5089   1
  -8  12  14 30.9298 18.9165   1
 -12  -8  15-1.73325 22.9773   1
  -8  12  15 82.4287 42.5026   1
 -12  -8  16-12.9467 30.1068   1
  -8  12  16-4.52915 18.1534   1
 -12  -8  17 60.2427 49.0257   1
  -8  12  17 54.1543 40.3605   1
 -12  -8  18 23.4081 26.5198   1
  -8  12  18 16.5270 14.8198   1
 -12  -8  19 2.75755 17.3219   1
  -8  12  19 90.1848 50.5673   1
 -12  -8  20-8.43281 23.2291   1
  -8  12  20 5.11755 35.0189   1
 -12  -8  21 42.2457 31.6144   1
  -8  12  21-3.37976 26.2210   1
 -12  -8  22-24.6229 34.0657   1
  -8  12  22-27.4745 29.0152   1
 -12  -8  23 5.89644 30.4466   1
  -8  12  23 37.0878 28.9480   1
 -12  -8  24 54.5921 47.7361   1
  -8  12  24-27.6379 27.6617   1
 -12  -8  25 23.0445 24.5190   1
  -8  12  25 6.83299 27.4361   1
 -12  -8  26 13.3539 17.6289   1
  -8  12  26-31.1953 25.0887   1
 -12  -8  27-44.3197 41.8532   1
  -8  12  27 51.7169 39.7412   1
 -12  -8  28-9.43056 30.9884   1
  -8  12  28-11.4359 30.4780   1
  -8  12  29 15.3352 31.5831   1
  -8  12  30-43.3431 32.0937   1
  -8  12  31-21.6372 37.5137   1
  -8  12  32-34.6355 39.3969   1
  -8  12  33-75.8641 53.0231   1
  -8  12  34 20.3529 35.2030   1
  -9  12   2 34.3669 11.9363   1
  -9  12   3-22.8938 16.0043   1
  -9  12   4-10.6342 21.1065   1
  -9  12   5 5.04744 32.1624   1
  -9  12   6-23.7237 30.7577   1
  -9  12   7 12.9359 30.4304   1
  -9  12   8 41.6140 27.4294   1
 -12  -9   8 32.6023 25.7035   1
  -9  12   9-11.1621 16.8071   1
 -12  -9   9-7.85126 29.0730   1
 -12  -9  10 26.9990 36.2838   1
  -9  12  10 64.9606 30.9164   1
 -12  -9  11-33.8246 29.2978   1
  -9  12  11-7.03853 18.6814   1
  -9  12  12 48.4328 41.6344   1
 -12  -9  12 12.9606 25.1235   1
  -9  12  13 100.285 52.0810   1
 -12  -9  13-11.8352 23.6277   1
  -9  12  14 16.4713 20.5294   1
 -12  -9  14-51.3011 45.0899   1
  -9  12  15 25.2561 35.4850   1
 -12  -9  15-55.5504 51.5439   1
  -9  12  16-26.9738 34.9558   1
 -12  -9  16-25.0639 34.4637   1
  -9  12  17-41.7303 48.4435   1
 -12  -9  17-2.70931 31.5799   1
  -9  12  18 48.1217 34.2481   1
 -12  -9  18 14.3328 13.7633   1
  -9  12  19 41.7956 27.3010   1
 -12  -9  19-0.38537 21.2573   1
  -9  12  20 22.5847 33.5916   1
 -12  -9  20 5.81054 24.5275   1
  -9  12  21-52.3857 41.6342   1
 -12  -9  21 38.3943 33.5024   1
  -9  12  22 10.3448 22.9826   1
  -9  12  23 1.03171 23.0420   1
  -9  12  24 37.8024 37.2878   1
  -9  12  25 58.2678 35.2933   1
  -9  12  26-44.0721 41.9335   1
  -9  12  27 93.9425 62.1221   1
  -9  12  28 9.70981 29.3848   1
  -9  12  29 33.1026 39.5451   1
  -9  12  30-5.72701 46.7541   1
  -9  12  31 18.6075 39.5086   1
  -9  12  32-14.2673 31.1704   1
 -10  12   4 55.0467 29.5665   1
 -10  12   5-25.8893 37.3438   1
 -10  12   6-1.33528 18.4014   1
 -10  12   7 55.7774 50.4153   1
 -10  12   8 51.9262 33.0787   1
 -12 -10   8-23.8617 32.7887   1
 -12 -10   9 9.89318 14.9998   1
 -10  12   9 6.58216 20.6048   1
 -12 -10  10 10.5896 21.0876   1
 -10  12  10-32.9125 30.6307   1
 -12 -10  11 3.25989 30.2956   1
 -10  12  11-33.9877 17.1293   1
 -12 -10  12 32.9328 30.8715   1
 -10  12  12-15.5233 33.0100   1
 -10  12  13-43.3699 33.4297   1
 -10  12  14-2.32457 35.7935   1
 -10  12  15 38.8515 41.5868   1
 -10  12  16 38.6458 44.5903   1
 -10  12  17 5.90170 16.1081   1
 -10  12  18-29.3263 42.8063   1
 -10  12  19-16.0462 24.0678   1
 -10  12  20 26.4656 24.6638   1
 -10  12  21 20.9027 15.8588   1
 -10  12  22 30.3533 39.1240   1
 -10  12  23 70.4113 50.8578   1
 -10  12  24 72.3267 50.3602   1
 -10  12  25 32.1707 34.0896   1
 -10  12  26 59.0854 57.3599   1
 -10  12  27 35.1945 43.6341   1
 -10  12  28 57.7369 38.5050   1
 -10  12  29 24.6479 35.1299   1
 -11  12   6 24.3778 28.1682   1
 -11  12   7-38.0184 31.0358   1
 -11  12   8-1.48029 24.5813   1
 -11  12   9-0.80730 32.7126   1
 -11  12  10-10.3703 19.2875   1
 -11  12  11-32.5425 35.4900   1
 -11  12  12 5.20703 24.6484   1
 -11  12  13-4.35452 19.2155   1
 -11  12  14 37.1127 38.2247   1
 -11  12  15 31.5052 25.3522   1
 -11  12  16-4.13096 18.6693   1
 -11  12  17 7.44049 25.9374   1
 -11  12  18-11.0802 32.6579   1
 -11  12  19-11.2336 18.2081   1
 -11  12  20-54.0244 50.3616   1
 -11  12  21 24.1353 41.3603   1
 -11  12  22-26.6816 39.7867   1
 -11  12  23-35.5774 21.8879   1
 -11  12  24 30.3179 31.3042   1
 -11  12  25 83.2459 53.9339   1
 -12  12   9 53.1542 36.3374   1
 -12  12  10 37.6627 32.2565   1
 -12  12  11 22.0374 20.3635   1
 -12  12  12 1.42173 30.6363   1
 -12  12  13 7.51491 34.3449   1
 -12  12  14-81.6185 49.2579   1
 -12  12  15 11.0356 18.4367   1
 -12  12  16 35.8552 39.5991   1
 -12  12  17-95.6796 55.1276   1
 -12  12  18 18.5071 33.2417   1
 -12  12  19 16.9405 26.3512   1
 -12  12  20 39.3190 39.0769   1
 -12  12  21 74.0471 39.9093   1
 -13  11   0 58.3928 47.7765   1
 -13  11   1 49.2635 32.6925   1
 -13  11   2-13.4191 26.8434   1
 -13  11   3 3.13684 24.8538   1
 -13  11   4-9.26404 28.6210   1
 -13  11   5-4.59950 38.2777   1
 -13  11   6 52.2754 29.6110   1
 -13  11   7 9.28090 27.8062   1
 -13  11   8-27.3621 22.7011   1
 -13  11   9-2.66596 21.1473   1
 -13  11  10 71.9552 47.4865   1
 -13  11  11-8.19880 20.0604   1
 -13  11  12 27.0119 19.6489   1
 -13  11  13-21.2604 31.4330   1
 -13  11  14-31.1257 34.0370   1
 -13  11  15-72.7636 56.2914   1
 -13  11  16 6.54791 20.0335   1
 -13  11  17-80.0118 59.7530   1
 -13  11  18-29.2139 40.7722   1
 -13  11  19-5.40594 43.9134   1
 -13  10   0-6.92219 32.9343   1
 -13  10  -1-51.5679 41.6259   1
 -13  10   1 4.54712 20.0705   1
 -13  10  -2-48.8702 40.1437   1
 -13  10   2 11.6220 17.1655   1
 -13  10  -3-0.99011 15.6928   1
 -13  10   3-8.49491 15.8380   1
 -13  10  -4 17.2613 22.4567   1
 -13  10   4 59.6570 40.5127   1
 -13  10  -5 42.4284 35.5806   1
 -13  10   5 2.96722 27.7034   1
 -13  10  -6 18.0940 16.4815   1
 -13  10   6-43.4821 42.2979   1
 -13  10  -7 14.3594 25.2481   1
 -13  10   7-25.1859 32.0330   1
 -13  10  -8-20.4716 14.5111   1
 -13  10   8 7.88575 30.0593   1
 -13  10  -9 15.4050 19.9277   1
 -13  10   9-91.3268 56.5824   1
 -13  10 -10-26.6264 31.1662   1
 -13  10  10 1.07278 26.7608   1
 -13  10  11-69.0007 54.2353   1
 -13  10  12-38.5058 46.4931   1
 -13  10  13-45.5767 51.4193   1
 -13  10  14-25.8760 23.2674   1
 -13  10  15 8.35784 19.0256   1
 -13  10  16-33.5543 36.9364   1
 -13  10  17 45.5043 48.5052   1
 -13  10  18 50.8424 54.1746   1
 -13  10  19 11.0444 21.5394   1
 -13  10  20 2.69039 29.8158   1
 -13  10  21 3.52318 30.4261   1
 -13   9   0 2.00689 19.5881   1
 -13   9  -1-39.8414 34.0085   1
 -13   9   1 7.22860 27.3862   1
 -13   9  -2 36.7090 18.7792   1
 -13   9   2 3.48474 36.6698   1
 -13   9  -3 79.6965 52.8153   1
 -13   9   3-38.0457 30.3744   1
 -13   9  -4 27.8081 36.3507   1
 -13   9   4 15.3230 23.1262   1
 -13   9  -5-21.7155 19.0024   1
 -13   9   5-31.8826 35.4088   1
 -13   9  -6-25.7521 35.0710   1
 -13   9   6 16.4146 26.2118   1
 -13   9  -7 15.6713 19.9844   1
 -13   9   7 9.82231 42.2989   1
 -13   9  -8 11.7232 20.5102   1
 -13   9   8 35.8862 32.2625   1
 -13   9  -9-6.09138 30.5205   1
 -13   9   9 9.31728 40.8080   1
 -13   9 -10-24.4425 23.6527   1
 -13   9  10 19.5994 20.0992   1
 -13   9 -11-59.5554 47.6467   1
 -13   9  11-29.0065 32.1500   1
 -13   9 -12-77.1781 54.8836   1
 -13   9  12-42.6572 35.5943   1
 -13   9 -13-15.8266 31.6543   1
 -13   9  13 9.36018 21.5475   1
 -13   9 -14 36.3204 47.6985   1
 -13   9  14 40.6929 54.2256   1
 -13   9 -15 45.4788 36.3244   1
 -13   9  15 7.21926 33.4814   1
 -13   9  16 4.31498 16.9498   1
 -13   9 -16-24.2020 22.7319   1
 -13   9  17-5.79873 29.4931   1
 -13   9 -17-11.3492 27.0479   1
 -13   9  18-59.7489 42.7602   1
 -13   9 -18 1.61050 26.4966   1
 -13   9  19-32.9090 50.3966   1
 -13   9  20 71.6755 44.2803   1
 -13   9  21 40.4548 51.8032   1
 -13   9  22 23.9218 25.2495   1
 -13   9  23-4.45377 38.3734   1
 -13   8   0 48.9583 33.3363   1
 -13   8  -1 33.6636 22.7772   1
 -13   8   1 32.8632 38.8604   1
 -13   8  -2-78.8023 48.7283   1
 -13   8   2 52.7975 41.2813   1
 -13   8  -3-11.3803 32.4643   1
 -13   8   3 25.2413 19.7461   1
 -13   8  -4-14.9029 26.0646   1
 -13   8   4 59.0063 40.1299   1
 -13   8  -5-42.2064 35.1041   1
 -13   8   5 87.5062 49.9149   1
 -13   8  -6-24.1072 28.3979   1
 -13   8   6 40.8126 28.4561   1
 -13   8  -7 25.4354 24.8597   1
 -13   8   7 22.0640 34.3260   1
 -13   8  -8-51.0565 26.0566   1
 -13   8   8 64.4616 58.0065   1
 -13   8  -9-4.38416 26.4431   1
 -13   8   9 90.0685 53.8569   1
 -13   8 -10 35.5842 39.7832   1
 -13   8  10 51.1535 37.9337   1
 -13   8 -11 51.3509 38.8081   1
 -13   8  11 50.3193 54.8527   1
 -13   8  12 36.4412 48.6240   1
 -13   8 -12 13.0544 23.8805   1
 -13   8  13 31.4057 35.0966   1
 -13   8 -13-40.7509 37.4228   1
 -13   8  14-2.91275 27.2814   1
 -13   8 -14-47.2961 39.9059   1
 -13   8  15-62.8406 48.0074   1
 -13   8  16 18.6256 17.0307   1
 -13   8  17-21.7537 44.2288   1
 -13   8  18 56.0604 53.4690   1
 -13   8  19 40.0847 26.9836   1
 -13   8  20-3.24131 25.9451   1
 -13   8  21 41.1052 35.2551   1
 -13   8  22 8.55015 17.8142   1
 -13   8  23-44.5423 41.3337   1
 -13   8  24 68.8577 59.5184   1
 -13   8  25 18.9700 26.0985   1
 -13   8  26-1.48500 32.4537   1
 -13   7   0 8.29761 19.6637   1
 -13   7  -1-28.5477 20.0811   1
 -13   7   1-60.9791 36.3811   1
 -13   7  -2 60.3920 41.0676   1
 -13   7   2 7.73864 18.2461   1
 -13   7  -3 13.6228 35.0809   1
 -13   7   3 17.9663 19.1750   1
 -13   7  -4 73.1773 41.3327   1
 -13   7   4-34.2012 44.7765   1
 -13   7  -5-37.2672 30.6806   1
 -13   7   5-23.7786 25.8194   1
 -13   7  -6 26.7970 15.8641   1
 -13   7   6 45.9641 17.8086   1
 -13   7  -7-32.7077 26.1299   1
 -13   7   7-21.7051 28.1529   1
 -13   7  -8 5.08377 31.4896   1
 -13   7   8-30.1609 28.8983   1
 -13   7   9 24.9381 39.2409   1
 -13   7  -9-56.7453 40.8993   1
 -13   7  10 46.4420 40.5397   1
 -13   7 -10 4.30830 23.8350   1
 -13   7  11 15.3230 37.2006   1
 -13   7  12 29.0531 32.5255   1
 -13   7  13-13.5902 20.6039   1
 -13   7  14 16.3074 17.0810   1
 -13   7  15 27.8606 36.9172   1
 -13   7  16-44.0272 42.1001   1
 -13   7  17 8.94226 23.5773   1
 -13   7  18-75.3264 51.6913   1
 -13   7  19 23.3038 37.4289   1
 -13   7  20-49.2134 35.6940   1
 -13   7  21 37.2877 52.3703   1
 -13   7  22 6.43547 28.2466   1
 -13   7  23 1.05582 18.2272   1
 -13   7  24 23.0766 28.7521   1
 -13   7  25 56.2149 62.1624   1
 -13   7  26 5.41420 22.0402   1
 -13   7  27-47.3740 50.5993   1
 -13   6   0 49.1409 39.1170   1
 -13   6  -1-18.2486 29.6532   1
 -13   6   1-30.9597 27.0379   1
 -13   6  -2-32.0908 30.4238   1
 -13   6   2-26.0004 46.3270   1
 -13   6  -3 56.0916 34.5681   1
 -13   6   3-63.6152 44.8140   1
 -13   6  -4 46.7758 41.8380   1
 -13   6   4-34.9777 43.3640   1
 -13   6  -5 31.1507 41.9169   1
 -13   6   5-38.4191 36.9745   1
 -13   6   6-10.9681 40.5063   1
 -13   6  -6 77.4598 55.2070   1
 -13   6   7-54.1329 38.6192   1
 -13   6  -7 91.9845 55.4626   1
 -13   6   8 21.9758 22.1939   1
 -13   6   9 33.6532 38.1013   1
 -13   6  10 34.9319 34.6992   1
 -13   6  11 2.56012 19.8338   1
 -13   6  12-31.8148 41.1787   1
 -13   6  13-54.3074 40.2138   1
 -13   6  14 26.3419 41.4883   1
 -13   6  15 85.4872 48.4054   1
 -13   6  16 6.05266 17.8048   1
 -13   6  17 34.0643 21.7228   1
 -13   6  18-3.65145 22.7580   1
 -13   6  19 68.6206 42.1536   1
 -13   6  20 25.6877 20.4545   1
 -13   6  21 51.9756 30.8408   1
 -13   6  22 5.24117 23.3320   1
 -13   6  23-6.67852 17.1467   1
 -13   6  24 17.0298 42.1183   1
 -13   6  25 106.612 62.6918   1
 -13   6  26 25.5353 36.2490   1
 -13   6  27-23.4243 39.7021   1
 -13   6  28-3.08613 24.1985   1
 -13   6  29 25.7856 39.9990   1
 -13   5   0-11.5399 19.9323   1
 -13   5  -1 84.9777 54.9006   1
 -13   5   1-18.7576 21.4763   1
 -13   5  -2-23.8740 26.6158   1
 -13   5   2 79.0366 50.0430   1
 -13   5   3 43.9387 46.0072   1
 -13   5  -3-0.62803 20.6031   1
 -13   5   4 58.7455 38.9949   1
 -13   5  -4 64.3454 43.3420   1
 -13   5   5 6.90639 17.0167   1
 -13   5  -5 26.0308 40.8836   1
 -13   5   6-11.6003 33.8654   1
 -13   5   7-30.7964 28.9395   1
 -13   5   8 33.6474 15.0984   1
 -13   5   9 31.7634 35.9093   1
 -13   5  10 51.3147 44.9741   1
 -13   5  11 55.8319 37.3526   1
 -13   5  12 3.07132 39.6133   1
 -13   5  13 42.4562 41.5336   1
 -13   5  14-64.8966 48.7953   1
 -13   5  15-11.6376 18.1863   1
 -13   5  16-5.65331 26.0773   1
 -13   5  17 10.7573 29.6768   1
 -13   5  18-0.99379 17.3277   1
 -13   5  19 12.3814 18.9474   1
 -13   5  20 11.6103 30.0185   1
 -13   5  21 112.787 72.8496   1
 -13   5  22 37.6332 48.1075   1
 -13   5  23 43.9652 37.9456   1
 -13   5  24-16.2335 33.0727   1
 -13   5  25 4.74526 43.5493   1
 -13   5  26 70.6750 53.6799   1
 -13   5  27 64.6850 42.7213   1
 -13   5  28-44.6297 49.5781   1
 -13   5  29 103.352 54.3527   1
 -13   5  30 4.70267 33.1911   1
 -13   5  31 23.2039 25.6955   1
 -13   4   0 95.3876 51.1933   1
 -13   4   1 42.2981 41.9407   1
 -13   4  -1 15.7055 27.3528   1
 -13   4   2-1.07902 22.3630   1
 -13   4  -2 40.7750 20.0534   1
 -13   4   3-52.8004 33.5284   1
 -13   4   4 20.7654 32.8013   1
 -13   4   5 38.2095 30.9647   1
 -13   4   6 4.78615 16.9935   1
 -13   4   7-25.4276 36.4016   1
 -13   4   8 9.43532 28.9104   1
 -13   4   9 36.7518 32.9678   1
 -13   4  10 34.0027 21.7747   1
 -13   4  11-10.1440 36.3922   1
 -13   4  12 60.8688 29.5855   1
 -13   4  13-15.5662 25.7194   1
 -13   4  14 15.6840 34.2383   1
 -13   4  15 8.66444 24.8794   1
 -13   4  16 29.0206 26.5682   1
 -13   4  17-2.05766 23.7610   1
 -13   4  18 34.5024 36.3660   1
 -13   4  19-1.89245 19.4058   1
 -13   4  20 59.8832 34.6334   1
 -13   4  21 41.7322 41.7783   1
 -13   4  22 85.3304 63.4830   1
 -13   4  23-43.6741 21.5369   1
 -13   4  24 36.0112 39.8470   1
 -13   4  25 20.1699 37.4234   1
 -13   4  26 41.2982 49.9722   1
 -13   4  27 9.92426 32.6971   1
 -13   4  28-8.56340 25.5878   1
 -13   4  29-10.4705 36.8484   1
 -13   4  30-55.8093 55.6897   1
 -13   4  31-6.00831 25.9282   1
 -13   4  32-1.18940 39.7453   1
 -13   3   0-3.19711 28.7956   1
 -13   3   1-52.0863 40.1756   1
 -13   3   2 67.3918 42.7213   1
 -13   3   3-2.15074 28.2140   1
 -13   3   4-1.41509 25.6145   1
 -13   3   5-60.9949 39.6392   1
 -13   3   6 48.7985 36.2388   1
 -13   3   7 5.71553 23.6797   1
 -13   3   8-50.8650 51.3635   1
 -13   3   9 15.3496 25.3504   1
 -13   3  10 45.8236 39.5728   1
 -13   3  11-64.7203 33.3225   1
 -13   3  12 4.87682 25.6651   1
 -13   3  13 34.5328 40.1089   1
 -13   3  14 8.13603 31.1821   1
 -13   3  15 13.5633 25.8351   1
 -13   3  16 38.7087 43.4853   1
 -13   3  17 54.0723 40.9432   1
 -13   3  18 55.6977 55.2593   1
 -13   3  19 27.2270 32.5792   1
 -13   3  20 2.52892 38.0975   1
 -13   3  21 57.7276 43.8278   1
 -13   3  22-26.4682 18.8473   1
 -13   3  23 59.2540 52.1600   1
 -13   3  24 9.61871 37.2686   1
 -13   3  25-5.63170 24.5331   1
 -13   3  26-29.6259 39.0129   1
 -13   3  27-94.1655 66.1020   1
 -13   3  28-11.3282 31.5161   1
 -13   3  29 28.8642 35.5988   1
 -13   3  30 59.8824 62.3782   1
 -13   3  31 126.151 70.9601   1
 -13   3  32 32.8011 38.8929   1
 -13   3  33 21.4022 22.0496   1
 -13   2   1 7.95712 20.6869   1
 -13   2   2-12.5703 24.2576   1
 -13   2   3 8.62640 19.1043   1
 -13   2   4 29.8945 32.6955   1
 -13   2   5 34.1822 36.9844   1
 -13   2   6 33.5635 31.3851   1
 -13   2   7-5.66812 19.6772   1
 -13   2   8 91.0851 44.7682   1
 -13   2   9-23.4917 15.8511   1
 -13   2  10-7.08264 19.4882   1
 -13   2  11-44.9452 30.2983   1
 -13   2  12 135.324 63.1251   1
 -13   2  13 102.568 53.5613   1
 -13   2  14-17.8601 27.9277   1
 -13   2  15 29.4304 33.6319   1
 -13   2  16 29.8521 35.7141   1
 -13   2  17 31.2727 33.5064   1
 -13   2  18 11.8058 41.7250   1
 -13   2  19 25.3866 26.6558   1
 -13   2  20-1.90132 26.9631   1
 -13   2  21 17.2795 30.9080   1
 -13   2  22 28.1965 32.2199   1
 -13   2  23-26.0185 27.3551   1
 -13   2  24-6.09118 34.2217   1
 -13   2  25-26.8605 30.0922   1
 -13   2  26 34.8664 39.0918   1
 -13   2  27-8.71313 19.6658   1
 -13   2  28-21.4871 26.6866   1
 -13   2  29-62.7868 59.3511   1
 -13   2  30-3.63180 23.7398   1
 -13   2  31 80.8659 48.6942   1
 -13   2  32 108.912 55.5865   1
 -13   2  33 52.9709 54.3828   1
 -13   2  34-9.52492 26.6378   1
 -13   1   3-1.32199 15.6092   1
 -13   1   4-13.5907 35.4464   1
 -13   1   5 56.2956 40.8723   1
 -13   1   6 49.1834 44.0553   1
 -13   1   7 24.4680 24.1815   1
 -13   1   8-3.30011 15.3854   1
 -13   1   9 18.9766 34.9482   1
 -13   1  10 86.5086 49.6608   1
 -13   1  11 27.7677 33.5720   1
 -13   1  12-19.1170 21.1588   1
 -13   1  13 59.3003 50.9698   1
 -13   1  14 94.3556 53.0272   1
 -13   1  15-14.3616 19.6855   1
 -13   1  16 7.67032 26.9976   1
 -13   1  17 7.46623 25.1417   1
 -13   1  18-32.1009 38.3404   1
 -13   1  19-16.1669 28.4733   1
 -13   1  20 6.63312 28.1263   1
 -13   1  21 76.2412 50.1358   1
 -13   1  22 18.2480 36.7043   1
 -13   1  23-3.20252 29.4712   1
 -13   1  24 11.5302 19.2997   1
 -13   1  25 21.1471 45.7743   1
 -13   1  26 28.9119 38.5171   1
 -13   1  27 39.2702 29.7954   1
 -13   1  28-36.0781 45.0576   1
 -13   1  29 5.07438 21.8366   1
 -13   1  30-22.6946 46.8450   1
 -13   1  31 22.2118 17.9295   1
 -13   1  32-24.7105 52.8911   1
 -13   1  33-31.9740 34.7190   1
 -13   1  34-13.1202 35.9696   1
 -13   1  35 142.061 74.5896   1
 -13   0   4-31.0089 37.9740   1
 -13   0   5-34.0118 45.6669   1
 -13   0   6 62.6097 41.7972   1
 -13   0   7 62.5389 43.5894   1
 -13   0   8 39.2565 43.1103   1
 -13   0   9 54.0640 47.4179   1
 -13   0  10 49.6709 48.1372   1
 -13   0  11 11.4357 28.8003   1
 -13   0  12 29.4252 31.6039   1
 -13   0  13-10.1025 36.5365   1
 -13   0  14 77.0148 40.0616   1
 -13   0  15-46.3940 20.3157   1
 -13   0  16 32.4956 31.1559   1
 -13   0  17 26.6577 28.2266   1
 -13   0  18 93.0243 52.6841   1
 -13   0  19 12.3235 34.2477   1
 -13   0  20-24.0544 16.5141   1
 -13   0  21 29.1314 30.7690   1
 -13   0  22 62.8011 49.7761   1
 -13   0  23 0.34203 21.6141   1
 -13   0  24-18.6171 26.1092   1
 -13   0  25 67.4560 46.8257   1
 -13   0  26-7.68903 35.6778   1
 -13   0  27-11.3983 22.1331   1
 -13   0  28-31.9770 36.9411   1
 -13   0  29 27.4746 53.5078   1
 -13   0  30 39.0124 43.1274   1
 -13   0  31 66.7256 54.0446   1
 -13   0  32-24.1557 32.8969   1
 -13   0  33-7.37129 31.9654   1
 -13   0  34 53.4385 49.0325   1
 -13   0  35 20.3186 30.1564   1
 -13   0  36 16.0566 48.0460   1
 -13  -1   5 21.4980 33.9609   1
 -13  -1   6 58.7398 38.0878   1
 -13  -1   7 8.15143 33.0548   1
 -13  -1   8-6.06478 20.9411   1
 -13  -1   9-13.3094 18.5603   1
 -13  -1  10 7.44241 21.2063   1
 -13  -1  11 34.5612 30.3905   1
 -13  -1  12-5.59505 16.5336   1
 -13  -1  13-30.3981 30.7738   1
 -13  -1  14 49.9069 26.0989   1
 -13  -1  15-0.66207 17.1797   1
 -13  -1  16 49.2640 39.0790   1
 -13  -1  17 13.1237 28.3159   1
 -13  -1  18 38.3129 29.0857   1
 -13  -1  19-20.1809 16.5664   1
  -1  13  19 39.5381 25.3238   1
  -1  13  20 19.0159 29.7614   1
 -13  -1  20 11.2811 16.9451   1
  -1  13  21 12.7588 15.7450   1
 -13  -1  21 37.1942 34.5354   1
 -13  -1  22-53.3817 50.2562   1
  -1  13  22 2.71235 22.2307   1
 -13  -1  23 12.4362 18.2862   1
  -1  13  23 34.0842 15.3548   1
 -13  -1  24-39.3085 35.8163   1
  -1  13  24 0.82774 23.1319   1
 -13  -1  25 5.59362 19.7007   1
  -1  13  25 17.0229 27.0516   1
 -13  -1  26 24.5100 38.8464   1
  -1  13  26 1.15253 17.5790   1
 -13  -1  27 49.3613 46.7928   1
  -1  13  27-7.82707 35.4287   1
 -13  -1  28 71.2836 50.6921   1
  -1  13  28-20.8061 17.2332   1
 -13  -1  29 69.2106 47.8205   1
  -1  13  29-62.3373 35.2300   1
  -1  13  30-17.8101 16.8876   1
 -13  -1  30 16.4695 43.7980   1
  -1  13  31 44.0489 28.6380   1
 -13  -1  31 28.5199 23.6928   1
  -1  13  32 4.27427 26.9677   1
 -13  -1  32 21.2979 49.5322   1
  -1  13  33 49.3484 39.0757   1
 -13  -1  33 42.0183 34.9129   1
 -13  -1  34 12.8891 33.3150   1
  -1  13  34-3.10673 23.9633   1
  -1  13  35-5.28701 20.8225   1
 -13  -1  35 63.7313 37.9764   1
  -1  13  36 21.0316 30.7544   1
 -13  -1  36 10.1434 24.8959   1
  -1  13  37 23.0490 33.9187   1
 -13  -2   6-1.03413 30.3597   1
 -13  -2   7 47.8199 42.5600   1
 -13  -2   8 95.5325 54.4592   1
  -2  13   8 86.2539 28.7005   1
 -13  -2   9 7.05476 19.4168   1
  -2  13   9-24.0499 18.9446   1
 -13  -2  10 26.8159 16.9345   1
  -2  13  10 57.0881 31.7302   1
 -13  -2  11 58.8591 46.7664   1
  -2  13  11 17.0365 20.7911   1
 -13  -2  12 2.46548 22.5734   1
  -2  13  12 84.0613 34.0935   1
 -13  -2  13 38.5982 34.8360   1
  -2  13  13-10.1923 11.6468   1
  -2  13  14-21.6807 22.4235   1
 -13  -2  14 37.4493 49.0314   1
  -2  13  15 14.4890 20.3170   1
 -13  -2  15 27.3911 38.8803   1
 -13  -2  16 3.16382 26.1500   1
  -2  13  16 70.9630 25.4251   1
 -13  -2  17 0.78798 17.9878   1
  -2  13  17-68.8899 31.1619   1
 -13  -2  18-20.3180 36.8013   1
  -2  13  18 30.9471 25.4959   1
 -13  -2  19 49.3799 32.0795   1
  -2  13  19-1.11744 21.1856   1
 -13  -2  20-5.88028 42.9648   1
  -2  13  20-42.9849 31.5048   1
 -13  -2  21 36.1475 27.6028   1
  -2  13  21 25.4054 18.8272   1
 -13  -2  22 13.9224 26.6238   1
  -2  13  22-47.2256 35.7468   1
 -13  -2  23 44.7180 26.9273   1
  -2  13  23 17.4630 27.7274   1
 -13  -2  24 75.1440 57.6940   1
  -2  13  24 12.8367 27.1872   1
 -13  -2  25 61.6397 45.8424   1
  -2  13  25 24.3903 15.1118   1
 -13  -2  26 23.9490 39.2078   1
  -2  13  26 15.6089 15.3014   1
 -13  -2  27-3.03780 38.6597   1
  -2  13  27 1.41383 26.1484   1
  -2  13  28 6.76969 17.6728   1
 -13  -2  28-32.1185 48.3778   1
  -2  13  29-48.9194 35.6187   1
 -13  -2  29-38.1599 45.1968   1
  -2  13  30-0.77060 19.4975   1
 -13  -2  30 8.80095 17.3865   1
  -2  13  31-5.14982 17.3544   1
 -13  -2  31 65.4963 37.2414   1
  -2  13  32-9.52617 23.7721   1
 -13  -2  32-81.1463 57.8509   1
  -2  13  33-28.0602 19.2405   1
 -13  -2  33-151.836 64.9246   1
  -2  13  34-45.3442 38.8130   1
 -13  -2  34-52.8160 48.0466   1
  -2  13  35-9.74023 33.9682   1
 -13  -2  35-46.1171 33.7470   1
  -2  13  36-30.7498 32.4742   1
 -13  -2  36 3.85124 26.1170   1
  -2  13  37 20.7784 33.1919   1
 -13  -2  37-19.1443 27.3466   1
  -2  13  38-76.9415 45.2971   1
  -2  13  39 79.1046 56.2462   1
 -13  -3   7 3.41318 21.3956   1
  -3  13   8-18.3071 13.7609   1
 -13  -3   8 8.74346 22.5647   1
 -13  -3   9 30.6155 34.3423   1
  -3  13   9 46.1321 23.6562   1
 -13  -3  10 81.8014 48.1511   1
  -3  13  10 90.6853 34.2024   1
 -13  -3  11-13.3713 20.7505   1
  -3  13  11-1.50463 17.5836   1
 -13  -3  12 3.48362 21.0581   1
  -3  13  12-0.27688 20.0007   1
 -13  -3  13-1.52353 16.6422   1
  -3  13  13-36.1950 29.5628   1
 -13  -3  14 46.3846 40.3095   1
  -3  13  14 41.5162 23.2113   1
 -13  -3  15-15.2484 24.1887   1
  -3  13  15 3.45745 17.1943   1
 -13  -3  16 34.1503 31.0372   1
  -3  13  16 9.57733 11.6421   1
 -13  -3  17-36.4657 29.5723   1
  -3  13  17-9.31730 24.3774   1
 -13  -3  18 20.2091 16.5248   1
  -3  13  18 39.2695 38.1319   1
 -13  -3  19 18.8368 21.1338   1
  -3  13  19-15.6143 30.7387   1
 -13  -3  20-52.5398 38.3585   1
  -3  13  20-8.44118 30.5259   1
 -13  -3  21-5.24985 20.5772   1
  -3  13  21 2.69894 23.5184   1
  -3  13  22 50.5529 34.3668   1
 -13  -3  22 8.22480 17.9244   1
  -3  13  23-5.85080 21.2653   1
 -13  -3  23-20.5790 35.5234   1
  -3  13  24 30.0737 31.9991   1
 -13  -3  24-6.05452 30.1108   1
  -3  13  25-35.8241 32.8473   1
 -13  -3  25 27.7778 32.2082   1
  -3  13  26-34.4513 28.9387   1
 -13  -3  26 13.8203 47.3095   1
  -3  13  27 66.7905 46.9471   1
 -13  -3  27 14.0797 29.7482   1
  -3  13  28 32.6748 33.5701   1
 -13  -3  28 33.7734 40.4001   1
  -3  13  29-0.49586 25.8329   1
 -13  -3  29-47.0529 55.7965   1
  -3  13  30-61.4027 39.8274   1
 -13  -3  30 28.7372 34.9174   1
  -3  13  31 18.8953 22.3353   1
 -13  -3  31 35.0576 39.5061   1
  -3  13  32 6.86899 31.6685   1
 -13  -3  32 16.2591 23.3602   1
  -3  13  33 45.8816 33.7558   1
 -13  -3  33 46.6812 43.2390   1
  -3  13  34 18.6605 31.7348   1
 -13  -3  34-53.5359 21.0178   1
  -3  13  35 6.70930 28.5254   1
 -13  -3  35 15.5609 25.6739   1
  -3  13  36-60.1830 34.1478   1
 -13  -3  36 12.1885 21.0364   1
  -3  13  37-31.2259 29.2953   1
 -13  -3  37 60.9010 42.3181   1
  -3  13  38 63.0884 55.2318   1
  -3  13  39-11.8014 27.5565   1
 -13  -4   7 41.3536 29.3428   1
  -4  13   8 11.3838 11.8600   1
 -13  -4   8-4.17788 23.7483   1
  -4  13   9-4.62980 24.0223   1
 -13  -4   9-11.2967 21.9753   1
 -13  -4  10-26.8741 28.7315   1
  -4  13  10-26.8299 23.0170   1
 -13  -4  11 35.4984 30.3415   1
  -4  13  11 25.5437 23.2943   1
 -13  -4  12 26.9169 36.1192   1
  -4  13  12 26.0285 29.0836   1
 -13  -4  13-12.1395 18.5913   1
  -4  13  13 43.2198 22.4250   1
 -13  -4  14 31.7680 23.1387   1
  -4  13  14 29.5849 19.4383   1
 -13  -4  15-33.8186 30.8347   1
  -4  13  15-1.52165 22.1741   1
 -13  -4  16-24.3950 26.5151   1
  -4  13  16 45.7797 33.7700   1
 -13  -4  17 38.5646 39.1378   1
  -4  13  17 9.85859 23.4288   1
 -13  -4  18 17.7622 34.4076   1
  -4  13  18 31.3335 17.0896   1
 -13  -4  19 0.95324 35.7904   1
  -4  13  19-7.45672 18.0470   1
 -13  -4  20 85.6800 47.7952   1
  -4  13  20 84.7492 50.0238   1
 -13  -4  21 25.1623 29.1585   1
  -4  13  21 27.3237 30.7429   1
 -13  -4  22 4.90260 23.4991   1
  -4  13  22-37.3706 35.7898   1
 -13  -4  23-11.3928 18.7283   1
  -4  13  23-7.03002 17.1043   1
 -13  -4  24 32.7528 35.2803   1
  -4  13  24-12.9866 32.4078   1
 -13  -4  25 61.0068 44.7396   1
  -4  13  25 28.2783 16.3763   1
 -13  -4  26-14.1692 21.7946   1
  -4  13  26-12.4595 38.9350   1
 -13  -4  27-27.3811 47.6258   1
  -4  13  27-24.2197 36.1437   1
 -13  -4  28-3.84722 22.7596   1
  -4  13  28 4.68233 23.9066   1
 -13  -4  29 42.6762 39.8527   1
  -4  13  29 16.3888 28.9626   1
 -13  -4  30-27.6226 22.7960   1
  -4  13  30 47.4438 45.5100   1
 -13  -4  31 65.7885 54.0950   1
  -4  13  31 64.2986 45.2080   1
 -13  -4  32 11.1892 32.0993   1
  -4  13  32-31.2374 25.8763   1
 -13  -4  33-28.1001 41.5937   1
  -4  13  33 63.8764 43.4084   1
 -13  -4  34-35.3074 33.3677   1
  -4  13  34 3.34001 28.1442   1
  -4  13  35 27.0286 48.7658   1
 -13  -4  35-15.0236 43.6695   1
  -4  13  36 25.3617 32.0186   1
 -13  -4  36 2.58041 46.5266   1
  -4  13  37 58.2021 46.4389   1
 -13  -4  37 94.7855 51.8922   1
  -4  13  38 18.5127 19.0852   1
 -13  -4  38 16.9896 25.4807   1
 -13  -5   8-61.5700 36.5939   1
  -5  13   9 23.8888 22.5179   1
 -13  -5   9 34.2254 29.9351   1
 -13  -5  10-6.39668 24.9284   1
  -5  13  10 16.2872 29.4425   1
 -13  -5  11-9.47536 34.5700   1
  -5  13  11-6.45041 18.5858   1
 -13  -5  12-40.7008 34.4302   1
  -5  13  12 16.7276 15.5586   1
 -13  -5  13 13.3991 32.7170   1
  -5  13  13-21.1027 16.8063   1
 -13  -5  14 30.3767 34.1633   1
  -5  13  14 18.8188 25.8151   1
 -13  -5  15 4.38592 29.5510   1
  -5  13  15-19.5248 25.8793   1
 -13  -5  16-18.4264 23.1723   1
  -5  13  16 21.8769 18.9253   1
  -5  13  17-5.76373 31.2565   1
 -13  -5  17 11.4187 27.7564   1
  -5  13  18 4.52811 16.3227   1
 -13  -5  18 65.8700 45.2793   1
  -5  13  19 56.8352 39.4314   1
 -13  -5  19 96.5287 57.5485   1
  -5  13  20 9.84720 12.7376   1
 -13  -5  20 48.9042 53.7515   1
  -5  13  21 30.1708 24.2231   1
 -13  -5  21-34.6061 40.5142   1
  -5  13  22-12.2108 22.8181   1
 -13  -5  22-17.5039 28.7210   1
  -5  13  23-23.6183 36.1656   1
 -13  -5  23 57.7373 45.0919   1
  -5  13  24-18.9238 43.3107   1
 -13  -5  24-23.4867 17.5436   1
  -5  13  25 49.2865 33.0994   1
 -13  -5  25-86.6090 58.8912   1
  -5  13  26 19.9889 21.7761   1
 -13  -5  26-18.5781 34.1580   1
  -5  13  27 19.7648 23.8642   1
 -13  -5  27 2.73914 27.0727   1
  -5  13  28 17.3433 23.1604   1
 -13  -5  28-10.8682 30.4757   1
  -5  13  29 52.5527 40.9213   1
 -13  -5  29 13.8912 27.7426   1
  -5  13  30-23.8117 36.3631   1
 -13  -5  30 44.5394 37.4833   1
  -5  13  31-9.81128 27.2162   1
 -13  -5  31-3.14461 20.2119   1
  -5  13  32-38.0171 32.9699   1
 -13  -5  32-32.3531 27.2427   1
  -5  13  33-74.2737 44.6939   1
 -13  -5  33-42.5995 50.6143   1
  -5  13  34-14.4986 42.8229   1
 -13  -5  34 36.3027 38.7592   1
  -5  13  35 36.4039 25.6082   1
 -13  -5  35 16.2912 22.8360   1
  -5  13  36-1.43940 30.0794   1
 -13  -5  36-72.1149 46.0559   1
  -5  13  37-5.01043 22.4670   1
 -13  -5  37 52.3840 36.0527   1
 -13  -5  38 18.6133 18.9772   1
 -13  -6   8-43.3983 30.3514   1
 -13  -6   9 39.0810 38.3767   1
 -13  -6  10 6.00332 30.2354   1
  -6  13  10 16.6741 16.4375   1
 -13  -6  11 30.7342 32.0875   1
  -6  13  11-31.1925 32.6929   1
 -13  -6  12 85.0442 47.5732   1
  -6  13  12 0.70366 12.9869   1
 -13  -6  13-28.6552 22.2418   1
  -6  13  13 41.0438 30.6008   1
 -13  -6  14 26.9785 29.1917   1
  -6  13  14-4.69379 26.2273   1
 -13  -6  15 28.4931 18.4958   1
  -6  13  15 32.0503 27.4242   1
 -13  -6  16 8.89173 29.5559   1
  -6  13  16-2.42052 29.9163   1
 -13  -6  17-48.9622 33.7520   1
  -6  13  17 4.46942 18.4296   1
 -13  -6  18-113.748 61.1652   1
  -6  13  18 33.3025 28.2662   1
 -13  -6  19-31.7703 42.5036   1
  -6  13  19 16.6175 21.1298   1
 -13  -6  20-27.6809 35.6680   1
  -6  13  20-13.5460 22.2019   1
 -13  -6  21 67.1360 47.9766   1
  -6  13  21 33.8758 31.7020   1
 -13  -6  22 31.2093 42.3456   1
  -6  13  22 41.1754 34.8849   1
 -13  -6  23-0.24442 23.4045   1
  -6  13  23-59.8270 39.5698   1
 -13  -6  24 6.29148 17.9152   1
  -6  13  24 11.4367 34.4477   1
 -13  -6  25 41.7335 30.0206   1
  -6  13  25 9.01194 17.5471   1
  -6  13  26 1.39861 31.8046   1
 -13  -6  26 84.0297 45.9752   1
  -6  13  27-25.3434 28.6502   1
 -13  -6  27-42.7802 41.1773   1
  -6  13  28-18.7542 24.8882   1
 -13  -6  28-55.7252 37.2142   1
  -6  13  29 52.9814 29.5703   1
 -13  -6  29-48.2948 47.4546   1
  -6  13  30 11.8887 28.8247   1
 -13  -6  30-47.6750 32.7368   1
  -6  13  31-5.49626 24.4921   1
 -13  -6  31 32.0905 39.2519   1
  -6  13  32-17.2031 27.5207   1
 -13  -6  32 23.7231 47.5893   1
  -6  13  33 57.2709 43.3102   1
 -13  -6  33 99.3576 58.1563   1
  -6  13  34 2.50177 21.3984   1
 -13  -6  34-26.0322 25.0773   1
  -6  13  35 39.8543 28.0014   1
 -13  -6  35 12.6018 24.8619   1
  -6  13  36 19.4247 24.5471   1
 -13  -6  36-69.2311 39.6366   1
 -13  -7   8-23.9207 33.2731   1
 -13  -7   9-18.3264 19.0272   1
 -13  -7  10-28.8816 35.9175   1
 -13  -7  11 9.30098 25.9332   1
  -7  13  11 26.8038 27.4366   1
 -13  -7  12-2.96764 20.4344   1
  -7  13  12 31.7124 28.9713   1
 -13  -7  13-2.36548 24.9895   1
  -7  13  13-26.6792 24.5693   1
 -13  -7  14 46.3592 47.2914   1
  -7  13  14 10.7488 12.2847   1
 -13  -7  15-12.3755 30.5538   1
  -7  13  15 20.2587 18.5066   1
 -13  -7  16-32.5842 33.0023   1
  -7  13  16 3.62744 32.5523   1
 -13  -7  17 30.9648 26.1978   1
  -7  13  17-11.0167 14.4575   1
 -13  -7  18-0.07804 27.3449   1
  -7  13  18 64.8143 42.7402   1
 -13  -7  19-22.1043 27.3545   1
  -7  13  19 41.2240 34.3068   1
 -13  -7  20 8.81384 19.4824   1
  -7  13  20 16.8930 30.8680   1
 -13  -7  21 9.55388 36.4833   1
  -7  13  21 28.9785 37.4196   1
 -13  -7  22 16.5267 29.2573   1
  -7  13  22 13.6057 20.4271   1
 -13  -7  23-21.2309 36.7306   1
  -7  13  23 72.4295 46.8119   1
 -13  -7  24-2.81434 17.9773   1
  -7  13  24 0.92991 23.0865   1
 -13  -7  25 30.0438 27.0408   1
  -7  13  25-20.8439 26.3846   1
 -13  -7  26 18.1550 42.5787   1
  -7  13  26 84.3550 38.6042   1
 -13  -7  27 29.5353 23.7747   1
  -7  13  27-8.41451 23.0773   1
 -13  -7  28-0.72050 42.8186   1
  -7  13  28-63.2116 47.1189   1
 -13  -7  29-1.19925 24.1574   1
  -7  13  29 31.3067 30.7333   1
 -13  -7  30 1.03914 31.9969   1
  -7  13  30 48.6651 39.5624   1
 -13  -7  31 47.1983 30.5248   1
  -7  13  31-3.42946 21.9402   1
  -7  13  32 47.3396 34.6386   1
 -13  -7  32-21.3906 32.6336   1
  -7  13  33-27.1756 18.3217   1
 -13  -7  33 15.9966 22.2101   1
  -7  13  34-26.7615 33.7382   1
 -13  -8   8 79.7301 57.3575   1
 -13  -8   9 38.1513 45.3252   1
 -13  -8  10-3.65180 29.4222   1
 -13  -8  11 105.819 55.0695   1
 -13  -8  12-16.1593 27.5759   1
  -8  13  12 98.3739 44.3821   1
 -13  -8  13-22.7940 16.5382   1
  -8  13  13-19.5260 32.6862   1
 -13  -8  14-46.7309 47.1776   1
  -8  13  14 0.77253 19.4892   1
 -13  -8  15-12.8978 37.4479   1
  -8  13  15 46.6913 40.2395   1
 -13  -8  16 96.0362 51.5312   1
  -8  13  16-12.5805 15.5740   1
 -13  -8  17 19.9976 21.6419   1
  -8  13  17-37.8401 42.6294   1
 -13  -8  18-8.00511 32.5286   1
  -8  13  18-5.92825 21.2006   1
 -13  -8  19 14.4525 21.7122   1
  -8  13  19 69.6252 49.5950   1
 -13  -8  20 35.1980 24.5900   1
  -8  13  20-1.78705 13.9504   1
 -13  -8  21 0.43480 35.6492   1
  -8  13  21 39.7549 30.8761   1
 -13  -8  22 26.9791 32.4054   1
  -8  13  22-32.1874 32.6983   1
 -13  -8  23-20.2392 30.1618   1
  -8  13  23 36.5738 38.6496   1
 -13  -8  24-42.7258 44.3088   1
  -8  13  24 17.6490 25.0359   1
 -13  -8  25-8.54901 31.1127   1
  -8  13  25-19.1419 25.9983   1
 -13  -8  26 12.1935 21.8697   1
  -8  13  26-16.0735 43.2320   1
  -8  13  27 30.3396 44.1031   1
  -8  13  28-38.6650 32.7744   1
  -8  13  29 0.68544 23.0135   1
  -8  13  30 23.2132 31.7750   1
  -8  13  31 39.7126 32.2027   1
  -8  13  32-51.5015 44.7262   1
 -13  -9   7 38.3142 38.6256   1
 -13  -9   8 36.2062 43.2348   1
 -13  -9   9 23.5527 36.0289   1
 -13  -9  10-1.02965 17.5757   1
 -13  -9  11-23.9389 21.1766   1
 -13  -9  12 18.0714 36.9430   1
 -13  -9  13 95.8020 60.3032   1
 -13  -9  14 23.1888 33.2789   1
  -9  13  14 71.5526 45.1129   1
 -13  -9  15 26.6765 23.5713   1
  -9  13  15 57.6001 46.4113   1
 -13  -9  16 38.4809 29.0267   1
  -9  13  16 45.3761 30.2873   1
 -13  -9  17 24.7809 26.8719   1
  -9  13  17-13.5561 24.1096   1
 -13  -9  18 34.2126 28.9955   1
  -9  13  18 40.4317 32.9312   1
 -13  -9  19 18.6874 23.7824   1
  -9  13  19 50.4814 38.9082   1
  -9  13  20-16.7737 26.6231   1
  -9  13  21-47.5304 39.2966   1
  -9  13  22 15.9394 15.2398   1
  -9  13  23 19.5830 29.4808   1
  -9  13  24 30.1572 35.7681   1
  -9  13  25 38.5245 31.7616   1
  -9  13  26-70.6652 51.6170   1
  -9  13  27 24.9427 18.9385   1
  -9  13  28 25.7018 30.8079   1
  -9  13  29 27.9656 25.9982   1
 -13 -10   7 49.6899 48.2427   1
 -13 -10   8 18.6685 23.0759   1
 -13 -10   9-41.7458 48.1401   1
 -13 -10  10-9.84143 23.3512   1
 -13 -10  11-47.2604 39.9158   1
 -10  13  17-13.9084 22.9354   1
 -10  13  18 11.7901 27.5100   1
 -10  13  19-23.6813 32.9905   1
 -10  13  20-3.84986 23.9135   1
 -10  13  21 68.8734 36.3794   1
 -10  13  22 5.89818 31.8322   1
 -10  13  23 5.56680 27.2574   1
 -10  13  24-6.27265 18.9995   1
 -10  13  25 11.0662 28.5282   1
 -14  11   3-0.30779 22.6256   1
 -14  11   4-19.6580 37.2693   1
 -14  11   5-16.2170 24.7779   1
 -14  11   6-3.48354 26.8879   1
 -14  11   7-25.7762 23.3369   1
 -14  11   8-34.5448 39.0377   1
 -14  11   9-30.4836 31.7109   1
 -14  11  10 79.5328 43.4664   1
 -14  11  11 8.30630 26.3818   1
 -14  11  12 15.5986 27.7811   1
 -14  11  13 23.1630 18.2068   1
 -14  10   0 59.2148 33.5130   1
 -14  10  -1 27.1008 44.4195   1
 -14  10   1-36.8032 19.7878   1
 -14  10  -2 99.6011 52.3262   1
 -14  10   2 41.8435 22.5506   1
 -14  10  -3 89.6446 57.5160   1
 -14  10   3-6.11217 25.1778   1
 -14  10  -4 18.2182 43.1373   1
 -14  10   4-31.6948 37.0057   1
 -14  10  -5 47.0488 40.6327   1
 -14  10   5-12.6104 22.7101   1
 -14  10  -6 29.6603 21.2548   1
 -14  10   6-38.8910 38.0467   1
 -14  10  -7-15.6783 45.7368   1
 -14  10   7-81.8169 43.0597   1
 -14  10  -8 5.37250 22.4031   1
 -14  10   8 14.4317 37.5059   1
 -14  10   9 38.2435 22.8317   1
 -14  10  10 22.0484 31.4558   1
 -14  10  11-31.5674 26.6032   1
 -14  10  12-35.8228 37.4456   1
 -14  10  13-33.5315 24.1136   1
 -14  10  14-8.77276 26.3575   1
 -14  10  15-83.4939 50.0080   1
 -14   9   0-46.9458 35.5336   1
 -14   9  -1 25.0896 15.9785   1
 -14   9   1 25.3886 33.5112   1
 -14   9  -2 38.9276 39.4323   1
 -14   9   2 11.5113 39.7610   1
 -14   9  -3 17.2007 42.0804   1
 -14   9   3 48.1012 49.0313   1
 -14   9  -4-9.56158 22.1056   1
 -14   9   4-47.3292 39.5703   1
 -14   9  -5-26.3406 37.7535   1
 -14   9   5-13.4416 30.5524   1
 -14   9  -6-28.2363 36.8264   1
 -14   9   6 0.48722 29.0191   1
 -14   9  -7 9.18033 28.0784   1
 -14   9   7 33.9123 27.5355   1
 -14   9  -8 36.8853 31.1581   1
 -14   9   8-27.0528 34.5054   1
 -14   9  -9-11.8500 22.0060   1
 -14   9   9 18.6162 30.3132   1
 -14   9 -10 37.1446 44.3087   1
 -14   9  10-50.6537 19.7260   1
 -14   9 -11-23.0402 31.2213   1
 -14   9  11 37.6120 29.3513   1
 -14   9 -12-25.2041 30.4442   1
 -14   9  12-44.4842 52.1015   1
 -14   9 -13-14.8161 23.7532   1
 -14   9  13 26.4209 21.7119   1
 -14   9 -14-14.4595 27.0697   1
 -14   9  14-66.6226 31.8121   1
 -14   9 -15-46.3890 43.6713   1
 -14   9  15-38.6178 43.4779   1
 -14   9 -16-68.8677 44.5630   1
 -14   9  16 1.52164 18.1005   1
 -14   9  17-36.1637 37.8456   1
 -14   9  18 64.5667 35.8447   1
 -14   8   0-8.16112 36.3434   1
 -14   8  -1-24.7411 25.6104   1
 -14   8   1-10.5312 19.6625   1
 -14   8  -2-26.0919 40.4350   1
 -14   8   2 73.5543 46.0817   1
 -14   8  -3-66.4310 48.6661   1
 -14   8   3 24.2310 41.9666   1
 -14   8  -4 9.80708 31.2639   1
 -14   8   4-4.39637 28.2235   1
 -14   8  -5 40.4786 22.3724   1
 -14   8   5 13.6320 23.8654   1
 -14   8  -6 19.3485 46.8590   1
 -14   8   6 65.3153 44.3290   1
 -14   8  -7-7.84878 23.5941   1
 -14   8   7 23.9477 37.3031   1
 -14   8  -8-51.2192 32.9993   1
 -14   8   8-32.1137 45.7916   1
 -14   8  -9 2.82974 23.9962   1
 -14   8   9-33.9265 21.8046   1
 -14   8 -10-1.35307 31.9172   1
 -14   8  10 32.5216 36.4037   1
 -14   8 -11-49.5465 39.2924   1
 -14   8  11 24.0563 40.6881   1
 -14   8 -12-7.10166 27.2772   1
 -14   8  12 10.8096 34.9894   1
 -14   8  13-18.8572 30.4023   1
 -14   8 -13 63.0571 42.3871   1
 -14   8  14 78.9766 60.2415   1
 -14   8 -14-16.6796 22.5608   1
 -14   8  15 32.0553 43.5622   1
 -14   8 -15-11.1052 25.9976   1
 -14   8  16-33.2407 41.6606   1
 -14   8 -16 43.0596 22.3194   1
 -14   8  17 46.4661 34.7282   1
 -14   8  18-33.9333 27.8155   1
 -14   8  19-13.7496 33.6468   1
 -14   8  20-8.25163 53.6046   1
 -14   7   0 12.3041 20.1533   1
 -14   7  -1-3.36450 28.8656   1
 -14   7   1-16.3420 23.2528   1
 -14   7  -2-17.2172 21.0847   1
 -14   7   2-17.3949 25.6832   1
 -14   7  -3 11.7591 31.8928   1
 -14   7   3-57.0541 33.6574   1
 -14   7  -4 20.4540 18.6271   1
 -14   7   4 53.6965 32.1127   1
 -14   7  -5-33.4737 38.7312   1
 -14   7   5 5.83413 27.5159   1
 -14   7  -6-9.43261 26.3989   1
 -14   7   6-14.1269 27.8091   1
 -14   7  -7-16.7579 18.3248   1
 -14   7   7-60.9377 46.8820   1
 -14   7  -8 109.846 59.4967   1
 -14   7   8 44.9269 36.4785   1
 -14   7  -9 47.1891 45.0225   1
 -14   7   9-4.02608 33.9028   1
 -14   7  10 6.47177 21.8963   1
 -14   7 -10 24.9225 35.1689   1
 -14   7  11-46.6662 45.7234   1
 -14   7 -11 74.9415 49.0853   1
 -14   7  12 54.8007 40.2079   1
 -14   7 -12-30.9587 39.2921   1
 -14   7  13 6.56831 37.3307   1
 -14   7  14 40.4678 44.0961   1
 -14   7  15-50.1414 40.0775   1
 -14   7  16-31.9631 21.5533   1
 -14   7  17 44.6527 51.7353   1
 -14   7  18 32.0246 42.0683   1
 -14   7  19 28.6761 51.4438   1
 -14   7  20 27.5363 47.8692   1
 -14   7  21 47.8105 48.6598   1
 -14   7  22-44.5475 49.7333   1
 -14   6   0 5.83174 30.3938   1
 -14   6  -1-56.7163 47.1877   1
 -14   6   1 7.93108 25.7141   1
 -14   6  -2-19.1933 26.0337   1
 -14   6   2-34.8700 30.0171   1
 -14   6  -3 17.1390 36.8850   1
 -14   6   3 32.8228 33.2229   1
 -14   6  -4 37.8996 40.9597   1
 -14   6   4 92.3095 54.1869   1
 -14   6  -5 115.027 59.9865   1
 -14   6   5 69.5847 48.2809   1
 -14   6  -6 34.9657 51.8750   1
 -14   6   6-37.6859 39.1801   1
 -14   6   7-84.1062 50.1086   1
 -14   6  -7 7.88237 18.9871   1
 -14   6   8 18.5310 32.9902   1
 -14   6  -8 37.2211 27.9514   1
 -14   6   9 29.4997 42.3815   1
 -14   6  -9 26.4598 21.0020   1
 -14   6  10 79.2480 57.8284   1
 -14   6  11 63.1193 52.6296   1
 -14   6  12 21.3224 40.5726   1
 -14   6  13-12.1652 32.4265   1
 -14   6  14 91.3491 57.1628   1
 -14   6  15 50.2999 41.3733   1
 -14   6  16 20.2886 48.8432   1
 -14   6  17 3.30088 24.7761   1
 -14   6  18-63.0486 42.9175   1
 -14   6  19 67.4045 37.8474   1
 -14   6  20-37.0606 46.4997   1
 -14   6  21 11.4673 44.6146   1
 -14   6  22-0.70068 27.0269   1
 -14   6  23 32.1377 42.0909   1
 -14   6  24-49.0419 49.9754   1
 -14   5   0 59.2651 47.6910   1
 -14   5  -1 37.9817 36.2133   1
 -14   5   1 17.1715 20.9208   1
 -14   5  -2-0.49005 18.6907   1
 -14   5   2-53.5737 40.4953   1
 -14   5  -3-36.8147 33.9538   1
 -14   5   3-34.5857 23.5373   1
 -14   5   4 20.7784 34.6720   1
 -14   5  -4 19.6289 16.8197   1
 -14   5   5 126.103 68.2546   1
 -14   5  -5 4.07012 34.5039   1
 -14   5   6 72.5410 45.1019   1
 -14   5  -6 79.8154 42.5140   1
 -14   5   7 54.5754 51.6407   1
 -14   5   8-2.82249 24.3469   1
 -14   5   9-6.93607 36.8565   1
 -14   5  10-26.1386 30.2654   1
 -14   5  11 4.24666 19.1134   1
 -14   5  12-17.4001 42.8166   1
 -14   5  13 28.4784 28.1648   1
 -14   5  14 27.2212 27.5278   1
 -14   5  15-76.3426 49.6379   1
 -14   5  16 29.0165 27.9397   1
 -14   5  17-28.6313 33.8254   1
 -14   5  18-58.5061 43.7032   1
 -14   5  19-37.6773 45.2741   1
 -14   5  20-66.7804 42.9683   1
 -14   5  21 12.0495 33.1695   1
 -14   5  22 87.4525 51.1699   1
 -14   5  23-103.547 57.7442   1
 -14   5  24-16.6477 35.7702   1
 -14   5  25 47.5832 33.6873   1
 -14   5  26 89.9642 68.0252   1
 -14   4   0-9.21445 40.2718   1
 -14   4  -1 91.0519 47.0140   1
 -14   4   1 23.1393 37.5547   1
 -14   4   2 62.4663 45.1761   1
 -14   4  -2 140.586 61.2077   1
 -14   4   3 10.7869 32.6502   1
 -14   4  -3 17.6516 30.4394   1
 -14   4   4-16.4573 42.0259   1
 -14   4  -4 26.8911 16.2712   1
 -14   4   5 11.5097 17.1761   1
 -14   4   6 11.3211 19.9170   1
 -14   4   7-1.05055 18.9623   1
 -14   4   8 10.0653 28.3004   1
 -14   4   9 92.4901 53.3170   1
 -14   4  10 73.7400 39.6750   1
 -14   4  11 4.23689 33.7012   1
 -14   4  12 16.9138 21.4981   1
 -14   4  13 0.21987 32.8005   1
 -14   4  14 29.3329 33.3529   1
 -14   4  15-75.0877 43.0878   1
 -14   4  16 59.8192 51.3877   1
 -14   4  17 41.3293 56.7823   1
 -14   4  18 49.6288 46.0263   1
 -14   4  19 66.2988 52.3989   1
 -14   4  20 44.6104 26.7404   1
 -14   4  21 11.5707 26.4079   1
 -14   4  22 75.8767 56.6064   1
 -14   4  23 32.8722 44.2115   1
 -14   4  24 67.2717 54.8645   1
 -14   4  25 49.3475 54.2994   1
 -14   4  26 50.8129 51.2788   1
 -14   4  27-6.44980 24.7806   1
 -14   3   0 81.4861 39.5141   1
 -14   3   1 57.7984 57.4211   1
 -14   3  -1 53.2551 41.1416   1
 -14   3   2 35.7414 34.1108   1
 -14   3   3-26.7800 39.7345   1
 -14   3   4 51.1765 44.1957   1
 -14   3   5 96.8593 54.5372   1
 -14   3   6-12.4664 32.9161   1
 -14   3   7 11.4924 30.8468   1
 -14   3   8 64.1672 33.2587   1
 -14   3   9 53.1966 42.7869   1
 -14   3  10-1.35818 20.6688   1
 -14   3  11 23.2167 25.8812   1
 -14   3  12-10.4283 41.2350   1
 -14   3  13 2.86771 27.8535   1
 -14   3  14 5.56648 19.5083   1
 -14   3  15 14.7297 20.3241   1
 -14   3  16-16.3895 30.7212   1
 -14   3  17-43.2107 35.1990   1
 -14   3  18-17.6372 28.4224   1
 -14   3  19-0.13820 30.7010   1
 -14   3  20-11.0391 26.9196   1
 -14   3  21 31.7071 49.9107   1
 -14   3  22 129.947 70.3885   1
 -14   3  23 24.7028 28.1648   1
 -14   3  24 44.7441 30.4457   1
 -14   3  25-47.0443 47.2646   1
 -14   3  26-31.5195 38.4669   1
 -14   3  27-14.6229 23.5265   1
 -14   3  28 31.7498 30.3456   1
 -14   2   0-18.1471 22.1467   1
 -14   2   1 51.0831 40.1288   1
 -14   2   2 57.5579 50.2771   1
 -14   2   3-16.8779 28.6551   1
 -14   2   4 6.93602 20.3096   1
 -14   2   5-1.80196 25.1331   1
 -14   2   6 65.6433 45.6129   1
 -14   2   7 47.3632 31.8639   1
 -14   2   8-76.6621 48.4734   1
 -14   2   9 60.1029 49.0962   1
 -14   2  10 121.985 62.9079   1
 -14   2  11-48.4531 26.1203   1
 -14   2  12 20.8642 33.7085   1
 -14   2  13 62.9987 39.8655   1
 -14   2  14 50.3416 32.9506   1
 -14   2  15-21.8705 26.6027   1
 -14   2  16 66.3039 45.9473   1
 -14   2  17-13.8609 18.3617   1
 -14   2  18 65.0032 47.0962   1
 -14   2  19 72.7313 59.9298   1
 -14   2  20 24.9655 39.8308   1
 -14   2  21 14.0866 36.0908   1
 -14   2  22-19.1864 30.2417   1
 -14   2  23-43.2526 27.2867   1
 -14   2  24 104.992 56.9607   1
 -14   2  25-5.16871 24.5241   1
 -14   2  26-95.2599 58.0494   1
 -14   2  27-24.4627 18.7150   1
 -14   2  28-17.3866 34.4517   1
 -14   2  29-3.49348 37.1788   1
 -14   1   2 0.40445 28.5365   1
 -14   1   3 86.2858 49.6182   1
 -14   1   4-0.44700 21.8756   1
 -14   1   5 13.9420 29.0897   1
 -14   1   6 9.08410 22.1918   1
 -14   1   7 41.6298 39.0325   1
 -14   1   8-56.4499 30.0593   1
 -14   1   9-33.2134 27.5124   1
 -14   1  10-27.1034 25.5131   1
 -14   1  11 47.1990 34.9381   1
 -14   1  12 2.28527 18.5338   1
 -14   1  13-109.183 52.7789   1
 -14   1  14 7.13280 31.6015   1
 -14   1  15 65.8136 49.5322   1
 -14   1  16-2.40392 23.3362   1
 -14   1  17 1.49977 18.6749   1
 -14   1  18-64.2658 32.3641   1
 -14   1  19 35.4023 17.1151   1
 -14   1  20-73.1351 47.0562   1
 -14   1  21 3.76754 31.5183   1
 -14   1  22-22.4864 36.3127   1
 -14   1  23 35.7633 23.5299   1
 -14   1  24 32.4308 44.0746   1
 -14   1  25 11.5997 21.2914   1
 -14   1  26-31.1885 45.1114   1
 -14   1  27 20.3832 26.7097   1
 -14   1  28-56.0965 45.9004   1
 -14   1  29-40.6300 42.0740   1
 -14   1  30 2.77266 27.7823   1
 -14   0   3 12.9085 38.0926   1
 -14   0   4 10.2185 36.1321   1
 -14   0   5-2.03283 21.5731   1
 -14   0   6-53.1862 46.9941   1
 -14   0   7-23.6225 32.5170   1
 -14   0   8-30.8785 35.4321   1
 -14   0   9-17.8898 23.9896   1
 -14   0  10 31.1535 45.4320   1
 -14   0  11 30.5435 20.4455   1
 -14   0  12 11.7322 34.2377   1
 -14   0  13 16.7673 25.2357   1
 -14   0  14-20.7303 26.3512   1
 -14   0  15 1.97758 27.3788   1
 -14   0  16 74.9512 45.9416   1
 -14   0  17-11.6760 28.4435   1
 -14   0  18-57.6387 47.4764   1
 -14   0  19 4.63419 18.4228   1
 -14   0  20 18.9931 22.9982   1
 -14   0  21-16.5083 29.3609   1
 -14   0  22-4.96469 23.4541   1
 -14   0  23-32.5383 54.6439   1
 -14   0  24 13.6825 37.0166   1
 -14   0  25 32.4946 47.0577   1
 -14   0  26 14.4947 36.0529   1
 -14   0  27-53.6309 57.4685   1
 -14   0  28-52.5861 36.9095   1
 -14   0  29-35.1133 41.5343   1
 -14   0  30 14.3430 37.9088   1
 -14   0  31 108.279 70.5168   1
 -14  -1   4-38.2710 27.6200   1
 -14  -1   5-44.6067 43.7530   1
 -14  -1   6-29.1238 21.3142   1
 -14  -1   7-17.2850 44.9974   1
 -14  -1   8 17.0217 30.9903   1
 -14  -1   9 5.64336 40.5308   1
 -14  -1  10 64.0743 46.1955   1
 -14  -1  11 15.1891 40.4752   1
 -14  -1  12-44.1612 35.5370   1
 -14  -1  13 14.7444 21.2496   1
 -14  -1  14 3.30855 35.1252   1
 -14  -1  15 9.82804 35.4685   1
 -14  -1  16-9.56076 42.8749   1
 -14  -1  17 31.3962 19.4715   1
 -14  -1  18-80.5148 43.5803   1
 -14  -1  19-62.4228 54.4138   1
 -14  -1  20 19.8176 19.1528   1
 -14  -1  21 42.9629 29.5719   1
 -14  -1  22 32.9336 55.0718   1
 -14  -1  23 17.9106 31.4432   1
 -14  -1  24 58.1018 47.4269   1
 -14  -1  25 66.7747 48.6326   1
 -14  -1  26 48.6953 50.9292   1
 -14  -1  27-34.2877 37.8339   1
 -14  -1  28-72.1121 62.5417   1
 -14  -1  29 68.5279 45.9655   1
 -14  -1  30 37.0616 56.5011   1
 -14  -1  31-39.7325 50.0785   1
 -14  -1  32-20.2099 32.1318   1
 -14  -2   5 54.7831 43.2325   1
 -14  -2   6 66.1440 42.7151   1
 -14  -2   7-30.2780 22.8859   1
 -14  -2   8-19.2657 31.4756   1
 -14  -2   9-15.8815 33.4647   1
 -14  -2  10 29.7914 27.7224   1
 -14  -2  11 2.49110 36.4867   1
 -14  -2  12-21.2456 39.9671   1
 -14  -2  13 3.23280 40.8648   1
 -14  -2  14 70.8981 43.6214   1
 -14  -2  15-40.8398 50.3204   1
 -14  -2  16-6.08526 19.2041   1
 -14  -2  17 93.2019 53.9830   1
 -14  -2  18 40.1934 46.4651   1
  -2  14  19 36.8191 25.9009   1
 -14  -2  19 16.7359 37.7868   1
  -2  14  20 24.4656 16.2338   1
 -14  -2  20 7.75744 22.6603   1
  -2  14  21 3.59014 21.2349   1
 -14  -2  21-43.4098 35.9875   1
  -2  14  22-18.9483 20.3101   1
 -14  -2  22 22.1473 42.7136   1
 -14  -2  23 32.4232 21.6009   1
  -2  14  23 58.5667 43.9776   1
 -14  -2  24 4.61561 22.5026   1
  -2  14  24 11.5640 18.2113   1
 -14  -2  25 98.9814 56.0525   1
  -2  14  25 17.5387 35.7451   1
  -2  14  26-7.51768 15.7071   1
 -14  -2  26 33.7007 33.5043   1
  -2  14  27-9.97540 19.9591   1
 -14  -2  27 26.3600 47.4602   1
  -2  14  28 8.01470 29.6080   1
 -14  -2  28 77.1804 60.1011   1
  -2  14  29-22.8088 24.5792   1
 -14  -2  29 19.8142 34.0606   1
  -2  14  30-9.99763 19.3551   1
 -14  -2  30 3.71549 22.6239   1
  -2  14  31-4.42237 24.0317   1
 -14  -2  31-3.26145 35.5830   1
  -2  14  32-2.39827 31.6777   1
 -14  -2  32-61.9645 45.9879   1
  -2  14  33-62.3130 48.4591   1
  -2  14  34 2.61735 17.6733   1
  -2  14  35-3.23207 24.5586   1
  -2  14  36-53.7444 45.0182   1
  -2  14  37 17.0920 25.5566   1
 -14  -3   6 27.0003 21.0782   1
 -14  -3   7-30.8205 22.9858   1
 -14  -3   8 29.4228 20.0174   1
 -14  -3   9 51.5793 33.5734   1
 -14  -3  10 17.8899 33.2357   1
 -14  -3  11 29.7074 40.3138   1
 -14  -3  12 63.3659 51.7650   1
 -14  -3  13 27.9528 35.3460   1
 -14  -3  14-59.8545 41.9876   1
 -14  -3  15-3.43575 25.3970   1
 -14  -3  16-18.2776 38.1823   1
 -14  -3  17 44.6929 52.3390   1
 -14  -3  18 67.4499 49.2928   1
 -14  -3  19-9.22143 32.5609   1
 -14  -3  20-15.0316 37.5202   1
  -3  14  20 62.5399 33.3141   1
 -14  -3  21-39.0537 43.1772   1
  -3  14  21-0.12365 19.3455   1
 -14  -3  22-35.5172 36.7080   1
  -3  14  22 3.89761 19.7234   1
 -14  -3  23-51.6476 56.3454   1
  -3  14  23-12.0080 22.8841   1
 -14  -3  24-18.9193 23.9667   1
  -3  14  24-77.6728 45.2483   1
 -14  -3  25 21.1570 32.9243   1
  -3  14  25-19.9325 31.5935   1
 -14  -3  26 24.6182 49.5676   1
  -3  14  26 12.0037 19.0705   1
 -14  -3  27 20.8256 44.0377   1
  -3  14  27 82.6446 37.5365   1
 -14  -3  28 9.43236 19.0982   1
  -3  14  28 7.16362 23.7260   1
 -14  -3  29 40.0678 55.1324   1
  -3  14  29-11.7408 39.4035   1
 -14  -3  30 18.3898 26.5296   1
  -3  14  30 50.3808 45.8134   1
 -14  -3  31 42.6982 40.7062   1
  -3  14  31 51.3050 36.3415   1
 -14  -3  32-48.0662 28.6570   1
  -3  14  32-1.11102 17.8485   1
  -3  14  33-17.0632 28.1054   1
 -14  -3  33 11.9169 32.3139   1
  -3  14  34-45.3682 23.6673   1
  -3  14  35 16.5727 34.3540   1
  -3  14  36-8.80341 17.6133   1
  -3  14  37 63.0609 44.0053   1
 -14  -4   6 57.1218 29.8903   1
 -14  -4   7 2.05319 32.7381   1
 -14  -4   8 7.69400 32.3745   1
 -14  -4   9 47.1874 30.9509   1
 -14  -4  10 126.273 57.1759   1
 -14  -4  11-26.4086 34.6363   1
 -14  -4  12-88.7266 53.0084   1
 -14  -4  13 56.8858 37.8432   1
 -14  -4  14 9.89505 20.9023   1
 -14  -4  15 8.42692 23.1619   1
 -14  -4  16 0.85217 18.8352   1
 -14  -4  17 53.6165 51.1068   1
 -14  -4  18 40.5217 46.4768   1
 -14  -4  19 59.3303 39.2577   1
 -14  -4  20 29.0927 29.7121   1
 -14  -4  21-4.46959 27.1079   1
  -4  14  21 30.5230 33.0046   1
 -14  -4  22 27.6818 38.0832   1
  -4  14  22 54.8492 34.3927   1
 -14  -4  23 95.3563 69.5627   1
  -4  14  23 13.2298 16.6138   1
 -14  -4  24 23.6156 43.0764   1
  -4  14  24-12.5461 22.3189   1
 -14  -4  25 15.5808 34.7574   1
  -4  14  25-1.73224 33.3423   1
 -14  -4  26-1.71831 29.8930   1
  -4  14  26 0.89137 18.7564   1
  -4  14  27 10.1999 21.3948   1
 -14  -4  27-3.89614 32.1642   1
  -4  14  28-38.9196 39.0055   1
 -14  -4  28-28.5250 32.1485   1
  -4  14  29-8.63585 29.2357   1
 -14  -4  29 30.4344 37.5803   1
  -4  14  30-34.7735 38.3340   1
 -14  -4  30 52.2073 50.7945   1
  -4  14  31 36.8901 22.7399   1
 -14  -4  31-13.6625 46.9580   1
  -4  14  32 31.1754 37.6394   1
 -14  -4  32-44.1740 54.2985   1
  -4  14  33 51.4168 28.9829   1
 -14  -4  33 31.1754 22.2408   1
  -4  14  34 58.2326 42.2725   1
  -4  14  35 109.774 52.0842   1
  -4  14  36-42.4931 49.7248   1
 -14  -5   7-30.4440 37.8688   1
 -14  -5   8 36.4731 38.4547   1
 -14  -5   9 54.3766 45.4755   1
 -14  -5  10-1.07853 30.5103   1
 -14  -5  11 49.5501 37.8571   1
 -14  -5  12 66.7140 52.3698   1
 -14  -5  13 8.96996 28.7087   1
 -14  -5  14 57.8949 39.9564   1
 -14  -5  15 37.0702 27.4917   1
 -14  -5  16 62.1685 51.4932   1
 -14  -5  17 23.4592 29.8384   1
 -14  -5  18-29.8166 33.9887   1
 -14  -5  19 30.5888 33.1960   1
 -14  -5  20 17.8778 16.9933   1
 -14  -5  21 51.8971 48.1239   1
 -14  -5  22 42.8219 53.2354   1
 -14  -5  23 60.8047 32.1845   1
  -5  14  23 38.1800 21.4959   1
 -14  -5  24-21.7943 17.2062   1
  -5  14  24-11.0107 24.1078   1
 -14  -5  25 106.217 53.2376   1
  -5  14  25 7.13730 17.4040   1
 -14  -5  26 36.1847 48.6458   1
  -5  14  26-21.5462 31.5529   1
 -14  -5  27-16.7635 28.7606   1
  -5  14  27-24.9360 42.7500   1
 -14  -5  28 9.64637 40.8943   1
  -5  14  28 55.6677 56.0879   1
 -14  -5  29-8.27637 22.0875   1
  -5  14  29 48.0309 36.2221   1
 -14  -5  30-15.3422 28.2466   1
  -5  14  30 61.5677 37.6819   1
 -14  -5  31-49.1781 34.2159   1
  -5  14  31-61.9627 50.6745   1
 -14  -5  32 9.39911 20.9344   1
  -5  14  32 17.3620 18.7336   1
 -14  -5  33-41.1805 46.2515   1
  -5  14  33 14.0235 30.5225   1
  -5  14  34 13.3310 37.3108   1
 -14  -6   7-33.2682 41.4804   1
 -14  -6   8 54.5815 39.5435   1
 -14  -6   9 21.1929 30.4597   1
 -14  -6  10-8.94940 22.1670   1
 -14  -6  11-1.46013 37.1517   1
 -14  -6  12-23.3429 24.1265   1
 -14  -6  13 42.6004 47.6340   1
 -14  -6  14 35.6005 35.0443   1
 -14  -6  15-47.3058 29.0070   1
 -14  -6  16-6.42008 16.6912   1
 -14  -6  17 41.9311 52.6753   1
 -14  -6  18 27.3854 29.7494   1
 -14  -6  19 33.0514 27.8534   1
 -14  -6  20-9.05887 30.5521   1
 -14  -6  21 19.7831 29.1608   1
 -14  -6  22-3.84528 31.3684   1
 -14  -6  23 5.92560 22.7871   1
  -6  14  24-31.3499 20.6835   1
 -14  -6  24 59.7104 51.2488   1
  -6  14  25-56.6690 35.5046   1
 -14  -6  25 75.8736 49.8997   1
  -6  14  26-58.3192 54.0014   1
 -14  -6  26-15.4146 33.5487   1
  -6  14  27-17.0064 23.5455   1
 -14  -6  27-12.4215 27.4567   1
  -6  14  28-54.2123 36.5624   1
 -14  -6  28-44.9068 45.9167   1
  -6  14  29-5.29911 22.8270   1
 -14  -6  29-34.8590 48.3497   1
  -6  14  30-42.2084 40.5641   1
 -14  -6  30 65.8786 47.3920   1
  -6  14  31-40.3918 26.8464   1
 -14  -6  31-12.0761 17.8959   1
  -6  14  32 54.7549 41.1109   1
 -14  -6  32 49.3712 38.5546   1
 -14  -7   7 22.7036 31.6815   1
 -14  -7   8-11.0164 25.5104   1
 -14  -7   9 43.4988 40.7141   1
 -14  -7  10 50.7261 40.6018   1
 -14  -7  11 39.5437 38.3563   1
 -14  -7  12 4.69597 16.3958   1
 -14  -7  13-0.08407 16.1554   1
 -14  -7  14 55.3145 46.8299   1
 -14  -7  15 41.5901 44.9342   1
 -14  -7  16 76.2942 46.0176   1
 -14  -7  17-2.81638 27.0984   1
 -14  -7  18 5.14634 27.6654   1
 -14  -7  19-28.7187 46.9765   1
 -14  -7  20-3.03642 31.3655   1
 -14  -7  21 47.2778 45.6382   1
 -14  -7  22 57.5335 38.5185   1
 -14  -7  23-1.06249 16.4017   1
 -14  -7  24 50.4973 37.1202   1
 -14  -7  25-62.7292 41.9096   1
 -14  -7  26 0.04535 29.2110   1
  -7  14  27 47.3800 45.3232   1
 -14  -7  27-0.96058 31.5560   1
  -7  14  28 2.67135 26.0922   1
 -14  -7  28 43.6193 32.9060   1
  -7  14  29 11.2537 29.7793   1
 -14  -7  29 30.2850 42.0347   1
 -14  -8   7-8.10359 17.6122   1
 -14  -8   8-8.17980 34.5796   1
 -14  -8   9 26.7931 28.8062   1
 -14  -8  10 18.6185 37.1724   1
 -14  -8  11 34.6582 57.5541   1
 -14  -8  12 86.9950 56.2982   1
 -14  -8  13 18.4710 36.1206   1
 -14  -8  14 28.0822 29.4017   1
 -14  -8  15 30.6509 23.5248   1
 -14  -8  16-57.3808 28.8222   1
 -14  -8  17-3.78821 22.1202   1
 -14  -8  18 22.0961 22.1368   1
 -14  -8  19-29.1957 44.7002   1
 -14  -8  20-17.3036 44.0339   1
 -14  -8  21-51.2843 40.1700   1
 -14  -8  22 46.2194 30.1631   1
 -14  -8  23 6.89557 29.5083   1
 -14  -8  24 48.5942 35.5549   1
 -14  -8  25-37.5848 39.5007   1
 -14  -9   6-14.8926 19.0166   1
 -14  -9   7-18.0655 25.2711   1
 -14  -9   8 36.8647 30.2036   1
 -14  -9   9 37.2358 36.3976   1
 -14  -9  10-42.0388 34.8430   1
 -14  -9  11 41.9403 53.4654   1
 -14  -9  12 37.9961 40.2086   1
 -14  -9  13-14.3841 23.3261   1
 -14  -9  14 1.05268 28.2827   1
 -14  -9  15 40.7002 44.1637   1
 -14  -9  16 43.6187 40.3683   1
 -14  -9  17 9.32279 31.7245   1
 -14 -10   6-18.2325 33.1904   1
 -14 -10   7-20.1624 17.9183   1
 -14 -10   8 57.9908 54.2862   1
 -15  10   0-46.5169 38.9674   1
 -15  10  -1-55.4726 47.4786   1
 -15  10   1-1.36160 18.5138   1
 -15  10  -2 53.5067 44.7158   1
 -15  10   2 4.30126 31.0592   1
 -15  10  -3 60.3008 51.2753   1
 -15  10   3-30.7503 24.2670   1
 -15  10   4 37.7888 27.3535   1
 -15  10   5-22.5698 34.4415   1
 -15  10   6-10.6704 18.2619   1
 -15   9   0-26.3998 28.5383   1
 -15   9  -1-38.0832 32.1766   1
 -15   9   1-57.6163 31.1902   1
 -15   9  -2 22.9734 33.4730   1
 -15   9   2 37.4498 43.9879   1
 -15   9  -3 17.0657 18.6263   1
 -15   9   3 7.46183 25.8079   1
 -15   9  -4 17.3201 32.5684   1
 -15   9   4-79.8273 39.9769   1
 -15   9  -5-27.7555 41.3998   1
 -15   9   5-64.2588 46.1995   1
 -15   9  -6-28.4901 39.1891   1
 -15   9   6-23.0113 39.3120   1
 -15   9  -7 17.7567 26.9983   1
 -15   9   7-45.1689 50.7390   1
 -15   9  -8-85.5835 40.2182   1
 -15   9   8-83.9723 58.9044   1
 -15   9  -9-40.3385 24.2634   1
 -15   9   9-17.7492 41.4918   1
 -15   9 -10 38.9893 31.2086   1
 -15   9  10 20.5010 36.7786   1
 -15   9 -11 68.0845 50.7979   1
 -15   9 -12 21.4318 17.4015   1
 -15   9 -13-45.6595 37.6638   1
 -15   9 -14-12.1420 43.1658   1
 -15   8   0-25.5702 45.9738   1
 -15   8  -1-6.55977 43.2458   1
 -15   8   1-50.1824 46.1287   1
 -15   8  -2 73.1102 43.2982   1
 -15   8   2 71.3399 46.9557   1
 -15   8  -3 49.3160 55.2185   1
 -15   8   3 27.1907 26.1351   1
 -15   8  -4 3.81363 27.4854   1
 -15   8   4 17.1388 31.3795   1
 -15   8  -5 62.1771 44.9373   1
 -15   8   5 2.74865 29.5336   1
 -15   8  -6 20.0652 40.6497   1
 -15   8   6-85.8917 30.9682   1
 -15   8  -7-3.29373 25.8639   1
 -15   8   7 9.37282 36.5120   1
 -15   8  -8-23.3454 31.9755   1
 -15   8   8 0.72652 19.7139   1
 -15   8  -9-34.7246 39.3415   1
 -15   8   9-13.1339 23.7289   1
 -15   8 -10 3.15206 31.6677   1
 -15   8  10 35.5975 38.0866   1
 -15   8 -11 3.33306 20.2830   1
 -15   8  11-53.8892 45.8019   1
 -15   8 -12 19.2918 43.6652   1
 -15   8  12-81.4949 70.2024   1
 -15   8 -13 77.8909 44.9732   1
 -15   8  13-6.37472 40.7973   1
 -15   8 -14 25.9913 42.4096   1
 -15   8 -15 37.7325 45.1551   1
 -15   8 -16-51.9971 40.8714   1
 -15   8 -17-91.7331 58.0851   1
 -15   8 -18 53.1069 33.3770   1
 -15   7   0 25.3766 37.2768   1
 -15   7  -1-30.2034 31.4824   1
 -15   7   1 49.8617 50.6360   1
 -15   7  -2 44.1381 42.6484   1
 -15   7   2 22.3242 29.5182   1
 -15   7  -3-42.4322 34.9148   1
 -15   7   3 13.8609 23.2522   1
 -15   7  -4 7.09366 22.4649   1
 -15   7   4 21.2551 40.2829   1
 -15   7  -5 3.38263 30.0590   1
 -15   7   5 25.1790 22.5287   1
 -15   7  -6 9.63911 20.2899   1
 -15   7   6-56.1987 42.4475   1
 -15   7  -7 32.4937 37.6373   1
 -15   7   7-26.9356 40.0170   1
 -15   7  -8-31.4026 26.4570   1
 -15   7   8-32.9182 28.8763   1
 -15   7  -9-22.8126 44.5199   1
 -15   7   9-2.12117 18.4385   1
 -15   7 -10 4.86247 27.9702   1
 -15   7  10 74.0054 52.1654   1
 -15   7  11 21.8525 32.8903   1
 -15   7 -11 66.0303 28.9223   1
 -15   7  12-3.11363 19.9911   1
 -15   7 -12-51.3720 52.8287   1
 -15   7  13 32.2159 37.6138   1
 -15   7 -13-48.8981 44.4491   1
 -15   7  14 27.7866 18.2407   1
 -15   7 -14 48.1587 46.7293   1
 -15   7  15 19.4160 34.6677   1
 -15   6   0-35.7596 45.4630   1
 -15   6  -1 26.6022 30.4615   1
 -15   6   1-68.0835 40.6930   1
 -15   6  -2 10.4240 39.0682   1
 -15   6   2 40.6024 44.4749   1
 -15   6  -3-27.1538 39.8144   1
 -15   6   3 28.6132 35.0652   1
 -15   6  -4-38.6198 26.6988   1
 -15   6   4 22.3389 30.3495   1
 -15   6  -5 74.9083 50.4831   1
 -15   6   5 5.52199 31.7588   1
 -15   6  -6 40.2584 38.0637   1
 -15   6   6 33.9318 48.2495   1
 -15   6  -7-123.227 61.0236   1
 -15   6   7 2.53617 22.3512   1
 -15   6   8-49.4080 49.8027   1
 -15   6  -8-108.503 64.7184   1
 -15   6   9-8.57094 25.0720   1
 -15   6  -9 35.0901 31.2251   1
 -15   6  10 33.5338 40.7888   1
 -15   6 -10 36.6668 44.2846   1
 -15   6  11 19.3414 40.5571   1
 -15   6  12 4.24163 41.2373   1
 -15   6  13 1.52448 29.2919   1
 -15   6  14 9.17983 18.7382   1
 -15   6  15-11.7201 23.4724   1
 -15   6  16-15.6269 47.7952   1
 -15   6  17-63.6461 55.8962   1
 -15   5   0-34.2047 30.0309   1
 -15   5  -1 11.2835 30.2585   1
 -15   5   1 40.4982 34.6037   1
 -15   5  -2 1.12164 37.4577   1
 -15   5   2 17.3709 28.9403   1
 -15   5  -3-48.9207 40.9893   1
 -15   5   3-11.1555 24.7981   1
 -15   5  -4 18.5286 19.4918   1
 -15   5   4-9.23810 37.1086   1
 -15   5   5-10.6158 33.6335   1
 -15   5  -5-47.3281 47.6052   1
 -15   5   6-26.6577 48.1022   1
 -15   5  -6-63.2542 58.4744   1
 -15   5   7-12.0351 30.6987   1
 -15   5  -7-32.1805 32.9176   1
 -15   5   8 55.7806 47.1542   1
 -15   5  -8-22.8046 36.4916   1
 -15   5   9-1.92977 31.3065   1
 -15   5  10 35.3610 25.7003   1
 -15   5  11-34.0976 43.4311   1
 -15   5  12 73.9319 45.7647   1
 -15   5  13 27.4203 41.5318   1
 -15   5  14-45.0358 37.3043   1
 -15   5  15-86.7361 70.2242   1
 -15   5  16 43.2767 34.4257   1
 -15   5  17 102.600 58.3577   1
 -15   5  18-20.6959 19.1987   1
 -15   5  19-5.90847 31.8514   1
 -15   4   0 21.8158 29.2926   1
 -15   4  -1 26.1558 27.9860   1
 -15   4   1 77.1005 37.0250   1
 -15   4  -2 51.4345 40.5013   1
 -15   4   2 42.3776 37.3364   1
 -15   4   3-55.5356 17.6056   1
 -15   4  -3 36.9352 40.5050   1
 -15   4   4-59.1081 37.1430   1
 -15   4  -4-8.82881 27.7588   1
 -15   4   5-78.2737 47.3117   1
 -15   4  -5-49.9015 49.1316   1
 -15   4   6-17.1222 30.5362   1
 -15   4   7 30.8820 28.3742   1
 -15   4   8-52.2138 38.1646   1
 -15   4   9-27.9922 38.4667   1
 -15   4  10-20.9578 46.1325   1
 -15   4  11-48.0199 51.2256   1
 -15   4  12 3.75811 27.1257   1
 -15   4  13 20.4733 34.8849   1
 -15   4  14 37.3703 39.1273   1
 -15   4  15-28.8196 38.3748   1
 -15   4  16-19.6823 38.9096   1
 -15   4  17-119.057 63.9559   1
 -15   4  18-33.5028 31.6575   1
 -15   4  19 18.3391 31.6097   1
 -15   4  20 7.11520 26.9865   1
 -15   4  21-54.5317 48.0306   1
 -15   3   0 60.5023 49.2722   1
 -15   3   1-3.84153 40.9176   1
 -15   3  -1-12.2442 28.0237   1
 -15   3   2-5.01483 34.6392   1
 -15   3  -2 112.372 59.9574   1
 -15   3   3-14.7735 42.9779   1
 -15   3  -3-42.7807 35.9842   1
 -15   3   4-48.0744 50.2008   1
 -15   3   5-48.3055 53.1813   1
 -15   3   6-6.26886 21.0112   1
 -15   3   7 69.2446 35.6945   1
 -15   3   8 10.6000 39.1759   1
 -15   3   9 58.8894 54.5289   1
 -15   3  10 57.3975 46.3479   1
 -15   3  11-44.5498 36.9560   1
 -15   3  12-5.50813 35.9580   1
 -15   3  13-2.32414 25.5272   1
 -15   3  14-15.8719 24.4603   1
 -15   3  15 70.1376 33.5919   1
 -15   3  16 3.16057 29.2405   1
 -15   3  17 30.0773 29.8950   1
 -15   3  18-8.56856 29.6051   1
 -15   3  19 7.35212 41.1750   1
 -15   3  20-1.26303 37.3910   1
 -15   3  21 31.3956 36.3733   1
 -15   3  22-13.7255 23.0306   1
 -15   2   0 73.4625 46.1549   1
 -15   2  -1-3.24153 29.4254   1
 -15   2   1-71.6483 49.9194   1
 -15   2   2-15.9614 17.0049   1
 -15   2   3 99.2131 47.0523   1
 -15   2   4 56.9649 43.3247   1
 -15   2   5 14.8851 23.4142   1
 -15   2   6 22.8879 23.8598   1
 -15   2   7-42.3930 35.7610   1
 -15   2   8 44.1467 39.7977   1
 -15   2   9-10.5799 45.5361   1
 -15   2  10-15.0631 21.5602   1
 -15   2  11 12.6075 40.7640   1
 -15   2  12 67.7970 51.0716   1
 -15   2  13-5.59196 40.5046   1
 -15   2  14-95.7313 62.5010   1
 -15   2  15 18.0861 28.8428   1
 -15   2  16 54.4221 42.0820   1
 -15   2  17 49.9462 41.9376   1
 -15   2  18 3.03680 29.9929   1
 -15   2  19-47.3183 27.9043   1
 -15   2  20 57.9689 55.8913   1
 -15   2  21 47.6635 41.0348   1
 -15   2  22 92.7082 70.6682   1
 -15   2  23 45.9532 32.4767   1
 -15   2  24-10.3136 20.1904   1
 -15   1   1 57.6878 49.8861   1
 -15   1   2 7.82662 22.2392   1
 -15   1   3-1.69299 32.4263   1
 -15   1   4 1.07179 25.6759   1
 -15   1   5 30.9921 36.7278   1
 -15   1   6 50.1502 54.2810   1
 -15   1   7 50.7503 41.4329   1
 -15   1   8 16.8092 29.0134   1
 -15   1   9-46.3921 41.5635   1
 -15   1  10-41.5123 44.2296   1
 -15   1  11-62.2369 40.6560   1
 -15   1  12 13.9886 46.1911   1
 -15   1  13 28.4439 39.0120   1
 -15   1  14 5.72924 22.9437   1
 -15   1  15 82.9430 49.3483   1
 -15   1  16 117.034 56.6884   1
 -15   1  17 44.7713 34.1673   1
 -15   1  18-28.6209 22.2298   1
 -15   1  19 44.9872 40.5661   1
 -15   1  20-38.0509 47.1196   1
 -15   1  21 48.7051 25.8592   1
 -15   1  22 54.6451 42.5204   1
 -15   1  23 6.26560 39.2058   1
 -15   1  24 37.8971 55.6574   1
 -15   0   2 47.6755 41.7317   1
 -15   0   3 60.8655 50.9540   1
 -15   0   4 13.9967 32.1889   1
 -15   0   5 21.2236 35.8853   1
 -15   0   6 13.7119 21.7470   1
 -15   0   7 83.6284 43.2839   1
 -15   0   8-25.5017 17.5119   1
 -15   0   9 26.2475 35.9206   1
 -15   0  10 81.5382 56.7694   1
 -15   0  11 74.9193 39.7167   1
 -15   0  12-50.7108 34.0942   1
 -15   0  13-88.8453 58.2328   1
 -15   0  14-48.8951 53.6639   1
 -15   0  15 62.9633 37.1120   1
 -15   0  16-11.5041 22.1051   1
 -15   0  17 8.44613 30.6426   1
 -15   0  18 66.4494 50.6130   1
 -15   0  19 44.8971 54.4547   1
 -15   0  20 37.6166 44.1305   1
 -15   0  21 109.124 47.7368   1
 -15   0  22 31.6558 58.6742   1
 -15   0  23 99.2114 43.9060   1
 -15   0  24 78.9986 52.5203   1
 -15   0  25 58.2658 57.9596   1
 -15  -1   3-76.4261 31.9251   1
 -15  -1   4 49.1628 34.5237   1
 -15  -1   5-10.0474 37.7989   1
 -15  -1   6-7.20659 22.9982   1
 -15  -1   7-73.2161 17.2384   1
 -15  -1   8 40.9431 42.3333   1
 -15  -1   9 32.6009 39.7536   1
 -15  -1  10 62.3070 35.8438   1
 -15  -1  11-15.6977 17.0165   1
 -15  -1  12 44.2236 43.3063   1
 -15  -1  13 39.5418 37.7062   1
 -15  -1  14-31.1989 35.2850   1
 -15  -1  15 21.4053 41.9411   1
 -15  -1  16 29.1352 27.7606   1
 -15  -1  17 29.3069 24.7289   1
 -15  -1  18-13.7181 24.9143   1
 -15  -1  19 26.0261 29.5509   1
 -15  -1  20-2.23636 24.2299   1
 -15  -1  21 90.2184 55.7437   1
 -15  -1  22 13.7671 36.6870   1
 -15  -1  23 61.4085 49.4245   1
 -15  -1  24-30.7626 33.7604   1
 -15  -1  25 30.8797 21.1877   1
 -15  -1  26 23.9374 39.5250   1
 -15  -2   4 8.70595 25.3477   1
 -15  -2   5-9.07538 37.1798   1
 -15  -2   6 14.4670 18.8678   1
 -15  -2   7 11.4034 32.0418   1
 -15  -2   8 97.1170 53.4662   1
 -15  -2   9 5.69210 41.2152   1
 -15  -2  10 15.6909 34.0315   1
 -15  -2  11 47.6866 49.9926   1
 -15  -2  12-30.5253 37.5127   1
 -15  -2  13-41.0839 17.6028   1
 -15  -2  14-9.16157 36.8885   1
 -15  -2  15 77.8896 49.0599   1
 -15  -2  16 34.5399 35.4323   1
 -15  -2  17 46.2051 58.9118   1
 -15  -2  18-45.4569 50.5191   1
 -15  -2  19-53.6747 57.7470   1
 -15  -2  20-7.77959 38.9859   1
 -15  -2  21 22.2249 31.0262   1
 -15  -2  22 6.39322 45.7621   1
 -15  -2  23-10.7222 33.5794   1
 -15  -2  24 17.1920 25.7194   1
 -15  -2  25 42.0196 40.1504   1
 -15  -2  26-81.4314 60.9840   1
 -15  -3   5 35.7298 48.4688   1
 -15  -3   6 46.1918 49.2606   1
 -15  -3   7 49.3795 37.5118   1
 -15  -3   8-18.3915 36.0944   1
 -15  -3   9-46.6512 40.9434   1
 -15  -3  10 25.1719 36.8691   1
 -15  -3  11 89.1881 55.8182   1
 -15  -3  12-39.2756 30.2721   1
 -15  -3  13 37.9464 34.6989   1
 -15  -3  14 61.6962 50.8434   1
 -15  -3  15 25.3108 30.8991   1
 -15  -3  16 56.7255 54.2508   1
 -15  -3  17 156.759 76.5626   1
 -15  -3  18 28.5585 55.1698   1
 -15  -3  19 15.3152 30.9255   1
 -15  -3  20 67.3639 52.1530   1
 -15  -3  21 11.7797 43.1568   1
 -15  -3  22 115.969 57.8498   1
 -15  -3  23 97.4702 61.3725   1
 -15  -3  24 50.5806 47.5574   1
 -15  -3  25-9.44926 20.8667   1
 -15  -3  26 54.9229 45.0391   1
 -15  -4   5-22.8255 32.6603   1
 -15  -4   6 28.7456 41.0791   1
 -15  -4   7-43.0833 27.8086   1
 -15  -4   8-12.0667 17.8159   1
 -15  -4   9 33.2927 38.6390   1
 -15  -4  10-82.3941 49.1678   1
 -15  -4  11-53.5888 50.4187   1
 -15  -4  12-71.2149 52.1843   1
 -15  -4  13 23.2868 34.1746   1
 -15  -4  14 68.8943 50.2577   1
 -15  -4  15-23.8400 39.8492   1
 -15  -4  16 24.7657 23.0009   1
 -15  -4  17 11.1670 29.9076   1
 -15  -4  18-65.7332 27.7893   1
 -15  -4  19 31.9984 28.8382   1
 -15  -4  20 30.5067 45.8560   1
 -15  -4  21 0.82038 25.8425   1
 -15  -4  22-32.3494 42.0138   1
 -15  -4  23-42.9718 47.0704   1
 -15  -4  24 88.2796 57.3026   1
 -15  -4  25-50.8330 40.7477   1
 -15  -4  26-46.7754 51.0181   1
 -15  -5   6-7.92350 19.1713   1
 -15  -5   7 66.7850 40.2950   1
 -15  -5   8 38.8304 20.1558   1
 -15  -5   9 11.5869 31.1177   1
 -15  -5  10 25.8196 53.9438   1
 -15  -5  11 123.368 63.2177   1
 -15  -5  12 111.708 67.5687   1
 -15  -5  13 8.68751 25.3957   1
 -15  -5  14-44.2603 47.3357   1
 -15  -5  15 50.8584 49.8279   1
 -15  -5  16 12.5798 45.5106   1
 -15  -5  17-33.8216 36.5264   1
 -15  -5  18 30.0613 47.6701   1
 -15  -5  19 77.2363 51.9390   1
 -15  -5  20 15.8463 46.3865   1
 -15  -5  21 70.1781 49.6499   1
 -15  -5  22 55.6894 50.7864   1
 -15  -5  23 18.6433 27.6459   1
 -15  -5  24-16.1881 18.5478   1
 -15  -5  25-29.7740 45.9482   1
 -15  -5  26-32.4405 47.3055   1
 -15  -6   6 58.9746 36.2506   1
 -15  -6   7-41.2628 42.0088   1
 -15  -6   8 121.671 47.8517   1
 -15  -6   9 39.2310 38.8977   1
 -15  -6  10-9.91413 29.6101   1
 -15  -6  11 84.3707 60.6931   1
 -15  -6  12 8.49014 46.1688   1
 -15  -6  13-39.2619 35.0681   1
 -15  -6  14-49.0949 42.9285   1
 -15  -6  15-13.3065 42.7565   1
 -15  -6  16 21.2333 28.7606   1
 -15  -6  17 15.1118 22.1859   1
 -15  -6  18-53.7535 33.9233   1
 -15  -6  19 10.8772 37.4286   1
 -15  -6  20 25.5487 42.4923   1
 -15  -6  21 3.97421 31.8043   1
 -15  -6  22-14.5105 31.8450   1
 -15  -6  23-43.9409 42.5763   1
 -15  -6  24-7.53354 24.5607   1
 -15  -6  25-37.3727 46.8811   1
 -15  -6  26 9.69322 32.2793   1
 -15  -7   6-34.5993 35.6509   1
 -15  -7   7-2.38161 24.5308   1
 -15  -7   8 66.6781 46.8959   1
 -15  -7   9-24.6012 29.0973   1
 -15  -7  10-15.8644 36.0014   1
 -15  -7  11 73.6868 60.4417   1
 -15  -7  12 81.4065 52.2704   1
 -15  -7  13 21.1578 43.6624   1
 -15  -7  14 31.8453 25.6003   1
 -15  -7  15-29.7200 46.9796   1
 -15  -7  16-57.7923 43.0171   1
 -15  -7  17-13.3149 34.0585   1
 -15  -7  18-15.0167 42.9039   1
 -15  -7  19-45.3638 36.1597   1
 -15  -7  20 60.5831 48.0629   1
 -15  -7  21 13.3486 19.2208   1
 -15  -7  22 38.2740 31.9242   1
 -15  -7  23 139.454 68.7304   1
 -15  -7  24 111.582 63.8981   1
 -15  -8   5 81.0700 48.2753   1
 -15  -8   6 29.5120 35.0279   1
 -15  -8   7 91.4146 57.6331   1
 -15  -8   8-11.2735 20.9833   1
 -15  -8   9-27.2761 27.1902   1
 -15  -8  10-73.6928 51.8728   1
 -15  -8  11-115.294 63.0625   1
 -15  -8  12-28.6102 26.2586   1
 -15  -8  13-84.6170 51.9102   1
 -15  -8  14-36.4719 31.5830   1
 -15  -8  15 65.1913 38.7795   1
 -15  -8  16-20.7686 41.2010   1
 -15  -8  17-13.2375 33.9882   1
 -15  -8  18-31.4828 28.4936   1
 -15  -8  19 12.5876 28.7441   1
 -15  -8  20-11.4640 18.0751   1
 -15  -9   5 35.3736 33.6081   1
 -15  -9   6 45.9481 61.3412   1
 -15  -9   7 24.6610 23.9161   1
 -15  -9   8 71.4128 48.2238   1
 -15  -9   9-7.79702 20.9905   1
 -15  -9  10-45.9626 38.9819   1
 -15  -9  11-35.8550 50.1179   1
 -15  -9  12-39.7309 24.2648   1
 -15  -9  13-35.8791 41.7831   1
 -16   8  -4-66.6491 56.9431   1
 -16   8  -5-1.78114 44.4420   1
 -16   8  -6-35.0619 34.3658   1
 -16   8  -7 22.3869 18.6811   1
 -16   8  -8-30.4416 22.5830   1
 -16   8  -9 7.82704 29.6123   1
 -16   7   0 71.1944 49.6630   1
 -16   7  -1 18.9588 38.7953   1
 -16   7   1-20.3457 36.8284   1
 -16   7  -2 72.7876 60.2490   1
 -16   7   2 44.6342 29.3207   1
 -16   7  -3 28.8550 36.6437   1
 -16   7   3 11.5253 40.6899   1
 -16   7  -4 47.8614 25.3307   1
 -16   7  -5 82.4996 29.5279   1
 -16   7  -6-25.2670 35.3183   1
 -16   7  -7-66.4410 61.2963   1
 -16   7  -8-84.0317 60.1082   1
 -16   7  -9-72.6731 46.8838   1
 -16   7 -10-7.28581 30.7097   1
 -16   7 -11 10.5448 28.1868   1
 -16   7 -12-2.66444 24.7376   1
 -16   7 -13-38.7523 46.1547   1
 -16   6   0 49.3497 61.6568   1
 -16   6  -1 14.5911 36.3431   1
 -16   6   1 112.348 66.5856   1
 -16   6  -2 14.6560 26.9364   1
 -16   6   2 17.6272 46.7727   1
 -16   6  -3 34.8717 44.9191   1
 -16   6   3 110.251 56.6763   1
 -16   6  -4 212.518 83.4117   1
 -16   6   4 9.06476 41.7104   1
 -16   6  -5 68.6878 43.3877   1
 -16   6   5-4.50379 29.5854   1
 -16   6  -6-27.4497 22.4518   1
 -16   6   6-1.27177 23.8647   1
 -16   6  -7 75.4645 53.3139   1
 -16   6  -8 83.5915 60.2683   1
 -16   6  -9 25.1649 30.5564   1
 -16   6 -10-4.08429 34.5240   1
 -16   6 -11-29.5233 22.5325   1
 -16   6 -12-25.0398 47.6339   1
 -16   5   0-6.65455 27.0606   1
 -16   5  -1-31.1332 46.8936   1
 -16   5   1 56.3437 41.6791   1
 -16   5  -2-9.23007 19.3694   1
 -16   5   2 9.27103 35.0426   1
 -16   5  -3-26.4275 35.7711   1
 -16   5   3 63.7834 46.1627   1
 -16   5  -4-19.4479 47.3780   1
 -16   5   4-1.64836 19.9979   1
 -16   5  -5 0.09793 31.5376   1
 -16   5   5-8.47866 32.3487   1
 -16   5  -6-42.5516 44.5267   1
 -16   5   6 95.7299 54.1910   1
 -16   5   7 0.40539 19.4639   1
 -16   5  -7 17.9788 33.6556   1
 -16   5   8-25.3264 33.7010   1
 -16   5  -8 9.70848 23.5065   1
 -16   5   9 33.5786 39.5262   1
 -16   5  -9-11.6364 28.0345   1
 -16   4   0 53.0019 46.0753   1
 -16   4  -1-30.9830 22.1719   1
 -16   4   1 67.9070 37.6412   1
 -16   4  -2 5.76837 35.1231   1
 -16   4   2-56.8029 48.3636   1
 -16   4  -3-27.3531 21.9730   1
 -16   4   3 41.1635 34.2144   1
 -16   4  -4 131.687 60.3904   1
 -16   4   4 49.3905 57.6560   1
 -16   4   5-21.6560 33.8381   1
 -16   4  -5-10.1571 27.9644   1
 -16   4   6-67.3014 51.6599   1
 -16   4  -6 95.3725 65.9922   1
 -16   4   7 95.4565 51.2069   1
 -16   4  -7 76.9809 60.7645   1
 -16   4   8 2.97959 33.3885   1
 -16   4   9-65.9694 59.4581   1
 -16   4  10-101.618 65.1275   1
 -16   4  11 17.9446 35.8529   1
 -16   4  12-2.74360 33.9488   1
 -16   3   0-14.3543 29.7008   1
 -16   3  -1 62.7106 55.6766   1
 -16   3   1 72.5284 52.3908   1
 -16   3  -2 88.9258 50.3461   1
 -16   3   2 47.0018 47.6486   1
 -16   3   3-21.0804 25.2540   1
 -16   3  -3-42.2326 37.9585   1
 -16   3   4 131.007 57.9214   1
 -16   3  -4-8.86672 21.6778   1
 -16   3   5 33.2368 54.2845   1
 -16   3  -5 24.8613 28.9607   1
 -16   3   6 27.6570 34.2343   1
 -16   3   7 12.8664 29.9882   1
 -16   3   8-17.6882 37.5818   1
 -16   3   9 44.2743 25.4186   1
 -16   3  10-39.6603 31.3185   1
 -16   3  11 77.0974 60.2598   1
 -16   3  12 18.9236 42.0605   1
 -16   3  13 5.16323 31.4465   1
 -16   2   0 20.6420 45.1806   1
 -16   2   1 82.4249 40.1781   1
 -16   2  -1-4.13501 32.5919   1
 -16   2   2-1.70888 19.3772   1
 -16   2  -2-8.51074 29.2540   1
 -16   2   3 34.1038 21.5374   1
 -16   2  -3-25.3905 53.4559   1
 -16   2   4-27.1280 39.8105   1
 -16   2   5 4.28085 36.1045   1
 -16   2   6 17.7756 43.5471   1
 -16   2   7-13.5823 19.8702   1
 -16   2   8-39.8294 35.5643   1
 -16   2   9 34.2172 36.2332   1
 -16   2  10-27.2550 23.2397   1
 -16   2  11 4.90518 24.3821   1
 -16   2  12 10.3274 31.7424   1
 -16   2  13 27.3414 40.7290   1
 -16   2  14 45.4673 50.9108   1
 -16   2  15-72.3263 38.7361   1
 -16   1   0 73.6060 49.7644   1
 -16   1  -1-35.8201 31.1543   1
 -16   1   1 29.9707 31.1377   1
 -16   1   2 47.3491 47.9965   1
 -16   1   3 10.8813 34.0320   1
 -16   1   4-55.8919 44.6105   1
 -16   1   5-30.4452 36.4368   1
 -16   1   6 10.0318 42.6614   1
 -16   1   7 16.7781 30.2937   1
 -16   1   8-30.2203 33.8415   1
 -16   1   9 20.3510 37.0703   1
 -16   1  10 102.093 67.1497   1
 -16   1  11-31.9640 35.1881   1
 -16   1  12 27.3934 37.5747   1
 -16   1  13-9.50834 35.7527   1
 -16   1  14 57.0082 36.6834   1
 -16   1  15 18.3940 47.2489   1
 -16   1  16-74.1585 49.2892   1
 -16   0   0 3.25801 23.5695   1
 -16   0   1 15.0789 23.0527   1
 -16   0   2-35.3895 36.1413   1
 -16   0   3-64.5297 47.9699   1
 -16   0   4-28.2672 23.4256   1
 -16   0   5-44.8157 51.6408   1
 -16   0   6-33.5030 32.2242   1
 -16   0   7 9.88969 41.5037   1
 -16   0   8 34.2166 35.1076   1
 -16   0   9 31.0799 27.2665   1
 -16   0  10-7.31856 24.8654   1
 -16   0  11 70.5357 60.0187   1
 -16   0  12 93.0808 57.6748   1
 -16   0  13 2.12396 32.2057   1
 -16   0  14-46.8061 30.5607   1
 -16   0  15 65.7458 40.4259   1
 -16   0  16-26.3439 31.2979   1
 -16   0  17-104.162 66.8785   1
 -16  -1   2-53.4982 53.5993   1
 -16  -1   3-27.3061 26.2414   1
 -16  -1   4-36.5181 36.3189   1
 -16  -1   5 26.0656 36.1248   1
 -16  -1   6 83.0695 63.3044   1
 -16  -1   7 137.679 72.5074   1
 -16  -1   8 41.1538 37.7236   1
 -16  -1   9 29.8234 31.1041   1
 -16  -1  10-16.7331 49.2737   1
 -16  -1  11-34.3604 37.1114   1
 -16  -1  12-8.11768 24.9867   1
 -16  -1  13 12.9956 22.3001   1
 -16  -1  14 75.2718 44.3026   1
 -16  -1  15 27.5181 41.5415   1
 -16  -1  16-33.2338 32.5458   1
 -16  -1  17-53.9079 54.7013   1
 -16  -2   2 59.1522 60.8983   1
 -16  -2   3 68.1120 55.0205   1
 -16  -2   4-56.1842 45.0271   1
 -16  -2   5 46.1188 36.4891   1
 -16  -2   6 4.31559 28.3462   1
 -16  -2   7-50.6200 45.0479   1
 -16  -2   8 23.8481 36.3844   1
 -16  -2   9 101.464 67.2006   1
 -16  -2  10 79.1525 54.1584   1
 -16  -2  11-9.41001 24.9757   1
 -16  -2  12-61.1557 43.7501   1
 -16  -2  13 38.4359 41.7377   1
 -16  -2  14-9.59564 22.4830   1
 -16  -2  15-27.1196 25.4081   1
 -16  -2  16 25.5960 30.2362   1
 -16  -2  17 30.4895 49.9768   1
 -16  -2  18 1.34584 30.2470   1
 -16  -3   3-32.2156 30.3695   1
 -16  -3   4 89.0236 53.1006   1
 -16  -3   5-22.2358 24.4795   1
 -16  -3   6-69.6873 37.6857   1
 -16  -3   7-22.1518 37.4102   1
 -16  -3   8 12.5298 36.4048   1
 -16  -3   9-3.80811 45.8173   1
 -16  -3  10 40.4769 39.4689   1
 -16  -3  11-41.9100 29.3451   1
 -16  -3  12-23.8841 41.5211   1
 -16  -3  13 20.8251 49.2856   1
 -16  -3  14 3.27712 22.3824   1
 -16  -3  15 103.124 61.8321   1
 -16  -3  16 5.14646 34.3104   1
 -16  -3  17-26.6533 44.3151   1
 -16  -4   4 3.39931 31.9690   1
 -16  -4   5-47.4055 36.9093   1
 -16  -4   6-75.4981 54.6037   1
 -16  -4   7-18.7606 21.2670   1
 -16  -4   8 30.3617 36.9090   1
 -16  -4   9 12.0407 31.1169   1
 -16  -4  10-3.27846 29.3422   1
 -16  -4  11-18.9311 36.2050   1
 -16  -4  12-22.3937 46.3239   1
 -16  -4  13 12.0420 20.2825   1
 -16  -4  14 2.97274 23.8623   1
 -16  -4  15-46.5682 52.7210   1
 -16  -4  16 46.0894 54.5496   1
 -16  -4  17 11.9682 28.2672   1
 -16  -5   4 131.226 65.0245   1
 -16  -5   5 26.1493 45.7707   1
 -16  -5   6 49.3363 39.1207   1
 -16  -5   7-19.8758 40.6467   1
 -16  -5   8 109.509 49.2081   1
 -16  -5   9 22.9585 32.2719   1
 -16  -5  10 88.9754 57.1004   1
 -16  -5  11-43.3708 22.1151   1
 -16  -5  12 84.9330 43.4182   1
 -16  -5  13 62.6125 60.5294   1
 -16  -5  14 52.4093 20.6006   1
 -16  -5  15 27.5253 20.5566   1
 -16  -5  16-8.79247 35.3635   1
 -16  -6   4 57.7792 47.2303   1
 -16  -6   5 93.5484 60.1792   1
 -16  -6   6-12.1499 29.8683   1
 -16  -6   7-48.9017 60.1289   1
 -16  -6   8-7.37383 27.5234   1
 -16  -6   9 118.092 57.1225   1
 -16  -6  10-43.9453 41.7687   1
 -16  -6  11-79.6935 54.1503   1
 -16  -6  12 57.7591 39.2536   1
 -16  -6  13-16.0864 29.9199   1
 -16  -6  14 38.5737 31.8185   1
 -16  -6  15-0.30358 23.8377   1
 -16  -7   4 7.17726 21.7234   1
 -16  -7   5 28.8198 39.5998   1
 -16  -7   6-22.2327 24.4975   1
 -16  -7   7-68.0138 38.0572   1
 -16  -7   8-55.3459 39.8158   1
 -16  -7   9 1.15132 29.1512   1
 -16  -7  10 16.1303 23.0256   1
 -16  -7  11-18.7567 19.3573   1
 -16  -7  12 117.840 72.7613   1
   0   0   0    0.00    0.00   0
;
_shelx_hkl_checksum              63444
_shelx_fab_file
;
    0    0    8    159.80     -0.26
    0    0   12     81.52     -0.12
    0    0   16     45.11     -0.25
    0    0   20     23.15     -0.04
    0    0   24     23.85      0.16
    0    0   28     22.13     -0.02
    0    0   32     15.31     -0.17
    0    0   36      9.93     -0.37
    0    0   40      2.72     -0.86
    0    0   44      2.18     -1.04
    0    0   48      4.74     -0.60
    0    0   52     -0.01     -0.09
    0    1    5     24.02    -23.81
    0    1    6   -125.12     -0.08
    0    1    7     13.69     13.44
    0    1    8      0.22    -22.73
    0    1    9     23.19    -23.29
    0    1   10    -63.76     -0.53
    0    1   11      3.40      3.02
    0    1   12      0.15     -8.30
    0    1   13     18.78    -18.59
    0    1   14    -41.00     -0.38
    0    1   15      6.59      6.40
    0    1   16      0.13     -2.40
    0    1   17     19.20    -19.05
    0    1   18    -23.85     -0.20
    0    1   19      4.20      4.19
    0    1   20      0.25      2.04
    0    1   21     13.40    -13.38
    0    1   22    -18.46     -0.25
    0    1   23      0.23      0.18
    0    1   24      0.31      4.47
    0    1   25      8.66     -8.55
    0    1   26    -17.72     -0.06
    0    1   27      2.20      2.23
    0    1   28      0.20      2.33
    0    1   29      7.77     -7.85
    0    1   30    -12.84      0.31
    0    1   31      3.91      3.99
    0    1   32      0.08      0.20
    0    1   33      6.08     -6.28
    0    1   34    -10.45      0.67
    0    1   35      5.20      5.16
    0    1   36      0.14     -0.46
    0    1   37      6.21     -6.17
    0    1   38     -7.11      1.17
    0    1   39      6.30      6.27
    0    1   40      0.30      1.11
    0    1   41      6.46     -6.26
    0    1   42     -3.79      1.35
    0    1   43      6.32      6.24
    0    1   44      0.62      4.13
    0    1   45      4.07     -3.79
    0    1   46     -3.77      0.73
    0    1   47      7.71      7.18
    0    1   48      1.40      4.23
    0    1   49      1.83     -1.64
    0    1   50     -1.65      0.02
    0    1   51      7.50      6.77
    0    1   52      1.83      2.38
    1    1    4     64.95      0.03
    1    1    5      0.06    -35.55
    1    1    6     59.86     -0.35
    1    1    7      0.29     30.36
    1    1    8     38.69      0.42
    1    1    9      0.10     -2.89
    1    1   10     35.88     -0.46
    1    1   11      0.32     26.82
    1    1   12     30.39      0.40
    1    1   13      0.28      1.84
    1    1   14     25.42     -0.51
    1    1   15      0.35     27.59
    1    1   16     22.39      0.14
    1    1   17      0.25      0.10
    1    1   18     12.50     -0.53
    1    1   19      0.30     26.17
    1    1   20     15.22      0.24
    1    1   21      0.08      6.94
    1    1   22      5.32     -0.41
    1    1   23      0.02     18.34
    1    1   24     12.69      0.31
    1    1   25      0.01      3.89
    1    1   26      5.37     -0.28
    1    1   27     -0.10     15.39
    1    1   28      9.00      0.09
    1    1   29      0.07     -3.15
    1    1   30      5.15     -0.22
    1    1   31     -0.01     11.60
    1    1   32      8.27     -0.10
    1    1   33      0.09     -5.62
    1    1   34      3.31     -0.19
    1    1   35     -0.07      8.56
    1    1   36      8.69     -0.41
    1    1   37      0.06     -7.05
    1    1   38     -1.17     -0.37
    1    1   39     -0.16     10.63
    1    1   40      6.24     -0.79
    1    1   41      0.02     -7.36
    1    1   42     -4.70     -0.51
    1    1   43     -0.06      8.82
    1    1   44      4.15     -0.70
    1    1   45     -0.11     -9.08
    1    1   46     -3.87     -0.33
    1    1   47      0.01      2.92
    1    1   48      1.57     -0.25
    1    1   49     -0.25    -10.94
    1    1   50     -2.98     -0.13
    1    1   51     -0.06      0.08
    1    1   52     -0.72     -0.05
    1    2    2     55.45     -8.12
    1    2    3    -16.32     12.08
    1    2    4    -62.56     -9.80
    1    2    5      4.35    -14.48
    1    2    6     32.90    -16.43
    1    2    7    -10.23     -2.90
    1    2    8    -36.77     -3.45
    1    2    9     -3.15    -17.94
    1    2   10     11.87    -13.89
    1    2   11     -3.19     -7.90
    1    2   12    -29.10      1.44
    1    2   13      1.37    -17.17
    1    2   14      2.48     -7.90
    1    2   15      2.86     -4.94
    1    2   16    -20.78      2.25
    1    2   17      2.63    -17.85
    1    2   18     -1.12     -2.63
    1    2   19      3.61     -9.04
    1    2   20    -11.35      8.26
    1    2   21     -0.75    -14.10
    1    2   22      0.55      1.18
    1    2   23      1.66     -7.45
    1    2   24     -9.47     11.16
    1    2   25     -0.13    -12.97
    1    2   26      4.23      2.89
    1    2   27      0.52     -0.31
    1    2   28     -8.33      8.92
    1    2   29      0.71    -11.59
    1    2   30      2.70      2.24
    1    2   31     -1.07      2.54
    1    2   32     -6.58      6.73
    1    2   33      0.57     -7.01
    1    2   34     -0.65      0.06
    1    2   35     -1.57      3.55
    1    2   36     -3.76      3.55
    1    2   37      1.98     -6.54
    1    2   38     -2.01     -0.82
    1    2   39      0.54      4.20
    1    2   40      1.42      1.99
    1    2   41      2.95     -7.02
    1    2   42     -2.71      0.30
    1    2   43      2.93      5.69
    1    2   44      3.61      2.95
    1    2   45      3.60     -3.42
    1    2   46     -0.67      0.69
    1    2   47      3.08      7.31
    1    2   48      3.25      2.02
    1    2   49      3.04      0.90
    1    2   50      1.45      0.29
    1    2   51      1.40      5.02
    1    2   52      3.22      0.09
    0    2    1     13.57     13.59
    0    2    2     -0.57     18.35
    0    2    3    -26.85     26.15
    0    2    4     -8.00      0.43
    0    2    5      3.92      4.27
    0    2    6     -0.24     25.26
    0    2    7    -21.28     21.30
    0    2    8     -7.84      0.60
    0    2    9      3.03      3.40
    0    2   10     -0.18      5.49
    0    2   11    -13.65     13.70
    0    2   12     -3.17      0.73
    0    2   13     -3.19     -3.10
    0    2   14     -0.06     -2.06
    0    2   15    -15.01     14.90
    0    2   16      1.79      0.57
    0    2   17     -5.97     -6.03
    0    2   18      0.00     -7.56
    0    2   19    -10.69     10.64
    0    2   20      4.01      0.26
    0    2   21     -2.39     -2.42
    0    2   22     -0.05    -16.24
    0    2   23     -5.44      5.32
    0    2   24      1.83     -0.07
    0    2   25     -2.76     -2.78
    0    2   26     -0.09    -14.43
    0    2   27     -6.38      6.52
    0    2   28     -0.95     -0.37
    0    2   29     -3.91     -3.87
    0    2   30     -0.33     -9.05
    0    2   31     -6.16      6.70
    0    2   32     -0.38     -0.52
    0    2   33     -3.87     -3.62
    0    2   34     -0.63     -5.41
    0    2   35     -5.52      5.74
    0    2   36      0.88     -0.59
    0    2   37     -5.80     -5.52
    0    2   38     -0.61     -2.30
    0    2   39     -5.66      5.56
    0    2   40      2.03     -0.59
    0    2   41     -7.47     -7.32
    0    2   42     -0.37     -3.97
    0    2   43     -4.34      4.40
    0    2   44      2.18     -0.26
    0    2   45     -7.84     -7.64
    0    2   46     -0.25     -5.70
    0    2   47     -2.94      2.96
    0    2   48     -0.32      0.24
    0    2   49     -6.41     -6.22
    0    2   50     -0.24     -2.55
    0    2   51     -0.51      0.42
    0    2   52     -1.17      0.25
    1    2    0    -81.50      0.14
    1    2    1     16.31      4.80
    2    2    0    -90.07      0.32
    2    2    1     -0.01     -1.54
    2    2    2     30.27      0.01
    2    2    3      0.10      2.03
    2    2    4    -69.50      0.21
    2    2    5      0.17      6.96
    2    2    6     18.69     -0.08
    2    2    7      0.19     10.70
    2    2    8    -34.97      0.00
    2    2    9      0.37      8.31
    2    2   10     22.54     -0.33
    2    2   11      0.11     13.53
    2    2   12    -15.78     -0.08
    2    2   13      0.34      5.78
    2    2   14     26.32     -0.63
    2    2   15      0.17     14.22
    2    2   16     -7.07     -0.07
    2    2   17      0.06     11.58
    2    2   18     18.26     -0.49
    2    2   19      0.22     14.56
    2    2   20     -5.76      0.06
    2    2   21     -0.18     12.95
    2    2   22     14.06     -0.08
    2    2   23      0.10     15.69
    2    2   24     -9.51      0.16
    2    2   25     -0.16      7.07
    2    2   26     11.29      0.03
    2    2   27      0.01     14.84
    2    2   28     -7.39      0.15
    2    2   29      0.02      3.01
    2    2   30      7.61      0.07
    2    2   31     -0.08      8.09
    2    2   32     -1.64      0.18
    2    2   33      0.09      0.47
    2    2   34      8.43      0.20
    2    2   35     -0.26      3.84
    2    2   36      0.72      0.20
    2    2   37     -0.01      0.87
    2    2   38      7.08      0.05
    2    2   39     -0.31      4.79
    2    2   40      2.06      0.19
    2    2   41     -0.04      1.00
    2    2   42      2.54     -0.15
    2    2   43     -0.12      3.18
    2    2   44      2.11      0.31
    2    2   45     -0.02     -2.55
    2    2   46     -0.71      0.00
    2    2   47      0.05     -1.29
    2    2   48      0.20      0.32
    2    2   49     -0.07     -2.46
    2    2   50     -3.20      0.13
    2    2   51      0.05     -4.44
    2    3    2     36.23     -0.72
    2    3    3     -2.64     -8.52
    2    3    4      3.60      6.17
    2    3    5     -7.29     -4.10
    2    3    6     26.00     -0.61
    2    3    7     -5.29    -10.83
    2    3    8     -1.09      6.32
    2    3    9     -9.13     -7.47
    2    3   10     18.01     -1.23
    2    3   11     -5.50     -8.22
    2    3   12     -8.85      2.88
    2    3   13     -8.17     -6.70
    2    3   14     11.80     -1.52
    2    3   15     -1.34     -9.41
    2    3   16     -9.12      3.09
    2    3   17     -9.02     -7.11
    2    3   18      8.51      2.32
    2    3   19      0.95     -8.10
    2    3   20     -7.40      4.51
    2    3   21     -6.98     -9.69
    2    3   22      9.90      5.56
    2    3   23      0.13     -4.49
    2    3   24     -5.08      4.10
    2    3   25     -1.97     -9.71
    2    3   26      7.50      5.58
    2    3   27      0.12     -5.11
    2    3   28     -0.71      5.33
    2    3   29     -0.97     -5.37
    2    3   30      2.02      5.31
    2    3   31     -1.33     -5.06
    2    3   32     -1.35      5.66
    2    3   33     -3.03     -1.40
    2    3   34     -0.51      3.22
    2    3   35     -3.90     -5.32
    2    3   36     -4.39      3.44
    2    3   37     -3.63     -1.12
    2    3   38     -1.52     -0.54
    2    3   39     -3.16     -6.61
    2    3   40     -4.30      1.67
    2    3   41     -2.20     -0.64
    2    3   42     -1.45     -3.35
    2    3   43     -0.10     -2.60
    2    3   44     -2.48     -1.36
    2    3   45      0.10      0.98
    2    3   46     -1.00     -5.32
    2    3   47      1.44      0.65
    2    3   48      0.88     -3.68
    2    3   49      0.79      1.36
    2    3   50     -1.73     -4.82
    2    3   51      0.42     -0.66
    1    3    2     42.14     -1.23
    1    3    3     -2.84      3.07
    1    3    4    -30.03     12.32
    1    3    5      7.55      5.16
    1    3    6     25.54     -6.69
    1    3    7      6.50      8.29
    1    3    8    -18.50     13.24
    1    3    9      3.35      9.08
    1    3   10     14.20     -8.46
    1    3   11      4.93      8.49
    1    3   12    -14.49      8.28
    1    3   13     -0.98      7.83
    1    3   14     10.33     -5.09
    1    3   15      3.97      5.68
    1    3   16    -10.92      1.51
    1    3   17     -5.36      6.28
    1    3   18      7.69     -8.82
    1    3   19      6.82      3.71
    1    3   20    -10.11     -5.27
    1    3   21     -4.82      2.39
    1    3   22      6.81    -12.67
    1    3   23      3.61      4.17
    1    3   24    -11.21     -7.57
    1    3   25     -2.25     -1.76
    1    3   26      5.32    -11.08
    1    3   27      0.29      4.19
    1    3   28     -7.51     -6.15
    1    3   29     -0.38     -1.54
    1    3   30      3.96    -10.86
    1    3   31      0.94      2.75
    1    3   32     -3.52     -2.80
    1    3   33      1.78     -0.39
    1    3   34      3.06     -9.39
    1    3   35      0.03      2.37
    1    3   36     -2.03      1.25
    1    3   37      1.87     -0.52
    1    3   38     -0.10     -6.33
    1    3   39     -1.03      1.58
    1    3   40     -0.50      2.45
    1    3   41     -0.96     -2.27
    1    3   42     -2.41     -3.97
    1    3   43     -2.23      0.34
    1    3   44     -0.18      2.30
    1    3   45     -2.89     -4.29
    1    3   46     -2.97     -0.01
    1    3   47     -3.89      0.43
    1    3   48     -0.16      3.11
    1    3   49     -0.94     -2.30
    1    3   50     -3.88      1.75
    1    3   51     -1.49      0.15
    0    3    1     16.95    -16.49
    0    3    2     30.82     -0.25
    0    3    3     -9.63     -9.51
    0    3    4      0.27     -1.95
    0    3    5     13.97    -14.03
    0    3    6     23.77     -0.04
    0    3    7     -2.52     -2.75
    0    3    8      0.19      9.47
    0    3    9      7.58     -8.09
    0    3   10     20.16      0.01
    0    3   11      0.56      0.45
    0    3   12      0.13     12.45
    0    3   13      4.67     -5.05
    0    3   14     16.15     -0.07
    0    3   15      3.38      3.56
    0    3   16      0.10     11.31
    0    3   17      0.13     -0.09
    0    3   18     10.77      0.04
    0    3   19      4.99      5.12
    0    3   20      0.21     17.50
    0    3   21     -2.19      2.56
    0    3   22      9.83      0.19
    0    3   23      5.27      5.34
    0    3   24      0.19     17.22
    0    3   25      0.40     -0.08
    0    3   26      8.65      0.20
    0    3   27      4.58      4.54
    0    3   28      0.29     12.68
    0    3   29      1.97     -2.18
    0    3   30      5.59      0.40
    0    3   31      3.37      3.09
    0    3   32      0.69     11.78
    0    3   33      3.07     -3.55
    0    3   34      3.93      0.63
    0    3   35      3.94      3.73
    0    3   36      0.77      9.64
    0    3   37      2.92     -3.13
    0    3   38      1.43      0.48
    0    3   39      5.58      5.62
    0    3   40      0.40      7.06
    0    3   41      0.46     -0.61
    0    3   42     -0.76      0.24
    0    3   43      6.08      6.08
    0    3   44      0.08      3.80
    0    3   45      1.16     -1.34
    0    3   46     -0.70      0.15
    0    3   47      3.75      3.70
    0    3   48     -0.09     -0.59
    0    3   49      2.19     -2.14
    0    3   50     -0.99      0.06
    0    3   51     -0.38     -0.28
    1    3    0    -38.63      0.43
    1    3    1     10.46     -0.22
    2    3    0      2.92     -0.15
    2    3    1     -1.66     -2.87
    3    3    0    -15.95      0.08
    3    3    1      0.08     13.99
    3    3    2    -32.51      0.57
    3    3    3      0.39      9.98
    3    3    4    -16.87     -0.03
    3    3    5      0.08     16.12
    3    3    6    -23.34      0.47
    3    3    7      0.46      7.27
    3    3    8    -17.33     -0.20
    3    3    9      0.05     12.41
    3    3   10     -8.49      0.33
    3    3   11      0.41      2.53
    3    3   12    -13.08     -0.25
    3    3   13      0.10     11.09
    3    3   14     -0.57      0.15
    3    3   15      0.33      0.98
    3    3   16     -8.09     -0.08
    3    3   17      0.09      8.93
    3    3   18     -0.51      0.08
    3    3   19      0.27      4.94
    3    3   20     -7.19      0.24
    3    3   21     -0.03      5.42
    3    3   22     -1.37      0.00
    3    3   23      0.11      6.82
    3    3   24     -5.17      0.31
    3    3   25     -0.14      9.16
    3    3   26     -4.23     -0.13
    3    3   27     -0.16      4.29
    3    3   28     -2.49      0.17
    3    3   29     -0.14     12.28
    3    3   30     -5.73     -0.06
    3    3   31     -0.34      0.34
    3    3   32     -1.73      0.21
    3    3   33     -0.10     11.32
    3    3   34     -1.84      0.12
    3    3   35     -0.28     -0.92
    3    3   36      0.94      0.23
    3    3   37     -0.12     12.86
    3    3   38      2.50      0.21
    3    3   39     -0.08     -0.07
    3    3   40      2.04      0.08
    3    3   41     -0.06      9.51
    3    3   42      4.14      0.28
    3    3   43      0.12     -1.31
    3    3   44      0.28      0.03
    3    3   45      0.03      1.87
    3    3   46      3.38      0.34
    3    3   47      0.17     -1.89
    3    3   48      1.14      0.03
    3    3   49     -0.03      0.22
    3    3   50      1.59      0.23
    3    4    1     -5.00     -7.77
    3    4    2      5.10      1.68
    3    4    3      4.03    -10.72
    3    4    4     25.27      1.90
    3    4    5     -6.38     -6.19
    3    4    6      5.86      5.09
    3    4    7      2.43     -9.93
    3    4    8     17.76      1.31
    3    4    9     -8.23     -4.34
    3    4   10      6.17      5.38
    3    4   11      0.51     -6.07
    3    4   12     10.56     -0.29
    3    4   13     -6.72     -1.40
    3    4   14      4.75      2.29
    3    4   15      0.09     -3.22
    3    4   16      7.55     -1.20
    3    4   17     -4.59     -1.69
    3    4   18      3.54      1.43
    3    4   19     -1.21     -1.93
    3    4   20      6.65     -3.07
    3    4   21     -3.93     -1.96
    3    4   22      2.46      0.78
    3    4   23     -0.67     -5.51
    3    4   24      5.63     -4.27
    3    4   25     -1.86     -0.78
    3    4   26      2.32     -0.90
    3    4   27      1.95     -9.04
    3    4   28      4.93     -2.53
    3    4   29     -0.61      0.55
    3    4   30      4.56     -0.77
    3    4   31      0.28     -8.00
    3    4   32      2.96     -0.95
    3    4   33     -3.47      2.62
    3    4   34      3.22     -0.31
    3    4   35     -2.90     -8.58
    3    4   36     -1.07     -0.96
    3    4   37     -4.80      1.81
    3    4   38     -1.05      0.34
    3    4   39     -2.38     -7.92
    3    4   40     -3.31     -1.82
    3    4   41     -1.99     -0.26
    3    4   42     -0.87      0.78
    3    4   43     -1.70     -2.35
    3    4   44     -2.31     -4.70
    3    4   45     -0.43      0.87
    3    4   46      0.10     -1.15
    3    4   47     -1.39      0.24
    3    4   48     -1.58     -6.14
    3    4   49     -0.32      1.07
    2    4    2     -1.01     -2.96
    2    4    3     10.19     -4.34
    2    4    4      2.34      0.60
    2    4    5     -3.46      6.28
    2    4    6      0.51     -6.10
    2    4    7     14.99     -2.05
    2    4    8     -0.51     -0.83
    2    4    9     -0.50      8.07
    2    4   10      0.07     -4.96
    2    4   11     15.53     -0.16
    2    4   12     -3.76     -0.34
    2    4   13     -0.57      5.21
    2    4   14     -0.87     -3.91
    2    4   15     13.78      1.62
    2    4   16     -2.93     -2.36
    2    4   17     -2.54      1.28
    2    4   18      0.74     -2.50
    2    4   19     11.08      4.01
    2    4   20     -2.34     -6.14
    2    4   21     -1.28     -0.39
    2    4   22      0.78      0.75
    2    4   23      6.67      3.18
    2    4   24     -1.53     -5.06
    2    4   25     -0.85      0.77
    2    4   26     -2.01     -0.19
    2    4   27      4.03      0.48
    2    4   28      0.69     -3.91
    2    4   29     -0.52      0.82
    2    4   30     -1.90     -3.45
    2    4   31      5.34     -1.83
    2    4   32      0.99     -3.87
    2    4   33      2.98      1.22
    2    4   34      0.37     -2.54
    2    4   35      6.97     -2.94
    2    4   36      1.17     -1.57
    2    4   37      4.16      3.15
    2    4   38      1.57     -1.35
    2    4   39      4.59     -1.84
    2    4   40      1.31      0.32
    2    4   41      2.31      2.13
    2    4   42      2.33      0.76
    2    4   43      0.35     -1.25
    2    4   44      0.04      3.33
    2    4   45      0.92      0.11
    2    4   46      1.07      5.78
    2    4   47     -0.98     -1.67
    2    4   48      0.13      6.51
    2    4   49     -0.36      0.15
    2    4   50     -0.86      5.55
    1    4    0    -26.21      0.09
    1    4    1     -2.79      3.13
    1    4    2     -7.24     -5.31
    1    4    3      2.23     -1.65
    1    4    4    -21.84      3.52
    1    4    5     -9.46      3.50
    1    4    6     -6.88     -9.14
    1    4    7      6.78     -5.72
    1    4    8    -11.20      7.77
    1    4    9    -11.87      2.29
    1    4   10     -1.07     -5.45
    1    4   11      8.25     -4.43
    1    4   12     -2.08      7.19
    1    4   13    -11.67      3.34
    1    4   14      4.11      0.24
    1    4   15      9.50     -0.05
    1    4   16     -1.06      5.35
    1    4   17    -11.96      3.55
    1    4   18      5.18      6.91
    1    4   19      8.89      3.29
    1    4   20     -4.06      4.04
    1    4   21     -8.03      2.71
    1    4   22      3.53      9.23
    1    4   23      4.56      4.58
    1    4   24     -3.77      2.37
    1    4   25     -5.00      4.06
    1    4   26     -0.40      6.39
    1    4   27      1.54      4.19
    1    4   28     -2.58      5.07
    1    4   29     -5.37      4.71
    1    4   30     -0.83      3.03
    1    4   31      0.47      2.59
    1    4   32     -2.02      8.51
    1    4   33     -3.29      3.45
    1    4   34      1.79     -0.61
    1    4   35      0.28      2.21
    1    4   36      1.12      9.41
    1    4   37     -0.30      3.30
    1    4   38      2.15     -2.02
    1    4   39      0.36      3.60
    1    4   40      3.24      9.73
    1    4   41      1.64      2.90
    1    4   42      2.80     -1.29
    1    4   43     -0.57      3.64
    1    4   44      2.41      5.23
    1    4   45      2.94      1.47
    1    4   46      2.90     -3.28
    1    4   47     -0.99      2.04
    1    4   48      2.54     -0.36
    1    4   49      1.24      0.42
    1    4   50      0.53     -4.42
    0    4    0      2.23      0.10
    0    4    1      3.89      4.00
    0    4    2     -0.01     -0.46
    0    4    3     -2.30      1.97
    0    4    4      2.45     -0.04
    0    4    5     -1.33     -0.96
    0    4    6      0.07     -7.39
    0    4    7      2.62     -2.72
    0    4    8     -0.44     -0.39
    0    4    9     -6.20     -5.50
    0    4   10      0.01    -13.91
    0    4   11      6.12     -6.05
    0    4   12     -5.72     -0.44
    0    4   13     -7.92     -7.11
    0    4   14     -0.15    -11.24
    0    4   15      9.67     -9.83
    0    4   16     -7.95     -0.27
    0    4   17     -8.85     -7.97
    0    4   18     -0.25     -8.52
    0    4   19      9.66     -9.92
    0    4   20     -6.19     -0.29
    0    4   21     -7.13     -6.41
    0    4   22     -0.13     -6.40
    0    4   23      7.22     -7.31
    0    4   24     -0.69     -0.21
    0    4   25     -3.85     -3.49
    0    4   26     -0.03     -5.29
    0    4   27      6.43     -6.41
    0    4   28      1.99     -0.19
    0    4   29     -2.37     -2.09
    0    4   30     -0.22     -9.66
    0    4   31      3.35     -3.20
    0    4   32     -1.51     -0.69
    0    4   33     -3.84     -3.55
    0    4   34     -0.37    -14.24
    0    4   35      0.23      0.10
    0    4   36     -2.42     -0.90
    0    4   37     -6.19     -6.18
    0    4   38     -0.28    -15.88
    0    4   39      1.21     -0.87
    0    4   40     -1.14     -0.54
    0    4   41     -4.73     -4.92
    0    4   42     -0.18    -12.77
    0    4   43      0.97     -0.85
    0    4   44     -2.25     -0.41
    0    4   45     -0.76     -0.84
    0    4   46     -0.06     -4.55
    0    4   47     -0.59      0.51
    0    4   48     -0.87     -0.40
    0    4   49      0.85      0.87
    0    4   50      0.13     -0.01
    2    4    0      2.19     -0.17
    2    4    1     -5.30     -0.81
    3    4    0     28.37     -0.44
    4    4    0    -13.55      0.02
    4    4    1     -0.03     13.48
    4    4    2    -24.93      0.30
    4    4    3      0.65     12.50
    4    4    4    -11.61      0.12
    4    4    5      0.05     10.49
    4    4    6    -22.58      0.09
    4    4    7      0.31     12.73
    4    4    8     -7.17     -0.01
    4    4    9      0.17      0.08
    4    4   10    -18.12     -0.10
    4    4   11      0.07      9.40
    4    4   12     -4.21     -0.20
    4    4   13      0.14     -5.67
    4    4   14    -14.56     -0.15
    4    4   15      0.19      3.64
    4    4   16     -4.68     -0.09
    4    4   17     -0.05     -3.47
    4    4   18    -12.55     -0.06
    4    4   19      0.37     -0.71
    4    4   20     -4.08      0.14
    4    4   21     -0.09      2.04
    4    4   22     -8.23     -0.03
    4    4   23      0.21     -3.15
    4    4   24     -2.31      0.17
    4    4   25     -0.03      8.09
    4    4   26     -4.25     -0.02
    4    4   27     -0.08     -2.05
    4    4   28     -5.59      0.11
    4    4   29     -0.06     10.14
    4    4   30     -3.92      0.02
    4    4   31     -0.15     -1.11
    4    4   32     -7.90      0.15
    4    4   33     -0.03      9.60
    4    4   34     -0.44     -0.08
    4    4   35     -0.15     -0.86
    4    4   36     -2.57      0.20
    4    4   37      0.03      8.19
    4    4   38      3.74     -0.21
    4    4   39     -0.17      2.20
    4    4   40      0.36      0.16
    4    4   41     -0.04      2.79
    4    4   42     -0.77     -0.13
    4    4   43     -0.11      3.04
    4    4   44     -1.53      0.04
    4    4   45     -0.09     -1.69
    4    4   46     -5.66     -0.01
    4    4   47     -0.04      0.68
    4    4   48     -0.27     -0.05
    4    4   49     -0.09     -0.34
    4    5    0     10.33      0.41
    4    5    1      3.93     -8.27
    4    5    2     13.87      1.04
    4    5    3     -1.72     -9.72
    4    5    4      9.36      1.82
    4    5    5      6.34     -6.60
    4    5    6     11.50      3.89
    4    5    7      0.15     -3.25
    4    5    8      9.00      0.03
    4    5    9      5.34     -6.94
    4    5   10      7.84      4.16
    4    5   11      2.64      4.34
    4    5   12     10.12     -3.29
    4    5   13      2.39     -2.94
    4    5   14      6.34      1.44
    4    5   15      1.69      4.20
    4    5   16     10.10     -4.06
    4    5   17     -0.10      3.09
    4    5   18      6.62      0.04
    4    5   19     -3.18      0.74
    4    5   20      7.88     -2.81
    4    5   21     -1.39      6.79
    4    5   22      5.09     -2.01
    4    5   23     -3.87     -2.64
    4    5   24      4.19     -3.17
    4    5   25      0.29      6.57
    4    5   26      4.32     -5.48
    4    5   27     -0.38     -4.88
    4    5   28      3.31     -3.95
    4    5   29      1.42      3.74
    4    5   30      5.97     -6.17
    4    5   31     -1.13     -4.38
    4    5   32      2.99     -2.12
    4    5   33     -1.10      2.54
    4    5   34      4.28     -4.80
    4    5   35     -2.88     -2.73
    4    5   36     -1.55      0.17
    4    5   37     -1.07      1.91
    4    5   38     -0.08     -3.45
    4    5   39      0.57     -0.64
    4    5   40     -1.18      0.58
    4    5   41      1.71     -0.50
    4    5   42     -1.00     -1.66
    4    5   43      2.78      1.55
    4    5   44      6.17      0.12
    4    5   45      0.35     -2.11
    4    5   46     -0.41      0.08
    4    5   47      1.01      1.56
    4    5   48      7.69     -0.61
    3    5    1     -0.59     -0.69
    3    5    2     -9.48     -0.90
    3    5    3      1.59     -2.03
    3    5    4     -3.10     -6.62
    3    5    5     -0.21      0.43
    3    5    6     -8.59      0.69
    3    5    7      2.32     -0.59
    3    5    8     -2.65    -13.53
    3    5    9     -0.16     -0.42
    3    5   10     -7.21      5.40
    3    5   11      2.62      0.51
    3    5   12     -3.10    -12.35
    3    5   13     -0.40     -0.50
    3    5   14     -4.69      7.58
    3    5   15      2.30     -0.87
    3    5   16     -0.58     -6.87
    3    5   17      2.21      0.42
    3    5   18     -3.26      6.73
    3    5   19      3.76     -2.54
    3    5   20      0.11     -3.19
    3    5   21      4.71      2.60
    3    5   22     -2.67      5.75
    3    5   23      4.68     -2.95
    3    5   24     -3.70      0.55
    3    5   25      1.01      2.96
    3    5   26     -0.80      4.43
    3    5   27      2.26     -1.91
    3    5   28     -6.79      2.20
    3    5   29     -1.64     -0.62
    3    5   30     -0.24      2.70
    3    5   31      2.73     -2.29
    3    5   32     -6.89      2.26
    3    5   33      2.34     -1.66
    3    5   34     -0.42      2.40
    3    5   35      5.84     -3.53
    3    5   36     -4.24      2.00
    3    5   37      3.31      0.34
    3    5   38      1.02      3.45
    3    5   39      3.76     -1.52
    3    5   40      0.74     -1.15
    3    5   41      0.18     -0.18
    3    5   42      0.71      5.02
    3    5   43      1.10      0.87
    3    5   44      3.88     -3.06
    3    5   45      0.11     -0.98
    3    5   46     -1.18      6.39
    3    5   47      2.43      0.55
    3    5   48      2.47     -1.46
    2    5    2    -11.31     -0.32
    2    5    3      7.18      5.94
    2    5    4    -13.95      1.69
    2    5    5    -13.41      6.64
    2    5    6     -9.11      3.33
    2    5    7      5.03      3.68
    2    5    8     -8.57     -0.44
    2    5    9    -12.38      5.73
    2    5   10     -4.24      8.64
    2    5   11      1.79      1.94
    2    5   12     -2.68     -3.11
    2    5   13    -10.11      3.62
    2    5   14     -4.49      9.59
    2    5   15      0.35      2.89
    2    5   16     -2.79     -3.66
    2    5   17     -8.21      1.93
    2    5   18     -8.10      8.67
    2    5   19     -0.01      2.88
    2    5   20     -4.40     -3.74
    2    5   21     -6.74      2.99
    2    5   22     -5.67      5.19
    2    5   23     -0.18      2.54
    2    5   24     -2.93     -2.47
    2    5   25     -6.46      3.46
    2    5   26     -0.88      2.76
    2    5   27      1.22      5.83
    2    5   28     -1.15     -0.36
    2    5   29     -5.97      1.03
    2    5   30      0.93      3.74
    2    5   31      0.16      6.72
    2    5   32      1.18     -1.85
    2    5   33     -5.80      0.62
    2    5   34      2.11      3.11
    2    5   35     -2.61      3.11
    2    5   36      3.81     -4.99
    2    5   37     -5.03      1.06
    2    5   38      1.25      4.06
    2    5   39     -2.36      1.81
    2    5   40      3.65     -5.52
    2    5   41     -1.76     -1.32
    2    5   42     -2.05      6.47
    2    5   43     -1.63      1.42
    2    5   44      3.06     -5.38
    2    5   45     -0.19     -1.71
    2    5   46     -2.18      3.39
    2    5   47     -1.50      0.26
    2    5   48      3.86     -4.60
    2    5   49     -0.99      0.36
    1    5    0     22.08      0.22
    1    5    1     -9.34     -4.45
    1    5    2     22.73     -0.96
    1    5    3     11.76     -2.71
    1    5    4     18.54      4.68
    1    5    5    -12.28     -7.09
    1    5    6     17.27     -3.12
    1    5    7     12.52     -3.48
    1    5    8     11.28      1.67
    1    5    9    -14.05     -7.76
    1    5   10      7.15     -1.99
    1    5   11     10.80     -5.15
    1    5   12      6.68     -4.01
    1    5   13    -10.66     -8.19
    1    5   14      1.57      1.48
    1    5   15     10.55     -5.79
    1    5   16      6.33     -8.50
    1    5   17     -7.81     -8.16
    1    5   18      3.95      2.77
    1    5   19      7.48     -5.99
    1    5   20      7.10     -9.53
    1    5   21     -4.84     -6.61
    1    5   22      6.16      2.18
    1    5   23      5.54     -7.54
    1    5   24      6.73     -6.70
    1    5   25     -2.22     -7.26
    1    5   26      5.40      0.92
    1    5   27      6.83     -5.94
    1    5   28      3.58     -4.22
    1    5   29     -2.11     -7.11
    1    5   30      3.19     -0.96
    1    5   31      3.70     -1.17
    1    5   32     -1.07     -1.76
    1    5   33     -1.93     -3.71
    1    5   34     -2.04     -2.23
    1    5   35     -0.72     -0.53
    1    5   36     -2.46     -0.84
    1    5   37     -0.20     -3.59
    1    5   38     -6.76     -3.51
    1    5   39     -1.99     -0.41
    1    5   40     -1.04     -4.56
    1    5   41      3.10     -4.08
    1    5   42     -6.64     -5.10
    1    5   43     -2.70      2.50
    1    5   44     -0.80     -5.49
    1    5   45      5.43     -0.93
    1    5   46     -5.07     -5.60
    1    5   47     -1.03      1.84
    1    5   48     -1.33     -0.96
    1    5   49      4.15     -0.50
    0    5    1     -4.22      4.34
    0    5    2    -20.20      0.05
    0    5    3      7.95      7.83
    0    5    4     -0.08      3.34
    0    5    5     -5.59      5.78
    0    5    6    -11.94      0.18
    0    5    7     14.17     13.92
    0    5    8      0.09      6.91
    0    5    9     -7.19      7.23
    0    5   10     -5.78      0.22
    0    5   11     14.93     14.38
    0    5   12      0.33      4.15
    0    5   13     -9.82      9.83
    0    5   14     -3.69      0.05
    0    5   15     11.96     11.31
    0    5   16      0.44     -0.68
    0    5   17    -10.80     11.02
    0    5   18     -3.33      0.13
    0    5   19      7.75      7.25
    0    5   20      0.25     -1.55
    0    5   21     -9.39      9.66
    0    5   22     -5.79      0.36
    0    5   23      3.49      3.11
    0    5   24      0.07     -1.29
    0    5   25     -9.03      9.32
    0    5   26     -5.95      0.21
    0    5   27      2.02      1.70
    0    5   28      0.08      1.00
    0    5   29     -4.55      4.97
    0    5   30     -0.15      0.18
    0    5   31      2.13      1.84
    0    5   32      0.04      6.84
    0    5   33      1.81     -1.70
    0    5   34      2.58      0.44
    0    5   35      3.17      2.99
    0    5   36      0.09     11.23
    0    5   37      2.06     -2.43
    0    5   38     -0.48      0.37
    0    5   39      2.52      2.74
    0    5   40      0.55     11.69
    0    5   41      1.86     -2.11
    0    5   42     -0.89      0.19
    0    5   43     -2.69     -2.21
    0    5   44      0.90     10.67
    0    5   45      3.05     -2.96
    0    5   46      0.94      0.24
    0    5   47     -5.24     -4.99
    0    5   48      0.61      8.87
    0    5   49      0.99     -0.95
    2    5    0    -15.00     -0.14
    2    5    1    -10.58      6.74
    3    5    0     -4.62     -0.11
    5    5    0     -1.76      0.03
    5    5    1     -0.17     12.63
    5    5    2     -0.96     -0.61
    5    5    3     -0.23      9.07
    5    5    4     -5.71     -0.15
    5    5    5     -0.22     12.39
    5    5    6      1.34     -0.50
    5    5    7     -0.35      5.54
    5    5    8     -9.16     -0.19
    5    5    9     -0.31      6.24
    5    5   10     -2.41     -0.39
    5    5   11     -0.27      0.92
    5    5   12     -8.00     -0.07
    5    5   13     -0.33      0.38
    5    5   14     -8.21     -0.23
    5    5   15     -0.06     -4.67
    5    5   16     -9.00      0.14
    5    5   17     -0.16     -3.37
    5    5   18     -9.54      0.03
    5    5   19      0.12    -10.34
    5    5   20     -7.75      0.23
    5    5   21      0.04     -4.97
    5    5   22     -7.49      0.07
    5    5   23      0.16    -13.87
    5    5   24     -1.87      0.27
    5    5   25      0.08     -1.37
    5    5   26     -5.84     -0.06
    5    5   27      0.10     -9.94
    5    5   28     -0.63      0.34
    5    5   29      0.04      3.73
    5    5   30     -5.27     -0.04
    5    5   31      0.05     -3.37
    5    5   32     -0.94      0.23
    5    5   33      0.15      3.10
    5    5   34     -0.80     -0.04
    5    5   35     -0.05     -3.38
    5    5   36      3.71      0.13
    5    5   37      0.34     -1.18
    5    5   38      2.45     -0.06
    5    5   39     -0.21     -4.89
    5    5   40      4.11      0.24
    5    5   41      0.33     -2.56
    5    5   42     -4.38      0.09
    5    5   43     -0.26     -1.04
    5    5   44     -1.63      0.24
    5    5   45      0.10     -1.25
    5    5   46    -10.42      0.14
    5    5   47     -0.13      3.19
    5    6    0      0.56      0.12
    5    6    1     -1.49     -3.38
    5    6    2     -8.51     -0.50
    5    6    3      3.76     -2.63
    5    6    4     -1.40     -3.78
    5    6    5      2.32     -3.22
    5    6    6     -3.00     -2.43
    5    6    7      2.18     -4.54
    5    6    8     -1.92     -1.53
    5    6    9      4.34      0.98
    5    6   10     -1.13     -5.56
    5    6   11      1.52     -4.26
    5    6   12      1.60      2.24
    5    6   13      5.50      4.82
    5    6   14      0.57     -5.27
    5    6   15      1.29      1.14
    5    6   16      4.18      4.05
    5    6   17      4.81      6.35
    5    6   18      3.95     -1.99
    5    6   19     -0.40      6.43
    5    6   20      5.85      4.40
    5    6   21      1.28      7.78
    5    6   22      2.21     -1.58
    5    6   23     -1.83      7.33
    5    6   24      6.24      0.59
    5    6   25      0.07      6.12
    5    6   26     -0.59     -3.10
    5    6   27     -2.66      4.09
    5    6   28      5.03     -4.55
    5    6   29      1.04      0.40
    5    6   30     -0.18     -1.22
    5    6   31     -3.72     -0.12
    5    6   32      3.79     -3.22
    5    6   33      0.04     -0.90
    5    6   34     -2.52      1.46
    5    6   35     -1.81     -1.11
    5    6   36      2.02      0.89
    5    6   37     -0.03      3.40
    5    6   38     -4.79      0.36
    5    6   39      2.98      0.16
    5    6   40      1.78      0.76
    5    6   41      1.36      3.55
    5    6   42     -0.53     -1.63
    5    6   43      3.43      0.26
    5    6   44      3.17      0.18
    5    6   45      0.63     -0.96
    4    6    0     -6.50      0.33
    4    6    1      0.36     -3.02
    4    6    2     -4.93     -0.19
    4    6    3     -5.52     -4.66
    4    6    4     -5.89     -0.05
    4    6    5     -0.25     -2.09
    4    6    6     -2.32     -0.63
    4    6    7     -9.45     -2.81
    4    6    8     -3.76      1.97
    4    6    9     -1.16     -3.47
    4    6   10     -1.77     -1.48
    4    6   11     -7.53     -1.37
    4    6   12     -1.85      5.91
    4    6   13     -2.51     -2.84
    4    6   14     -0.84     -1.52
    4    6   15     -4.82     -3.73
    4    6   16     -3.62      6.13
    4    6   17      0.84     -0.71
    4    6   18      0.10     -1.74
    4    6   19     -2.36     -3.73
    4    6   20     -6.45      4.30
    4    6   21      4.88      0.92
    4    6   22     -1.40     -0.86
    4    6   23     -1.16     -1.28
    4    6   24     -5.87      6.10
    4    6   25      3.75      1.44
    4    6   26     -2.78      3.45
    4    6   27     -3.76     -1.16
    4    6   28     -3.13      7.34
    4    6   29      2.70      0.80
    4    6   30     -3.82      5.36
    4    6   31     -3.71     -1.97
    4    6   32     -1.70      5.41
    4    6   33      4.66      1.30
    4    6   34     -3.51      0.62
    4    6   35     -0.36     -2.14
    4    6   36     -1.69      4.74
    4    6   37      1.88      3.13
    4    6   38     -0.66     -3.78
    4    6   39     -0.85     -2.25
    4    6   40     -1.05      4.88
    4    6   41     -3.55      2.54
    4    6   42      0.42     -4.08
    4    6   43     -1.70     -0.81
    4    6   44      0.36      2.93
    4    6   45     -2.35     -0.23
    4    6   46     -0.74     -3.18
    3    6    2     -1.53      1.82
    3    6    3     -5.37     10.92
    3    6    4      0.82     -1.79
    3    6    5      4.91     11.31
    3    6    6     -3.27      6.57
    3    6    7     -6.08      7.70
    3    6    8      0.32     -4.58
    3    6    9      4.59      4.88
    3    6   10     -1.87      7.78
    3    6   11     -4.63      3.35
    3    6   12     -3.76     -4.59
    3    6   13      2.53      2.79
    3    6   14     -0.48      3.40
    3    6   15     -3.39     -0.47
    3    6   16     -7.28     -3.49
    3    6   17      0.95      4.27
    3    6   18      0.19      0.07
    3    6   19     -4.06     -2.10
    3    6   20     -4.90     -3.54
    3    6   21     -1.55      2.06
    3    6   22      4.85     -1.34
    3    6   23     -4.07     -1.47
    3    6   24     -1.77     -3.19
    3    6   25     -2.03     -0.56
    3    6   26      7.80     -1.96
    3    6   27     -1.52      1.80
    3    6   28     -1.41     -3.01
    3    6   29      0.42      0.59
    3    6   30      4.45     -2.44
    3    6   31     -1.41      3.33
    3    6   32     -0.38     -2.28
    3    6   33     -0.64      2.48
    3    6   34      3.17     -4.94
    3    6   35     -3.55      0.38
    3    6   36     -0.25     -0.17
    3    6   37     -3.28      2.92
    3    6   38      3.65     -5.05
    3    6   39     -1.34     -1.51
    3    6   40     -2.06      0.45
    3    6   41     -2.84      1.66
    3    6   42     -0.84     -0.85
    3    6   43      1.82      0.10
    3    6   44     -2.05     -1.06
    3    6   45     -2.12     -0.46
    3    6   46     -3.30      2.09
    3    6   47      1.53      0.94
    2    6    0      8.68      0.11
    2    6    1     -2.00    -10.60
    2    6    2     20.06      1.49
    2    6    3      4.37    -10.28
    2    6    4      9.60      0.03
    2    6    5      0.59     -9.12
    2    6    6     14.73      5.11
    2    6    7      4.02     -9.61
    2    6    8      9.13     -3.94
    2    6    9      4.54     -3.95
    2    6   10     10.78      7.17
    2    6   11      3.62     -7.80
    2    6   12      6.95     -6.86
    2    6   13      7.28      0.12
    2    6   14     11.29      5.61
    2    6   15      3.50     -6.37
    2    6   16      7.35     -6.66
    2    6   17      3.69      1.03
    2    6   18     11.17      4.89
    2    6   19      1.70     -5.56
    2    6   20      6.00     -3.76
    2    6   21      0.17      0.06
    2    6   22      7.75      4.05
    2    6   23      2.07     -3.76
    2    6   24      0.03     -1.04
    2    6   25      0.33     -4.17
    2    6   26      4.32      2.83
    2    6   27      3.40     -0.61
    2    6   28     -1.14     -1.87
    2    6   29     -0.03     -6.50
    2    6   30      1.31      4.32
    2    6   31      2.39      1.19
    2    6   32      1.70     -1.51
    2    6   33      0.92     -2.89
    2    6   34     -1.53      5.97
    2    6   35      2.67     -0.03
    2    6   36     -0.30     -0.74
    2    6   37      2.65     -0.95
    2    6   38     -2.13      6.08
    2    6   39      3.91      0.04
    2    6   40     -1.14     -5.23
    2    6   41      0.74     -2.63
    2    6   42     -2.13      6.07
    2    6   43      2.78      2.52
    2    6   44      1.94     -8.53
    2    6   45     -1.68     -2.64
    2    6   46     -3.20      4.69
    2    6   47      0.82      2.27
    2    6   48      0.74     -6.34
    1    6    0    -21.20     -0.50
    1    6    1     -5.09      2.36
    1    6    2     -6.40     -1.74
    1    6    3      5.75      7.59
    1    6    4    -18.58     -1.87
    1    6    5     -5.29     -0.40
    1    6    6     -5.79     -2.57
    1    6    7      5.95      7.48
    1    6    8    -12.93     -3.77
    1    6    9     -4.78      1.99
    1    6   10     -6.64      0.33
    1    6   11      1.66      3.61
    1    6   12     -8.25     -4.62
    1    6   13     -5.88      5.11
    1    6   14     -5.91      4.77
    1    6   15     -0.38      2.05
    1    6   16     -6.54     -4.07
    1    6   17     -3.86      5.85
    1    6   18     -4.74      7.23
    1    6   19      1.29      1.79
    1    6   20     -6.32     -2.27
    1    6   21      0.04      5.12
    1    6   22     -4.20      5.65
    1    6   23      0.43      3.82
    1    6   24     -5.95     -1.82
    1    6   25     -1.77      2.72
    1    6   26     -2.13      3.83
    1    6   27      0.04      6.27
    1    6   28     -4.58     -4.02
    1    6   29     -2.95     -1.62
    1    6   30     -1.89      2.61
    1    6   31      1.47      2.92
    1    6   32     -1.29     -3.65
    1    6   33     -0.01     -2.14
    1    6   34     -2.78      0.97
    1    6   35      0.08      0.49
    1    6   36      2.58     -1.71
    1    6   37      0.13      0.32
    1    6   38     -0.58      3.97
    1    6   39     -2.29      3.95
    1    6   40      4.62     -2.99
    1    6   41     -0.80     -2.38
    1    6   42      0.84      9.09
    1    6   43     -2.24      4.52
    1    6   44      4.68     -2.37
    1    6   45      0.32     -5.55
    1    6   46     -0.29      8.01
    1    6   47     -1.18      2.06
    1    6   48      3.38      1.61
    0    6    0      5.64     -0.50
    0    6    1     -5.20     -5.26
    0    6    2      0.26      0.82
    0    6    3      1.16     -1.13
    0    6    4      3.02     -0.44
    0    6    5     -9.00     -8.86
    0    6    6      0.15      1.72
    0    6    7      0.36     -0.31
    0    6    8      2.16     -0.38
    0    6    9     -7.62     -7.30
    0    6   10     -0.13      2.28
    0    6   11      3.43     -3.35
    0    6   12      3.43     -0.33
    0    6   13     -4.24     -3.80
    0    6   14     -0.53      3.14
    0    6   15      6.53     -6.60
    0    6   16      1.15     -0.29
    0    6   17     -2.51     -2.11
    0    6   18     -0.68      2.43
    0    6   19      5.27     -5.43
    0    6   20      0.92     -0.29
    0    6   21     -0.41      0.08
    0    6   22     -0.44      1.55
    0    6   23      3.78     -3.88
    0    6   24      1.36     -0.18
    0    6   25      0.59      1.18
    0    6   26     -0.18      3.74
    0    6   27      2.13     -2.30
    0    6   28     -1.48      0.06
    0    6   29      0.39      0.67
    0    6   30     -0.01      2.18
    0    6   31     -2.11      1.87
    0    6   32     -0.61      0.13
    0    6   33      0.66      0.63
    0    6   34     -0.03     -4.75
    0    6   35     -2.71      2.61
    0    6   36      2.52      0.04
    0    6   37     -0.36     -0.54
    0    6   38     -0.67     -4.59
    0    6   39     -1.17      1.06
    0    6   40      1.19      0.03
    0    6   41     -0.38     -0.83
    0    6   42     -1.59      0.40
    0    6   43     -3.44      3.23
    0    6   44     -0.64      0.10
    0    6   45      1.67      1.22
    0    6   46     -1.62     -1.54
    0    6   47     -4.61      4.51
    0    6   48      0.61      0.19
    3    6    0      0.50      0.11
    3    6    1      4.05     13.08
    6    6    0     15.56      0.04
    6    6    1     -0.57     -3.40
    6    6    2      4.43      0.51
    6    6    3     -0.83      3.80
    6    6    4     14.58      0.17
    6    6    5     -0.35     -2.34
    6    6    6      2.93      0.40
    6    6    7     -0.27      4.00
    6    6    8     13.26      0.30
    6    6    9     -0.08      4.97
    6    6   10      1.47      0.39
    6    6   11      0.08     -1.70
    6    6   12      9.93      0.25
    6    6   13      0.08      3.30
    6    6   14     -1.24      0.35
    6    6   15      0.10     -4.02
    6    6   16      3.31      0.10
    6    6   17      0.21     -4.85
    6    6   18     -6.91      0.32
    6    6   19      0.12     -6.14
    6    6   20      0.46      0.04
    6    6   21      0.18    -11.12
    6    6   22     -9.45      0.23
    6    6   23      0.08     -6.57
    6    6   24      0.95      0.11
    6    6   25      0.01    -13.86
    6    6   26     -5.85      0.08
    6    6   27     -0.09      0.68
    6    6   28     -0.71      0.25
    6    6   29     -0.02     -9.37
    6    6   30     -3.36     -0.09
    6    6   31     -0.16      5.21
    6    6   32      0.71      0.28
    6    6   33      0.02     -2.11
    6    6   34     -3.67     -0.28
    6    6   35     -0.06     -1.28
    6    6   36      5.55      0.31
    6    6   37      0.06     -1.46
    6    6   38     -3.66     -0.33
    6    6   39      0.03     -5.17
    6    6   40      4.24      0.51
    6    6   41      0.07     -2.91
    6    6   42     -3.46     -0.16
    6    6   43      0.14      0.18
    6    6   44     -0.73      0.58
    6    7    0     -2.89     -0.56
    6    7    1      2.14      3.91
    6    7    2     -6.71     -1.15
    6    7    3     -2.86      4.75
    6    7    4     -0.31     -1.72
    6    7    5     -2.61      1.19
    6    7    6    -10.47     -1.52
    6    7    7     -1.84      0.51
    6    7    8      1.77     -1.06
    6    7    9     -2.78      1.67
    6    7   10    -10.40     -0.91
    6    7   11     -0.38     -0.87
    6    7   12      0.48     -2.59
    6    7   13      3.46      1.58
    6    7   14     -6.73     -1.14
    6    7   15      0.95      2.25
    6    7   16      2.23     -3.70
    6    7   17      6.28      1.30
    6    7   18     -5.56     -1.33
    6    7   19      0.53      3.88
    6    7   20      4.70     -0.51
    6    7   21      2.48      1.71
    6    7   22     -4.91      0.06
    6    7   23     -2.21      6.40
    6    7   24      2.11      1.48
    6    7   25     -1.90     -1.87
    6    7   26     -2.09      1.84
    6    7   27     -4.38      7.99
    6    7   28      1.08      1.06
    6    7   29     -5.92     -6.92
    6    7   30     -2.31      3.29
    6    7   31     -3.63      3.55
    6    7   32      4.75      3.23
    6    7   33     -7.62     -5.26
    6    7   34     -5.27      4.23
    6    7   35     -1.48      0.23
    6    7   36      5.77      4.47
    6    7   37     -3.19     -0.89
    6    7   38     -4.41      3.74
    6    7   39     -0.06      1.63
    6    7   40      3.32      1.04
    6    7   41      0.80     -1.58
    6    7   42     -1.36      3.01
    5    7    0      4.88      0.58
    5    7    1      2.21      1.26
    5    7    2     -4.67      4.09
    5    7    3     -0.93      0.71
    5    7    4      4.11      0.75
    5    7    5      2.74      1.25
    5    7    6     -3.91      5.02
    5    7    7     -0.18     -2.47
    5    7    8      3.65      2.62
    5    7    9      2.60      2.39
    5    7   10     -4.87     -0.38
    5    7   11     -3.07     -4.04
    5    7   12      4.28      4.28
    5    7   13      1.41     -0.58
    5    7   14     -4.50     -2.13
    5    7   15     -7.39     -1.59
    5    7   16      4.41      4.58
    5    7   17      0.37     -3.67
    5    7   18     -2.05     -2.97
    5    7   19     -4.75      1.17
    5    7   20      4.46      4.71
    5    7   21      0.63     -2.24
    5    7   22     -0.51     -3.32
    5    7   23      1.06      3.00
    5    7   24      4.33      4.44
    5    7   25      2.31     -1.48
    5    7   26     -0.26      2.39
    5    7   27      3.01      4.68
    5    7   28      3.54      1.48
    5    7   29      3.21     -2.30
    5    7   30     -2.35      5.72
    5    7   31      4.36      5.27
    5    7   32      3.83     -3.39
    5    7   33      1.10     -1.30
    5    7   34     -5.93      0.52
    5    7   35      3.54      3.80
    5    7   36      4.11     -5.58
    5    7   37     -2.98      0.31
    5    7   38     -5.70     -1.89
    5    7   39     -1.02      1.55
    5    7   40      1.11     -4.49
    5    7   41     -4.61      1.05
    5    7   42     -1.37      1.07
    5    7   43     -1.67      0.16
    5    7   44     -2.42     -3.08
    4    7    0      6.41      0.22
    4    7    1      1.33      2.80
    4    7    2      6.21      0.48
    4    7    3     -2.79      0.28
    4    7    4      4.49     -0.74
    4    7    5      3.54      4.88
    4    7    6      3.15     -0.07
    4    7    7     -3.54      1.04
    4    7    8      3.25      2.42
    4    7    9      3.68      2.24
    4    7   10     -1.58     -3.87
    4    7   11     -1.64      2.05
    4    7   12      3.53      5.00
    4    7   13      3.57     -1.07
    4    7   14     -3.69     -8.19
    4    7   15     -1.09      1.41
    4    7   16      0.18      3.41
    4    7   17      4.32     -3.09
    4    7   18     -1.25    -10.11
    4    7   19     -2.39     -1.57
    4    7   20     -2.84      2.22
    4    7   21      2.02     -6.10
    4    7   22      1.50     -9.48
    4    7   23     -2.52     -4.45
    4    7   24     -1.38      0.53
    4    7   25      1.03     -5.12
    4    7   26      0.32     -6.82
    4    7   27     -1.36     -3.12
    4    7   28      1.60     -4.50
    4    7   29      2.61      0.50
    4    7   30     -2.41     -3.31
    4    7   31     -0.60      0.48
    4    7   32      4.84     -4.71
    4    7   33      1.72      2.12
    4    7   34     -1.55     -1.68
    4    7   35      0.00      0.38
    4    7   36      5.97      1.58
    4    7   37      1.46      0.57
    4    7   38      1.80     -1.83
    4    7   39      1.74     -2.80
    4    7   40      1.92      4.45
    4    7   41      2.58      1.39
    4    7   42      2.67     -1.30
    4    7   43      2.15     -2.50
    4    7   44     -2.35      2.95
    4    7   45      1.14      1.79
    3    7    1      6.91     -6.99
    3    7    2      1.38      0.52
    3    7    3     -3.33     -8.36
    3    7    4      3.79     -2.76
    3    7    5      9.46     -5.43
    3    7    6      1.29      2.05
    3    7    7     -1.87     -3.27
    3    7    8      4.95     -4.32
    3    7    9      8.29     -5.07
    3    7   10      2.25      0.56
    3    7   11     -0.65      4.37
    3    7   12      4.61     -1.07
    3    7   13      5.81     -3.08
    3    7   14      5.04     -2.02
    3    7   15     -1.75      5.94
    3    7   16      3.66      4.86
    3    7   17      3.77     -0.44
    3    7   18      6.78      0.16
    3    7   19     -2.03      5.48
    3    7   20      0.63      6.88
    3    7   21      2.79      0.96
    3    7   22      4.71      2.03
    3    7   23      0.67      6.00
    3    7   24     -3.09      3.58
    3    7   25      2.27      1.51
    3    7   26      1.41      1.41
    3    7   27      0.53      2.06
    3    7   28     -1.06      0.30
    3    7   29      0.00      1.07
    3    7   30     -0.37      1.54
    3    7   31     -1.55     -2.73
    3    7   32      2.78      2.48
    3    7   33     -0.96     -0.16
    3    7   34     -0.69     -1.11
    3    7   35     -1.19     -3.00
    3    7   36      0.44      6.95
    3    7   37      0.46      0.57
    3    7   38      0.68     -4.97
    3    7   39     -0.01     -2.79
    3    7   40     -1.76      6.93
    3    7   41     -0.03      2.09
    3    7   42      1.78     -3.73
    3    7   43      0.91     -2.57
    3    7   44      0.62      3.80
    3    7   45     -1.49      0.42
    3    7   46      0.42     -0.45
    2    7    0    -13.52     -0.21
    2    7    1      0.59      2.31
    2    7    2     -6.66     -0.10
    2    7    3     -3.61      0.80
    2    7    4    -11.45     -2.76
    2    7    5     -2.46      3.25
    2    7    6     -8.20      0.87
    2    7    7     -5.52      0.75
    2    7    8     -9.00     -5.33
    2    7    9     -3.35      0.61
    2    7   10     -8.13      2.99
    2    7   11     -8.50      0.85
    2    7   12     -8.84     -3.24
    2    7   13     -1.75     -3.21
    2    7   14     -6.22      3.62
    2    7   15     -7.25     -0.58
    2    7   16     -8.95     -1.98
    2    7   17      1.45     -3.89
    2    7   18     -5.30      2.76
    2    7   19     -1.43     -1.19
    2    7   20     -7.61     -3.74
    2    7   21      2.37     -3.04
    2    7   22     -3.10      2.41
    2    7   23      0.18      1.24
    2    7   24     -4.25     -3.20
    2    7   25      0.30     -1.98
    2    7   26     -1.59      4.10
    2    7   27     -0.55      1.95
    2    7   28     -0.39     -2.81
    2    7   29     -0.53     -0.08
    2    7   30     -6.13      4.15
    2    7   31      0.58     -0.11
    2    7   32      0.52     -2.33
    2    7   33      0.24      1.07
    2    7   34     -7.46      0.26
    2    7   35     -1.00      0.06
    2    7   36     -1.32      0.40
    2    7   37      0.00      1.02
    2    7   38     -1.32     -1.70
    2    7   39     -2.66      1.03
    2    7   40     -1.44     -0.05
    2    7   41     -1.48      0.04
    2    7   42      0.42      0.24
    2    7   43     -0.09      0.89
    2    7   44      1.49     -2.97
    2    7   45     -1.87     -0.95
    2    7   46     -1.55      1.30
    1    7    0     -6.38     -0.27
    1    7    1      0.24      2.91
    1    7    2     11.53      0.15
    1    7    3      1.26      4.84
    1    7    4     -4.68      1.39
    1    7    5     -0.68      1.24
    1    7    6      9.89      0.55
    1    7    7      3.04      4.83
    1    7    8     -0.35      1.50
    1    7    9      0.49      1.03
    1    7   10      8.03      0.27
    1    7   11      2.60      3.73
    1    7   12      0.80     -1.18
    1    7   13      3.08      1.50
    1    7   14      5.40     -0.90
    1    7   15     -0.14      2.75
    1    7   16     -1.20     -5.58
    1    7   17      2.43      2.51
    1    7   18      3.32     -1.25
    1    7   19     -3.84      2.12
    1    7   20      0.39     -7.85
    1    7   21      1.64      0.17
    1    7   22      2.79     -1.14
    1    7   23     -4.00      2.96
    1    7   24      1.79     -7.59
    1    7   25      2.10     -3.81
    1    7   26      1.76      1.57
    1    7   27     -0.59      4.09
    1    7   28      3.25     -6.56
    1    7   29     -0.06     -2.18
    1    7   30      0.41      2.63
    1    7   31      0.36      3.08
    1    7   32      7.33     -3.88
    1    7   33     -1.21      0.44
    1    7   34      0.42     -2.00
    1    7   35     -1.42      0.96
    1    7   36      3.97     -1.79
    1    7   37      1.77     -1.82
    1    7   38      0.15     -1.70
    1    7   39     -1.14      1.54
    1    7   40     -3.86     -3.27
    1    7   41      3.03     -2.88
    1    7   42     -1.60      4.48
    1    7   43      0.98      3.98
    1    7   44     -3.49     -4.43
    1    7   45      1.16     -0.99
    1    7   46     -2.14      4.65
    1    7   47      1.03      3.10
    0    7    1      2.23     -2.17
    0    7    2     10.06      0.54
    0    7    3      0.21      0.08
    0    7    4     -0.22      0.03
    0    7    5      3.65     -3.45
    0    7    6      8.05      0.29
    0    7    7      1.18      0.78
    0    7    8     -0.14      1.19
    0    7    9      3.44     -3.01
    0    7   10      4.65      0.12
    0    7   11      0.53     -0.11
    0    7   12      0.02      2.95
    0    7   13      2.21     -1.88
    0    7   14      5.98      0.00
    0    7   15     -0.78     -1.53
    0    7   16     -0.02      3.41
    0    7   17      1.60     -1.75
    0    7   18      5.86     -0.06
    0    7   19     -2.17     -2.88
    0    7   20     -0.31      2.89
    0    7   21      2.42     -2.81
    0    7   22      2.19     -0.01
    0    7   23     -1.98     -2.68
    0    7   24     -0.58     -0.72
    0    7   25      3.08     -3.22
    0    7   26      2.98      0.04
    0    7   27     -0.79     -1.38
    0    7   28     -0.54     -3.80
    0    7   29      3.21     -3.10
    0    7   30      1.74      0.03
    0    7   31     -0.29     -0.56
    0    7   32     -0.19      3.31
    0    7   33      3.52     -3.29
    0    7   34     -1.60      0.01
    0    7   35      0.33      0.37
    0    7   36      0.30      9.09
    0    7   37      3.54     -3.14
    0    7   38      3.39      0.00
    0    7   39      0.48      0.78
    0    7   40      0.83      0.46
    0    7   41      3.24     -2.90
    0    7   42      8.22     -0.04
    0    7   43     -0.96     -0.55
    0    7   44      1.06     -6.33
    0    7   45      2.66     -2.67
    0    7   46      4.74     -0.08
    0    7   47     -1.72     -1.47
    3    7    0      2.65     -0.17
    7    7    0     -1.63      0.30
    7    7    1     -0.32     -7.85
    7    7    2      1.45      0.20
    7    7    3     -0.48    -10.42
    7    7    4      1.84      0.38
    7    7    5      0.62     -4.13
    7    7    6     -1.36      0.06
    7    7    7      0.42     -7.29
    7    7    8      5.53      0.55
    7    7    9      1.36     -5.38
    7    7   10      1.72      0.07
    7    7   11      0.69     -1.64
    7    7   12      4.11      0.61
    7    7   13      1.04     -6.62
    7    7   14      3.66     -0.02
    7    7   15      0.44      1.42
    7    7   16      4.34      0.35
    7    7   17      0.45     -2.85
    7    7   18      0.51     -0.15
    7    7   19      0.26      1.24
    7    7   20      6.34      0.14
    7    7   21      0.21     -1.19
    7    7   22      1.50     -0.02
    7    7   23      0.15      0.95
    7    7   24      3.46      0.06
    7    7   25      0.06     -2.42
    7    7   26      1.99      0.21
    7    7   27     -0.12      2.74
    7    7   28      0.72     -0.07
    7    7   29     -0.01      0.93
    7    7   30     -4.69      0.17
    7    7   31     -0.38      4.27
    7    7   32      2.40     -0.28
    7    7   33     -0.02      3.64
    7    7   34     -6.89      0.04
    7    7   35     -0.47      3.27
    7    7   36      1.70     -0.25
    7    7   37     -0.02      0.35
    7    7   38     -1.30     -0.02
    7    7   39     -0.43      2.79
    7    7   40     -0.24      0.06
    7    7   41      0.02     -1.55
    7    8    0     -3.32     -0.24
    7    8    1     -0.53      7.86
    7    8    2      3.83     -1.16
    7    8    3      3.01      2.99
    7    8    4     -2.83      1.68
    7    8    5      0.19      8.84
    7    8    6      2.90     -0.39
    7    8    7      1.48      4.36
    7    8    8     -4.14     -0.63
    7    8    9      0.17      2.14
    7    8   10      1.81      2.04
    7    8   11     -0.69      7.11
    7    8   12     -6.41     -5.51
    7    8   13     -0.14     -2.39
    7    8   14      0.01      2.09
    7    8   15     -1.01      4.09
    7    8   16     -5.43     -7.03
    7    8   17     -1.59     -2.24
    7    8   18     -2.45      2.82
    7    8   19     -1.27      1.15
    7    8   20     -4.54     -4.33
    7    8   21     -1.51     -1.85
    7    8   22     -2.25      5.86
    7    8   23     -2.48      0.01
    7    8   24     -4.25     -0.17
    7    8   25     -0.36     -0.35
    7    8   26     -0.10      6.54
    7    8   27     -4.05     -5.15
    7    8   28      0.28      4.96
    7    8   29     -3.49      0.89
    7    8   30      0.05      5.64
    7    8   31     -5.52     -8.43
    7    8   32      4.32      7.89
    7    8   33     -7.25     -1.10
    7    8   34      0.60      6.08
    7    8   35     -5.23     -3.62
    7    8   36      2.07      5.63
    7    8   37     -4.74     -2.81
    7    8   38      2.12      4.66
    7    8   39     -2.47      0.95
    6    8    0      0.04      0.20
    6    8    1     -0.52     -1.66
    6    8    2      0.77     -1.13
    6    8    3      2.97     -1.74
    6    8    4      1.78      2.47
    6    8    5     -1.26     -1.29
    6    8    6     -0.70     -2.59
    6    8    7      4.32      0.22
    6    8    8      2.76     -1.50
    6    8    9     -1.61     -0.41
    6    8   10     -0.07      1.28
    6    8   11     -0.31      2.40
    6    8   12      1.14     -6.37
    6    8   13     -0.72      0.06
    6    8   14      0.00      6.88
    6    8   15     -4.17      1.19
    6    8   16      2.20     -6.49
    6    8   17      0.07      0.04
    6    8   18     -2.02      5.49
    6    8   19     -2.65     -0.72
    6    8   20      3.97     -5.82
    6    8   21      2.40     -0.28
    6    8   22     -1.63     -0.35
    6    8   23     -1.32      0.50
    6    8   24      2.86     -6.05
    6    8   25      6.15     -0.80
    6    8   26      0.16     -4.33
    6    8   27      1.62      2.55
    6    8   28      3.59     -4.89
    6    8   29      6.59     -0.27
    6    8   30     -1.76     -7.60
    6    8   31      7.92      2.88
    6    8   32      6.03     -5.01
    6    8   33      3.32     -0.05
    6    8   34     -5.48     -8.30
    6    8   35      7.02      2.52
    6    8   36      4.95     -5.86
    6    8   37      1.15     -1.84
    6    8   38     -6.37     -3.97
    6    8   39     -0.59      2.80
    6    8   40      2.61     -4.17
    5    8    0      7.84     -0.14
    5    8    1      1.92     -5.25
    5    8    2      0.14     -1.13
    5    8    3     -3.43     -3.83
    5    8    4      7.40     -0.69
    5    8    5      0.52     -2.52
    5    8    6      1.26     -1.41
    5    8    7     -2.37     -1.68
    5    8    8      6.61      2.12
    5    8    9      1.15     -0.07
    5    8   10      1.94      1.99
    5    8   11     -2.52     -1.51
    5    8   12      5.45      2.08
    5    8   13      3.41     -0.95
    5    8   14     -1.17      4.85
    5    8   15     -3.39     -0.42
    5    8   16      3.27      0.14
    5    8   17      2.75     -2.13
    5    8   18     -5.96      2.01
    5    8   19     -1.87     -1.08
    5    8   20      0.82      2.25
    5    8   21      0.69     -3.62
    5    8   22     -7.25     -2.48
    5    8   23     -0.49     -3.34
    5    8   24     -0.61      3.03
    5    8   25      1.27     -4.75
    5    8   26     -5.95     -3.69
    5    8   27     -0.33     -1.54
    5    8   28      0.32     -0.41
    5    8   29      0.01     -3.77
    5    8   30     -4.54     -0.84
    5    8   31      2.68      2.77
    5    8   32      5.22     -1.17
    5    8   33     -2.41     -3.61
    5    8   34     -3.35      4.05
    5    8   35      5.61      4.29
    5    8   36     10.44     -0.04
    5    8   37      1.00     -4.86
    5    8   38     -2.64      5.98
    5    8   39      3.86      2.93
    5    8   40      8.61     -1.10
    5    8   41      4.39     -3.40
    5    8   42     -0.63      4.47
    4    8    0     -5.09     -0.07
    4    8    1      3.44      5.90
    4    8    2     -8.59     -2.33
    4    8    3     -2.85      2.14
    4    8    4     -4.63     -0.31
    4    8    5      4.67      4.38
    4    8    6     -6.51     -5.98
    4    8    7     -3.96     -0.88
    4    8    8     -2.65      0.57
    4    8    9      3.42      2.87
    4    8   10     -4.81     -7.26
    4    8   11     -2.01      1.07
    4    8   12      1.32      0.65
    4    8   13      2.16      2.66
    4    8   14     -2.67     -4.45
    4    8   15     -0.52      3.35
    4    8   16      4.75      2.56
    4    8   17      1.86      2.95
    4    8   18      0.77     -1.86
    4    8   19     -0.91      3.71
    4    8   20      4.64      6.90
    4    8   21     -0.55      5.62
    4    8   22      2.12     -3.51
    4    8   23     -2.83      3.79
    4    8   24      3.34      8.76
    4    8   25     -3.61      7.99
    4    8   26      0.45     -3.08
    4    8   27     -5.73      0.89
    4    8   28      2.54      6.61
    4    8   29     -6.36      4.64
    4    8   30     -2.43      1.89
    4    8   31     -5.49     -1.67
    4    8   32      0.61      2.68
    4    8   33     -7.16     -1.33
    4    8   34     -6.96      3.68
    4    8   35     -3.88      1.37
    4    8   36     -0.48      0.24
    4    8   37     -3.00     -2.29
    4    8   38     -8.56      1.06
    4    8   39     -4.54      3.46
    4    8   40      0.01      0.22
    4    8   41      1.63      0.75
    4    8   42     -3.11     -1.06
    4    8   43     -3.46      0.73
    3    8    0     -0.51      0.34
    3    8    1      5.04      0.47
    3    8    2     -4.97      0.54
    3    8    3     -7.58     -1.35
    3    8    4     -0.49      4.21
    3    8    5      3.87      0.94
    3    8    6     -3.12      0.50
    3    8    7     -7.08     -1.23
    3    8    8     -1.07      3.87
    3    8    9      1.13     -2.10
    3    8   10     -2.17     -0.35
    3    8   11     -3.74     -0.48
    3    8   12     -2.57      4.30
    3    8   13     -1.54     -6.01
    3    8   14     -3.82     -2.59
    3    8   15     -1.41      0.42
    3    8   16     -4.35      4.05
    3    8   17     -0.54     -5.65
    3    8   18     -5.12     -5.98
    3    8   19      0.49      0.68
    3    8   20     -4.49      2.35
    3    8   21      1.33     -3.89
    3    8   22     -3.23     -7.63
    3    8   23      2.34     -2.29
    3    8   24     -1.43      3.68
    3    8   25      2.89     -2.41
    3    8   26     -0.91     -6.72
    3    8   27      4.81     -7.18
    3    8   28      0.48      4.56
    3    8   29      4.09      0.29
    3    8   30     -0.95     -5.27
    3    8   31      7.20     -6.38
    3    8   32     -0.25      3.01
    3    8   33      3.58     -0.23
    3    8   34     -2.22     -5.30
    3    8   35      4.03     -1.33
    3    8   36      0.52      3.56
    3    8   37      2.71     -2.50
    3    8   38     -3.92     -6.98
    3    8   39     -2.01     -1.26
    3    8   40      0.99      4.86
    3    8   41      1.29     -0.55
    3    8   42     -4.52     -6.77
    3    8   43     -2.99     -3.25
    3    8   44      0.11      3.64
    2    8    0      8.46     -0.09
    2    8    1      4.05      4.75
    2    8    2      3.88     -1.04
    2    8    3     -4.07      2.49
    2    8    4      6.90      0.08
    2    8    5      2.23      5.94
    2    8    6      3.80      0.42
    2    8    7     -1.95      1.54
    2    8    8      4.69     -0.30
    2    8    9      1.59      3.89
    2    8   10      3.98      2.15
    2    8   11      0.90      3.46
    2    8   12      4.11     -1.67
    2    8   13      1.92      0.13
    2    8   14      3.73      0.15
    2    8   15      1.25      5.57
    2    8   16      4.68     -3.53
    2    8   17     -0.69     -2.14
    2    8   18      3.52     -0.82
    2    8   19     -0.99      4.38
    2    8   20      4.79     -3.86
    2    8   21     -3.58     -3.70
    2    8   22      1.47     -1.10
    2    8   23     -2.93      2.18
    2    8   24      3.43     -1.76
    2    8   25     -3.08     -1.39
    2    8   26     -1.61     -2.33
    2    8   27     -2.28     -0.45
    2    8   28      4.37      0.43
    2    8   29     -3.20      3.50
    2    8   30      0.05     -2.59
    2    8   31     -0.38     -1.57
    2    8   32      7.78      1.05
    2    8   33     -2.30      2.40
    2    8   34      3.66     -3.56
    2    8   35     -0.34      1.08
    2    8   36      7.89      2.24
    2    8   37      2.71     -0.25
    2    8   38      3.40     -5.11
    2    8   39     -0.12      1.79
    2    8   40      6.38      4.08
    2    8   41      4.35      1.66
    2    8   42      1.28     -4.53
    2    8   43      2.56     -0.32
    2    8   44      6.08      3.28
    2    8   45      1.33      1.30
    1    8    0     -1.96     -0.09
    1    8    1      2.89     -5.01
    1    8    2      6.00     -0.10
    1    8    3      0.59     -5.00
    1    8    4     -2.60      0.45
    1    8    5      3.12     -6.05
    1    8    6      4.90     -0.09
    1    8    7      3.83     -5.03
    1    8    8     -3.36     -0.55
    1    8    9      0.93     -5.80
    1    8   10      2.65      0.98
    1    8   11      3.48     -3.02
    1    8   12     -1.70     -0.56
    1    8   13     -0.78     -4.12
    1    8   14      2.31      5.19
    1    8   15      1.79     -1.54
    1    8   16      0.73      1.24
    1    8   17     -0.14     -1.69
    1    8   18      1.53     10.06
    1    8   19      1.14      0.91
    1    8   20      1.89      2.90
    1    8   21      2.54     -1.65
    1    8   22     -0.27     10.20
    1    8   23     -0.16      4.65
    1    8   24      3.20      1.60
    1    8   25      2.68     -2.96
    1    8   26     -1.08      5.96
    1    8   27     -0.13      3.09
    1    8   28      2.86     -1.02
    1    8   29     -0.41     -1.47
    1    8   30     -4.44      2.48
    1    8   31      2.90      0.50
    1    8   32     -0.20      1.01
    1    8   33      0.27     -0.99
    1    8   34     -5.66      1.32
    1    8   35      2.10      2.45
    1    8   36     -1.12      4.49
    1    8   37      3.06     -2.61
    1    8   38     -0.20      0.69
    1    8   39     -2.48      2.15
    1    8   40      0.53      3.29
    1    8   41      0.10     -1.78
    1    8   42      2.10      0.64
    1    8   43     -2.41     -0.44
    1    8   44      1.12      1.60
    1    8   45     -3.82     -0.56
    0    8    0    -11.11     -0.09
    0    8    1      1.84      1.96
    0    8    2      0.07      0.49
    0    8    3     -5.02      4.74
    0    8    4    -10.68      0.14
    0    8    5     -0.35     -0.08
    0    8    6      0.01      0.86
    0    8    7     -6.56      6.32
    0    8    8     -8.71      0.24
    0    8    9     -1.59     -1.32
    0    8   10     -0.03      0.36
    0    8   11     -4.89      4.84
    0    8   12     -7.71      0.28
    0    8   13     -1.44     -1.38
    0    8   14      0.13     -0.91
    0    8   15     -1.16      1.52
    0    8   16     -7.63      0.06
    0    8   17     -0.27     -0.10
    0    8   18      0.32     -2.45
    0    8   19     -0.06      0.57
    0    8   20     -4.72     -0.36
    0    8   21     -0.64     -0.20
    0    8   22      0.42     -0.82
    0    8   23     -2.74      2.94
    0    8   24     -4.46     -0.50
    0    8   25     -1.08     -0.81
    0    8   26      0.53      4.05
    0    8   27     -3.08      2.82
    0    8   28     -5.69     -0.42
    0    8   29     -1.72     -1.75
    0    8   30      0.42      2.28
    0    8   31     -2.21      1.61
    0    8   32     -2.90     -0.56
    0    8   33     -4.30     -4.49
    0    8   34      0.05     -6.05
    0    8   35     -4.73      4.06
    0    8   36     -4.23     -0.62
    0    8   37     -3.89     -4.45
    0    8   38     -0.16     -6.87
    0    8   39     -4.39      3.99
    0    8   40     -9.15     -0.30
    0    8   41     -0.30     -1.11
    0    8   42     -0.13     -1.72
    0    8   43      0.27     -0.35
    0    8   44     -7.77     -0.07
    0    8   45      0.75      0.27
    8    8    0     -5.23      0.70
    8    8    1     -0.78     -4.01
    8    8    2      4.37      0.32
    8    8    3     -0.73     -8.78
    8    8    4     -8.60      0.10
    8    8    5     -0.01     -1.72
    8    8    6      4.04      0.34
    8    8    7      0.37     -6.62
    8    8    8     -9.62      0.02
    8    8    9      0.99     -4.93
    8    8   10      5.60      0.40
    8    8   11      0.96     -1.23
    8    8   12     -3.47      0.12
    8    8   13      1.07     -4.47
    8    8   14      8.16      0.42
    8    8   15      0.59      0.77
    8    8   16      1.15     -0.14
    8    8   17      0.62     -1.86
    8    8   18     10.81      0.19
    8    8   19      0.20      1.64
    8    8   20      2.85     -0.34
    8    8   21      0.34     -2.15
    8    8   22     10.76     -0.01
    8    8   23      0.08      1.21
    8    8   24      2.69     -0.26
    8    8   25      0.04      3.18
    8    8   26      4.85     -0.03
    8    8   27     -0.14     -1.35
    8    8   28     -1.88     -0.17
    8    8   29     -0.27     12.26
    8    8   30     -1.41     -0.08
    8    8   31     -0.40     -0.69
    8    8   32     -6.73     -0.15
    8    8   33     -0.29     10.21
    8    8   34     -1.62     -0.06
    8    8   35     -0.40      2.09
    8    8   36     -6.45     -0.10
    8    8   37     -0.14      1.79
    8    9    0     -4.15     -1.36
    8    9    1     -1.09      2.86
    8    9    2      0.42     -0.02
    8    9    3      4.12      0.68
    8    9    4     -3.75     -1.58
    8    9    5      1.34      4.57
    8    9    6      4.79      0.64
    8    9    7      2.53      1.15
    8    9    8     -3.75      1.27
    8    9    9     -0.49      4.10
    8    9   10      1.88      1.01
    8    9   11      1.13      2.69
    8    9   12     -5.63      5.16
    8    9   13     -2.07      2.39
    8    9   14     -1.42     -0.33
    8    9   15      1.65      2.05
    8    9   16     -8.61      6.88
    8    9   17     -1.94      1.19
    8    9   18      1.11     -0.55
    8    9   19      1.29      0.64
    8    9   20     -8.80      4.27
    8    9   21     -1.74      0.38
    8    9   22      0.96      0.91
    8    9   23      2.37     -1.07
    8    9   24     -4.53      0.25
    8    9   25     -1.67     -0.03
    8    9   26      0.02      2.16
    8    9   27      3.19     -5.37
    8    9   28     -1.14      0.91
    8    9   29     -2.02     -0.07
    8    9   30      3.97      3.93
    8    9   31     -0.59     -7.36
    8    9   32     -0.90      4.31
    8    9   33     -2.65     -0.54
    8    9   34      5.87      5.14
    7    9    0     -1.56     -0.21
    7    9    1     -2.06     -1.25
    7    9    2      2.82     -1.36
    7    9    3     -2.58     -5.07
    7    9    4     -1.85      0.30
    7    9    5     -3.96     -0.83
    7    9    6      5.00     -2.59
    7    9    7     -3.41     -4.68
    7    9    8     -0.62     -0.72
    7    9    9     -2.78     -3.47
    7    9   10      6.56     -1.75
    7    9   11     -0.85     -1.30
    7    9   12      0.71     -0.18
    7    9   13     -3.47     -3.78
    7    9   14      7.16     -2.05
    7    9   15      1.77     -0.51
    7    9   16     -2.89      0.40
    7    9   17     -4.10     -2.16
    7    9   18      6.50     -1.93
    7    9   19      2.54     -0.28
    7    9   20     -7.58     -3.74
    7    9   21     -2.91     -0.23
    7    9   22      3.82      0.61
    7    9   23      1.02      0.02
    7    9   24     -6.90     -8.16
    7    9   25     -1.64      3.25
    7    9   26      2.04     -1.15
    7    9   27      1.10     -1.90
    7    9   28     -2.51     -7.99
    7    9   29      1.46      5.65
    7    9   30      2.91     -7.81
    7    9   31      3.78     -2.28
    7    9   32     -0.35     -7.37
    7    9   33      4.84      3.94
    7    9   34      3.19     -8.97
    7    9   35      4.61     -0.20
    7    9   36     -1.72     -6.47
    6    9    0      0.60      0.13
    6    9    1     -0.60     -0.03
    6    9    2      2.94     -0.62
    6    9    3      1.39     -1.30
    6    9    4      0.79      3.17
    6    9    5     -1.36      0.55
    6    9    6      1.56     -0.17
    6    9    7      3.81     -0.71
    6    9    8      1.19      1.81
    6    9    9     -0.62     -1.54
    6    9   10      0.76      3.74
    6    9   11      5.20     -0.79
    6    9   12      1.05     -0.52
    6    9   13      0.87     -0.70
    6    9   14      1.90      6.63
    6    9   15      5.13     -0.79
    6    9   16      0.40      0.00
    6    9   17      0.19      2.21
    6    9   18      4.37      6.74
    6    9   19      3.46     -0.15
    6    9   20      0.17     -0.19
    6    9   21      0.77      1.79
    6    9   22      4.81      7.20
    6    9   23     -0.29     -0.69
    6    9   24     -0.76     -1.23
    6    9   25      2.56      0.83
    6    9   26      0.34      5.80
    6    9   27     -3.20     -0.55
    6    9   28     -2.94      2.69
    6    9   29      0.99      1.65
    6    9   30     -4.89      2.55
    6    9   31     -1.45      0.59
    6    9   32     -3.14      7.28
    6    9   33     -0.75      1.72
    6    9   34     -4.81      2.44
    6    9   35      1.90      0.51
    6    9   36     -0.22      5.03
    6    9   37      0.24      0.92
    6    9   38     -2.15      2.93
    5    9    0     -5.78     -0.37
    5    9    1      2.49      6.71
    5    9    2     -4.78     -0.07
    5    9    3     -1.98      5.51
    5    9    4     -6.46      0.61
    5    9    5      0.27      3.55
    5    9    6     -6.78     -0.12
    5    9    7     -1.01      3.20
    5    9    8     -6.79      0.19
    5    9    9     -1.39      0.57
    5    9   10     -6.38     -0.38
    5    9   11     -0.66      1.65
    5    9   12     -4.10     -4.42
    5    9   13      0.50      0.69
    5    9   14     -4.06     -0.92
    5    9   15      0.53     -0.17
    5    9   16     -0.12     -5.90
    5    9   17      1.69      0.94
    5    9   18     -2.16     -1.00
    5    9   19      1.34      0.49
    5    9   20      2.20     -1.02
    5    9   21     -0.05      1.58
    5    9   22     -0.33      1.00
    5    9   23     -1.54      2.51
    5    9   24      4.68      3.47
    5    9   25     -0.72      0.99
    5    9   26      0.92      3.69
    5    9   27     -5.05      1.50
    5    9   28      6.09      5.03
    5    9   29     -2.70     -3.05
    5    9   30      0.00      3.70
    5    9   31     -4.37     -0.57
    5    9   32      3.44      2.58
    5    9   33     -7.71     -4.78
    5    9   34     -3.13      2.15
    5    9   35     -1.79      0.02
    5    9   36      1.49     -2.39
    5    9   37     -8.13     -3.01
    5    9   38     -5.49      1.76
    5    9   39     -0.55      1.71
    5    9   40      2.22     -3.85
    4    9    0      3.88     -0.06
    4    9    1      1.59     -4.98
    4    9    2      5.59      1.71
    4    9    3     -1.54     -5.90
    4    9    4      5.51      3.38
    4    9    5      2.73     -2.01
    4    9    6      5.08      0.94
    4    9    7     -2.28     -2.99
    4    9    8      5.41      3.17
    4    9    9      1.10     -0.86
    4    9   10      3.24      0.41
    4    9   11     -2.89     -1.78
    4    9   12      2.12      1.49
    4    9   13     -1.56     -0.41
    4    9   14     -0.71      3.11
    4    9   15     -3.64     -2.93
    4    9   16      1.05     -0.35
    4    9   17     -1.75      0.87
    4    9   18     -3.11      1.55
    4    9   19     -2.01     -4.38
    4    9   20      1.03     -1.62
    4    9   21     -0.07      0.42
    4    9   22     -3.59     -4.09
    4    9   23      1.23     -6.05
    4    9   24      0.50     -1.80
    4    9   25      3.56     -0.72
    4    9   26     -4.19     -7.32
    4    9   27      3.84     -5.08
    4    9   28      0.67     -3.71
    4    9   29      6.51      0.96
    4    9   30     -1.25     -5.85
    4    9   31      6.77     -1.20
    4    9   32      1.53     -6.64
    4    9   33      4.40      1.65
    4    9   34      2.25     -1.24
    4    9   35      6.59      0.68
    4    9   36      3.68     -5.86
    4    9   37      0.57     -1.81
    4    9   38     -0.01      1.16
    4    9   39      1.59      0.99
    4    9   40      4.22     -2.02
    4    9   41      0.38     -4.05
    3    9    0      5.26     -0.56
    3    9    1      1.38      2.47
    3    9    2      3.47     -2.85
    3    9    3     -1.45      0.79
    3    9    4      4.36      0.43
    3    9    5      2.38      3.70
    3    9    6      1.34     -3.94
    3    9    7     -0.02      0.50
    3    9    8      1.14      2.97
    3    9    9      2.89      3.13
    3    9   10      2.89     -2.39
    3    9   11      3.19      0.71
    3    9   12     -1.29      2.49
    3    9   13      2.18      1.27
    3    9   14      4.23     -3.22
    3    9   15      2.88      0.01
    3    9   16      0.00      0.95
    3    9   17      0.80      1.43
    3    9   18      2.44     -2.71
    3    9   19      0.21     -2.05
    3    9   20      1.43      3.45
    3    9   21     -0.57      3.61
    3    9   22     -0.46     -1.78
    3    9   23     -1.04     -1.26
    3    9   24      1.19      7.96
    3    9   25     -1.03      6.10
    3    9   26     -2.28     -3.45
    3    9   27     -1.90     -0.04
    3    9   28     -0.47      9.36
    3    9   29     -2.10      6.25
    3    9   30      0.26     -3.13
    3    9   31     -1.76     -1.61
    3    9   32     -1.56      6.03
    3    9   33     -2.57      3.33
    3    9   34      2.33     -1.02
    3    9   35      0.75     -0.34
    3    9   36      2.59      2.95
    3    9   37      0.40      0.75
    3    9   38     -0.59     -2.07
    3    9   39      2.27      2.23
    3    9   40      7.50      3.68
    3    9   41      2.95     -0.04
    3    9   42     -1.53     -3.69
    2    9    0      0.35      0.39
    2    9    1      3.24     -4.33
    2    9    2     -7.41     -0.79
    2    9    3     -0.53     -6.96
    2    9    4      0.03      2.05
    2    9    5      3.05     -2.97
    2    9    6     -4.85     -2.34
    2    9    7      1.50     -8.15
    2    9    8     -1.49      2.39
    2    9    9     -0.63     -1.22
    2    9   10     -1.03     -1.63
    2    9   11      0.74     -3.79
    2    9   12     -2.14      4.47
    2    9   13     -2.71     -1.37
    2    9   14      1.56      2.18
    2    9   15      0.73      0.43
    2    9   16     -0.83      6.45
    2    9   17     -0.74     -0.78
    2    9   18      1.46      4.73
    2    9   19      2.86      0.94
    2    9   20      1.29      5.84
    2    9   21      1.64      0.67
    2    9   22     -0.46      1.76
    2    9   23      2.06      1.09
    2    9   24      4.19      6.60
    2    9   25      0.67      0.89
    2    9   26     -1.77     -4.28
    2    9   27     -1.69      0.54
    2    9   28      2.20      7.65
    2    9   29     -2.08      3.44
    2    9   30     -2.13     -6.34
    2    9   31     -3.10      0.55
    2    9   32     -4.10      4.50
    2    9   33     -3.12      4.51
    2    9   34     -4.50     -3.44
    2    9   35     -3.73      1.69
    2    9   36     -3.51      2.45
    2    9   37     -3.05      1.15
    2    9   38     -8.10     -2.12
    2    9   39     -4.85      0.90
    2    9   40      0.74      5.15
    2    9   41     -2.88      0.83
    2    9   42     -8.49     -3.21
    1    9    0     -2.85      0.39
    1    9    1      3.13      5.42
    1    9    2     -3.85      0.21
    1    9    3     -5.17      4.28
    1    9    4     -2.14      0.58
    1    9    5     -1.67      7.06
    1    9    6     -0.78     -0.91
    1    9    7     -2.07      3.93
    1    9    8     -0.88     -0.16
    1    9    9     -4.50      5.94
    1    9   10     -0.17     -3.73
    1    9   11      2.37      2.61
    1    9   12     -2.53     -3.31
    1    9   13     -3.56      3.39
    1    9   14     -3.35     -5.53
    1    9   15      4.16     -0.37
    1    9   16     -6.18     -8.13
    1    9   17     -2.27      2.82
    1    9   18     -5.72     -5.50
    1    9   19      1.86     -2.82
    1    9   20     -4.87     -9.85
    1    9   21     -1.24      0.07
    1    9   22     -7.06     -5.12
    1    9   23     -0.59     -0.54
    1    9   24     -0.81     -5.40
    1    9   25      1.96     -2.68
    1    9   26     -6.95     -5.47
    1    9   27      1.01      0.44
    1    9   28     -0.43      0.81
    1    9   29      2.81     -2.17
    1    9   30     -2.44     -3.74
    1    9   31      1.01     -2.29
    1    9   32     -0.64      2.54
    1    9   33     -0.24     -3.04
    1    9   34     -0.06     -0.22
    1    9   35     -3.02     -1.58
    1    9   36      0.47      0.82
    1    9   37      0.35     -3.45
    1    9   38     -3.57     -1.15
    1    9   39     -2.74     -0.50
    1    9   40     -0.15     -0.12
    1    9   41      2.66     -1.29
    1    9   42     -4.52     -4.47
    1    9   43      0.75     -1.96
    0    9    1      5.29     -4.55
    0    9    2      6.54     -0.44
    0    9    3     -3.08     -3.87
    0    9    4      0.07     -2.23
    0    9    5      5.48     -5.20
    0    9    6      4.16     -0.43
    0    9    7     -0.72     -1.39
    0    9    8      0.18     -0.13
    0    9    9      3.75     -3.96
    0    9   10      3.60     -0.19
    0    9   11      1.01      0.95
    0    9   12      0.70      2.61
    0    9   13     -0.43     -0.03
    0    9   14      8.40     -0.08
    0    9   15     -0.08      0.12
    0    9   16      1.36      3.10
    0    9   17     -4.32      4.08
    0    9   18     10.48      0.26
    0    9   19     -0.42     -0.87
    0    9   20      1.29      1.85
    0    9   21     -2.61      2.55
    0    9   22      6.07      0.98
    0    9   23      0.62      0.05
    0    9   24      0.49      0.79
    0    9   25      0.91     -1.08
    0    9   26      5.68      1.39
    0    9   27      0.10      0.23
    0    9   28     -0.13      1.72
    0    9   29      1.05     -0.88
    0    9   30      9.00      1.24
    0    9   31      2.29      2.47
    0    9   32     -0.61      2.07
    0    9   33      3.08     -2.42
    0    9   34      7.58      0.97
    0    9   35      5.45      5.33
    0    9   36     -1.27      1.70
    0    9   37      4.82     -4.62
    0    9   38      5.76      0.65
    0    9   39      3.03      3.16
    0    9   40     -1.36      3.33
    0    9   41      0.42     -0.96
    0    9   42      7.02      0.25
    0    9   43      0.31      0.64
    9    9    0      6.26     -1.39
    9    9    1      2.05     -0.36
    9    9    2      3.56      2.58
    9    9    3     -0.43      1.98
    9    9    4      1.47     -1.30
    9    9    5      0.93     -0.50
    9    9    6      0.86      1.55
    9    9    7      0.15      2.67
    9    9    8     -0.91     -1.17
    9    9    9      0.39     -0.47
    9    9   10      0.98      0.41
    9    9   11      0.45      1.45
    9    9   12      4.18     -0.78
    9    9   13      0.06     -1.87
    9    9   14      1.76     -0.15
    9    9   15      0.17      1.58
    9    9   16      4.56     -0.52
    9    9   17     -0.15     -0.01
    9    9   18      0.85     -0.29
    9    9   19      0.05      0.06
    9    9   20      2.98     -0.46
    9    9   21     -0.10      1.74
    9    9   22     -0.68     -0.23
    9    9   23     -0.07     -0.73
    9    9   24      5.11     -0.33
    9    9   25     -0.11      0.83
    9    9   26     -2.12     -0.07
    9    9   27     -0.23      1.80
    9    9   28      2.13     -0.18
    9    9   29     -0.22      1.46
    9    9   30     -1.90      0.01
    9    9   31     -0.22      1.89
    9   10    0     -0.65     -0.62
    9   10    1      1.76      1.00
    9   10    2      0.43      5.04
    9   10    3      0.70      3.18
    9   10    4      2.46     -3.17
    9   10    5      5.39     -3.97
    9   10    6      3.24      9.53
    9   10    7      2.48      1.06
    9   10    8      4.94     -0.41
    9   10    9      6.13     -2.51
    9   10   10      1.15     10.38
    9   10   11      2.96      0.40
    9   10   12      4.70      1.46
    9   10   13      6.73     -0.66
    9   10   14     -5.00      6.51
    9   10   15      3.60     -0.14
    9   10   16      7.07      0.70
    9   10   17      5.61     -1.12
    9   10   18     -8.91      1.72
    9   10   19      1.57     -3.30
    9   10   20      7.76      0.45
    9   10   21      2.63     -0.54
    9   10   22    -10.40     -1.85
    9   10   23      0.36     -2.17
    9   10   24      4.09     -0.37
    9   10   25      1.21     -1.43
    9   10   26     -9.15     -2.22
    9   10   27      2.16      1.99
    9   10   28      0.78     -1.17
    8   10    0     -4.04     -1.74
    8   10    1     -9.33     -0.40
    8   10    2     -0.12      3.83
    8   10    3      1.78      0.76
    8   10    4     -5.64     -5.32
    8   10    5    -10.27     -1.51
    8   10    6     -1.36      4.23
    8   10    7     -1.21     -0.49
    8   10    8     -6.05     -7.64
    8   10    9     -4.13     -1.41
    8   10   10     -0.58      0.61
    8   10   11     -0.57     -2.76
    8   10   12     -1.78     -5.43
    8   10   13     -1.45     -2.73
    8   10   14      1.81     -1.75
    8   10   15     -1.39     -3.51
    8   10   16      1.94     -0.63
    8   10   17     -0.33     -1.03
    8   10   18      2.45     -2.60
    8   10   19     -1.07     -3.65
    8   10   20      3.70      2.23
    8   10   21      1.06      2.66
    8   10   22      1.00     -1.35
    8   10   23      0.74     -1.99
    8   10   24      4.84      1.77
    8   10   25     -1.62      2.14
    8   10   26      1.36      0.46
    8   10   27      1.04     -0.01
    8   10   28      3.39     -2.15
    8   10   29     -2.79      0.05
    8   10   30      3.45     -0.65
    8   10   31      0.27      0.16
    7   10    0      1.35     -0.31
    7   10    1     -5.92     -1.98
    7   10    2      5.75      2.25
    7   10    3     11.31     -0.60
    7   10    4     -1.32      1.80
    7   10    5     -0.10     -2.77
    7   10    6      4.77      2.78
    7   10    7      8.18     -0.28
    7   10    8     -4.36      1.51
    7   10    9      0.05     -2.04
    7   10   10      2.22      0.52
    7   10   11      3.80      0.93
    7   10   12     -5.02      0.77
    7   10   13      0.21      0.02
    7   10   14      1.77     -2.54
    7   10   15      3.23      2.90
    7   10   16     -5.79      1.56
    7   10   17      1.92      2.87
    7   10   18      4.19     -2.75
    7   10   19      1.56      0.86
    7   10   20     -4.24      0.99
    7   10   21      2.03      4.29
    7   10   22      5.04      1.28
    7   10   23      0.07     -2.38
    7   10   24     -2.30     -0.15
    7   10   25      0.27      4.46
    7   10   26      3.00      5.49
    7   10   27      0.39     -1.07
    7   10   28     -5.13      2.12
    7   10   29      0.01      3.99
    7   10   30     -0.14      6.50
    7   10   31     -0.93      1.44
    7   10   32     -6.98      3.99
    7   10   33      1.89      1.67
    6   10    0     -2.09     -0.54
    6   10    1     -5.14      2.97
    6   10    2     -3.14     -2.84
    6   10    3      2.75      4.27
    6   10    4     -3.13      0.03
    6   10    5     -6.50      4.64
    6   10    6     -0.19     -3.37
    6   10    7      2.33      7.48
    6   10    8     -3.44      1.16
    6   10    9     -6.34      4.82
    6   10   10     -0.26     -0.38
    6   10   11      0.99      5.99
    6   10   12     -2.31      0.01
    6   10   13     -5.62      1.96
    6   10   14      0.29     -0.31
    6   10   15     -1.43      0.49
    6   10   16     -3.59     -0.88
    6   10   17     -3.37     -0.36
    6   10   18      3.23     -0.94
    6   10   19     -3.03     -2.90
    6   10   20     -4.83     -1.39
    6   10   21      0.87      0.69
    6   10   22      4.42      2.17
    6   10   23     -2.71     -4.58
    6   10   24     -3.01     -3.69
    6   10   25      4.03      0.42
    6   10   26      5.52      3.50
    6   10   27     -1.39     -5.20
    6   10   28     -0.66     -3.34
    6   10   29      3.39     -3.43
    6   10   30      6.90      0.12
    6   10   31     -2.91     -3.15
    6   10   32      1.10     -0.40
    6   10   33      0.24     -4.28
    6   10   34      5.31     -2.06
    6   10   35     -5.35     -1.65
    5   10    0      1.95      0.60
    5   10    1      0.73     -5.37
    5   10    2      2.22     -0.48
    5   10    3      3.10     -6.45
    5   10    4      2.08      2.08
    5   10    5      0.82     -6.53
    5   10    6      6.38     -2.48
    5   10    7      5.60     -5.01
    5   10    8      1.98      0.95
    5   10    9     -1.30     -7.32
    5   10   10      5.80     -1.21
    5   10   11      4.13     -1.83
    5   10   12      0.99      0.52
    5   10   13     -1.19     -3.17
    5   10   14      1.76      1.64
    5   10   15      0.18     -0.72
    5   10   16     -1.08      1.83
    5   10   17      0.19     -1.54
    5   10   18      0.41     -0.22
    5   10   19     -2.86     -0.09
    5   10   20     -3.27      0.55
    5   10   21      0.31     -2.65
    5   10   22     -0.87     -2.01
    5   10   23     -4.03      0.85
    5   10   24     -4.11     -4.07
    5   10   25      0.36     -0.97
    5   10   26     -2.39     -1.20
    5   10   27     -3.77      4.50
    5   10   28     -2.40     -6.87
    5   10   29      1.37     -0.09
    5   10   30      0.11     -1.90
    5   10   31     -0.71      8.25
    5   10   32     -0.26     -4.98
    5   10   33      1.86     -0.85
    5   10   34      2.37     -1.17
    5   10   35      2.85      5.45
    5   10   36     -0.37     -1.46
    5   10   37      0.66      0.15
    4   10    0      1.13     -0.48
    4   10    1      0.45      0.90
    4   10    2      0.80     -1.52
    4   10    3     -3.77     -1.02
    4   10    4     -0.28     -1.16
    4   10    5     -1.84      2.29
    4   10    6     -0.11     -1.16
    4   10    7     -1.75      1.30
    4   10    8     -2.42     -0.87
    4   10    9      0.11     -0.42
    4   10   10      1.53      1.99
    4   10   11      1.49      1.82
    4   10   12     -1.29     -3.15
    4   10   13      2.20      0.23
    4   10   14      1.46      2.91
    4   10   15     -0.01      0.50
    4   10   16      1.43     -4.67
    4   10   17      3.31      2.58
    4   10   18     -0.06      2.39
    4   10   19     -0.54      1.88
    4   10   20      1.01     -3.35
    4   10   21      3.76      2.34
    4   10   22      1.08      2.83
    4   10   23      1.91      3.54
    4   10   24      0.31     -3.23
    4   10   25      3.02      1.03
    4   10   26      0.55      4.96
    4   10   27      1.58      3.78
    4   10   28     -1.06     -3.17
    4   10   29      1.26     -1.90
    4   10   30     -1.73      7.82
    4   10   31      0.44      2.85
    4   10   32     -5.72     -1.89
    4   10   33     -0.57     -2.96
    4   10   34     -0.11      7.20
    4   10   35      2.36      1.70
    4   10   36     -6.94     -1.51
    4   10   37     -1.16     -0.15
    4   10   38      2.13      3.28
    3   10    0     -6.46      0.16
    3   10    1      0.76      3.09
    3   10    2     -6.64      0.02
    3   10    3      1.16     -0.13
    3   10    4     -4.94      0.95
    3   10    5      1.52      2.45
    3   10    6     -5.10     -0.68
    3   10    7      0.17     -1.37
    3   10    8     -4.53     -2.75
    3   10    9     -0.47      1.28
    3   10   10      0.59      0.70
    3   10   11     -0.84      0.11
    3   10   12     -4.35     -4.65
    3   10   13      0.49      1.64
    3   10   14      2.54      3.28
    3   10   15      0.51     -1.71
    3   10   16     -1.38     -2.59
    3   10   17      3.39      2.41
    3   10   18      0.65      3.58
    3   10   19      0.89     -4.66
    3   10   20     -0.95     -0.88
    3   10   21      1.94      2.53
    3   10   22      1.44      3.00
    3   10   23     -0.59     -4.37
    3   10   24     -1.09      0.74
    3   10   25     -1.59     -0.06
    3   10   26      2.95      3.59
    3   10   27     -1.90     -1.87
    3   10   28      0.80      1.61
    3   10   29     -2.89     -1.17
    3   10   30      4.32      3.02
    3   10   31     -2.67      0.23
    3   10   32     -1.22     -0.32
    3   10   33     -4.69      0.97
    3   10   34      4.51      0.88
    3   10   35     -2.39      0.07
    3   10   36     -3.96     -0.96
    3   10   37     -6.71     -0.14
    3   10   38      0.86     -0.64
    3   10   39     -0.91     -0.35
    2   10    0      2.17     -0.14
    2   10    1      1.47      0.87
    2   10    2     -1.63     -1.37
    2   10    3     -1.70      0.15
    2   10    4      2.32      0.81
    2   10    5     -0.39      2.81
    2   10    6     -0.04     -2.42
    2   10    7     -0.36     -0.56
    2   10    8      0.08     -1.58
    2   10    9     -1.02      1.82
    2   10   10      0.84     -2.35
    2   10   11     -0.55     -0.31
    2   10   12     -3.02     -5.17
    2   10   13     -1.25      0.07
    2   10   14     -2.10     -3.33
    2   10   15     -3.17      1.23
    2   10   16     -2.49     -6.12
    2   10   17     -2.61      2.74
    2   10   18     -2.90     -4.69
    2   10   19     -5.11     -1.22
    2   10   20     -0.39     -4.91
    2   10   21     -3.39      3.21
    2   10   22     -0.21     -5.70
    2   10   23     -3.00     -2.78
    2   10   24      1.59     -4.10
    2   10   25     -1.03     -1.05
    2   10   26      0.29     -7.46
    2   10   27      1.92     -0.93
    2   10   28      2.36     -2.58
    2   10   29      3.31     -2.74
    2   10   30      2.33     -5.37
    2   10   31      5.56     -2.70
    2   10   32      1.54      0.83
    2   10   33      4.81     -1.06
    2   10   34      5.13      0.63
    2   10   35      7.43     -3.87
    2   10   36      2.34      2.57
    2   10   37      2.44      0.01
    2   10   38      2.46      1.13
    2   10   39      7.20     -0.56
    2   10   40      3.59      1.50
    1   10    0      6.59      0.02
    1   10    1      4.23     -0.78
    1   10    2      5.13      0.03
    1   10    3     -2.88     -1.54
    1   10    4      3.98      2.44
    1   10    5      1.40     -0.62
    1   10    6      3.54      1.66
    1   10    7      1.00     -0.59
    1   10    8      1.19      4.00
    1   10    9     -0.87     -1.41
    1   10   10      1.67      4.28
    1   10   11      3.66      0.65
    1   10   12      5.11      2.86
    1   10   13     -1.74     -2.83
    1   10   14      2.07      6.02
    1   10   15      2.60     -3.10
    1   10   16     10.68      1.76
    1   10   17     -1.91      1.18
    1   10   18      2.38      6.62
    1   10   19      1.18     -6.61
    1   10   20      9.66      1.26
    1   10   21     -0.83      5.74
    1   10   22     -1.96      6.54
    1   10   23      1.18     -2.68
    1   10   24      6.26      1.81
    1   10   25     -0.60      2.09
    1   10   26     -5.13      4.85
    1   10   27     -0.73     -0.56
    1   10   28      3.58      3.49
    1   10   29     -1.15     -1.00
    1   10   30     -2.14      0.80
    1   10   31     -2.54     -3.85
    1   10   32      0.22      0.04
    1   10   33      0.13      1.91
    1   10   34     -0.78     -2.41
    1   10   35     -0.84     -3.65
    1   10   36      0.74     -4.14
    1   10   37      0.79      2.74
    1   10   38     -2.06     -1.43
    1   10   39     -0.15     -0.86
    1   10   40      3.77     -0.70
    0   10    0     -7.87      0.10
    0   10    1      3.31      4.65
    0   10    2      0.02     -0.69
    0   10    3     -3.51      2.80
    0   10    4     -6.73      0.14
    0   10    5      1.21      2.56
    0   10    6     -0.15     -1.58
    0   10    7     -2.71      2.40
    0   10    8     -3.48     -0.11
    0   10    9     -3.24     -2.26
    0   10   10     -0.96      0.26
    0   10   11     -2.55      2.69
    0   10   12     -2.19     -0.13
    0   10   13     -3.49     -3.20
    0   10   14     -2.71      2.93
    0   10   15      1.77     -1.25
    0   10   16     -4.58      0.07
    0   10   17      1.54      1.29
    0   10   18     -3.73      3.71
    0   10   19      7.68     -7.20
    0   10   20     -2.27     -0.42
    0   10   21      2.69      2.26
    0   10   22     -2.56      4.77
    0   10   23      6.51     -5.69
    0   10   24      3.32     -1.39
    0   10   25      0.83      0.68
    0   10   26     -0.70      2.37
    0   10   27      1.48      0.59
    0   10   28      0.65     -1.56
    0   10   29      2.91      3.35
    0   10   30      0.84     -1.61
    0   10   31     -0.46      3.33
    0   10   32     -3.38     -0.87
    0   10   33      3.55      4.05
    0   10   34      2.66      0.41
    0   10   35     -0.62      2.94
    0   10   36      0.48     -0.29
    0   10   37      0.56      0.60
    0   10   38      3.62      1.48
    0   10   39     -0.33      1.68
    0   10   40      1.63     -0.12
   10   10    0      1.50     -2.15
   10   10    1      2.55     -7.85
   10   10    2     -1.14     -5.78
   10   10    3      2.77     -3.17
   10   10    4      1.85     -1.73
   10   10    5      0.60     -4.25
   10   10    6     -6.19     -4.90
   10   10    7      2.36     -0.79
   10   10    8      2.95     -1.35
   10   10    9     -0.59      1.75
   10   10   10     -6.72     -3.06
   10   10   11      1.12     -3.43
   10   10   12      5.58     -0.70
   10   10   13     -0.70      4.08
   10   10   14     -8.67     -1.34
   10   10   15      0.02     -0.21
   10   10   16      9.34     -0.22
   10   10   17     -0.29      6.04
   10   10   18    -12.23     -0.53
   10   10   19     -0.09      4.87
   10   10   20     11.02     -0.10
   10   10   21     -0.07      5.57
   10   10   22     -8.11     -0.17
   10   10   23      0.06      4.13
   10   10   24      9.78      0.01
   10   11    0     10.77      8.63
   10   11    1      5.81      3.49
   10   11    2      0.82     -2.82
   10   11    3     -3.24      1.19
   10   11    4     12.78      7.56
   10   11    5      5.89      0.99
   10   11    6     -3.69     -3.64
   10   11    7      1.98     -4.81
   10   11    8     11.94      7.95
   10   11    9      5.31      2.32
   10   11   10     -4.70     -2.61
   10   11   11      3.50     -7.02
   10   11   12      6.48      5.83
   10   11   13      5.63      4.72
   10   11   14     -3.95     -2.94
   10   11   15      2.48     -5.92
   10   11   16      4.09      1.83
   10   11   17      4.16      0.52
   10   11   18     -5.15     -2.18
   10   11   19      0.92     -3.14
    9   11    0     -5.16      0.73
    9   11    1     10.01      2.79
    9   11    2     -9.38      2.77
    9   11    3    -14.50      4.25
    9   11    4     -3.82      0.69
    9   11    5      3.95      4.10
    9   11    6    -10.87      2.67
    9   11    7    -11.64      4.41
    9   11    8     -2.36     -2.03
    9   11    9      2.01      5.48
    9   11   10     -8.18     -2.99
    9   11   11     -8.04     -0.76
    9   11   12     -0.92     -1.84
    9   11   13      0.85      2.88
    9   11   14     -5.56     -3.08
    9   11   15     -5.29     -4.47
    9   11   16      3.62      0.02
    9   11   17      0.09     -0.05
    9   11   18     -5.01     -0.76
    9   11   19     -1.77     -3.25
    9   11   20      7.10      0.58
    9   11   21      1.34     -1.84
    9   11   22     -2.36     -0.25
    9   11   23     -0.79     -0.31
    8   11    0      3.45     -1.40
    8   11    1      2.56     -1.86
    8   11    2      4.23     -0.57
    8   11    3      4.06     -2.10
    8   11    4      3.68     -9.03
    8   11    5      5.45     -0.88
    8   11    6      0.28      1.25
    8   11    7      0.58     -3.26
    8   11    8      3.00     -6.59
    8   11    9      2.32      3.21
    8   11   10     -0.12      3.16
    8   11   11     -5.01     -2.01
    8   11   12      1.10     -2.48
    8   11   13     -0.23      7.08
    8   11   14     -0.12      1.57
    8   11   15     -3.85      1.81
    8   11   16      0.72     -1.72
    8   11   17     -1.36      8.49
    8   11   18     -3.38     -0.23
    8   11   19     -2.02      1.74
    8   11   20      1.89     -0.19
    8   11   21     -1.95      4.87
    8   11   22     -5.22     -0.52
    8   11   23     -2.01      0.85
    8   11   24      1.86      1.35
    8   11   25     -0.59     -0.49
    8   11   26     -4.30      0.14
    8   11   27     -1.01      2.38
    7   11    0     -7.63      0.06
    7   11    1     -7.85      0.80
    7   11    2      1.31      2.14
    7   11    3      2.69      3.44
    7   11    4     -2.81     -1.03
    7   11    5     -7.57      1.50
    7   11    6      5.72      3.09
    7   11    7      1.40      2.34
    7   11    8      2.90     -1.14
    7   11    9     -1.06      5.68
    7   11   10      5.41      2.54
    7   11   11      0.62     -1.56
    7   11   12      1.54     -0.80
    7   11   13      0.84      3.78
    7   11   14      2.56      2.79
    7   11   15     -2.07     -4.74
    7   11   16     -0.70     -0.06
    7   11   17     -1.85      0.41
    7   11   18      0.64      2.15
    7   11   19     -4.05     -6.16
    7   11   20      0.61     -0.25
    7   11   21     -1.22      1.63
    7   11   22     -1.67     -0.69
    7   11   23     -3.59     -4.11
    7   11   24      0.90     -2.23
    7   11   25      1.47      1.42
    7   11   26     -0.93     -3.47
    7   11   27     -2.13     -1.78
    7   11   28     -0.46     -3.25
    7   11   29      2.73     -0.15
    7   11   30      2.48     -2.93
    6   11    0      2.11      0.39
    6   11    1     -4.36     -2.49
    6   11    2      1.16     -0.16
    6   11    3      4.73     -1.98
    6   11    4     -2.77     -1.30
    6   11    5     -2.94     -8.02
    6   11    6     -0.22     -0.98
    6   11    7      2.81     -7.65
    6   11    8     -5.37     -1.82
    6   11    9     -0.70     -7.41
    6   11   10     -1.50      0.14
    6   11   11      1.84     -9.74
    6   11   12     -0.49     -2.30
    6   11   13      2.38     -2.00
    6   11   14     -0.52      2.03
    6   11   15      2.52     -5.99
    6   11   16      0.48     -2.79
    6   11   17      5.05      1.43
    6   11   18     -0.63      0.87
    6   11   19      0.96     -4.09
    6   11   20     -1.05     -2.63
    6   11   21      6.08      3.29
    6   11   22     -3.07      0.49
    6   11   23     -3.04     -4.01
    6   11   24     -1.35     -2.09
    6   11   25      4.01      3.99
    6   11   26     -1.38      1.85
    6   11   27     -5.84     -2.05
    6   11   28     -2.91     -1.10
    6   11   29      1.50      2.09
    6   11   30      2.63      0.64
    6   11   31     -5.23     -0.90
    6   11   32     -2.98      0.02
    5   11    0      0.92     -0.01
    5   11    1     -4.41      0.30
    5   11    2     -2.31      0.21
    5   11    3      1.81      2.93
    5   11    4     -1.74      3.95
    5   11    5     -5.20      2.29
    5   11    6      2.56     -0.10
    5   11    7      1.06      6.95
    5   11    8     -3.43      2.23
    5   11    9     -3.22      3.94
    5   11   10      1.96     -1.50
    5   11   11      1.67      4.13
    5   11   12     -0.52     -1.81
    5   11   13     -1.13      5.21
    5   11   14      0.20     -1.45
    5   11   15      0.07      1.32
    5   11   16      0.97     -0.43
    5   11   17      1.58      4.27
    5   11   18      1.55     -1.46
    5   11   19     -1.64      2.92
    5   11   20      1.86      2.70
    5   11   21      4.38      1.50
    5   11   22      1.98     -0.81
    5   11   23     -1.47      1.66
    5   11   24      3.46      1.11
    5   11   25      5.99      0.15
    5   11   26      1.68      2.69
    5   11   27     -0.83      0.76
    5   11   28      0.66     -0.71
    5   11   29      6.69     -1.33
    5   11   30      0.42      4.81
    5   11   31      0.01      3.77
    5   11   32     -2.66     -0.64
    5   11   33      5.29     -1.96
    5   11   34     -1.26      2.03
    4   11    0      0.91     -0.13
    4   11    1     -0.60      6.38
    4   11    2     -5.06     -2.92
    4   11    3      4.25      6.30
    4   11    4     -2.19     -1.59
    4   11    5      2.29      2.97
    4   11    6     -2.94     -4.41
    4   11    7      1.87      7.24
    4   11    8     -5.38     -2.80
    4   11    9     -0.85      0.29
    4   11   10     -0.36     -0.79
    4   11   11     -1.84      4.11
    4   11   12     -3.11     -3.41
    4   11   13     -1.96      1.73
    4   11   14      0.35      1.38
    4   11   15     -2.73     -1.35
    4   11   16      0.05     -2.28
    4   11   17      0.01     -0.43
    4   11   18      1.41      1.58
    4   11   19     -4.00      1.04
    4   11   20     -0.08      0.05
    4   11   21     -1.15     -3.60
    4   11   22      3.19      3.87
    4   11   23     -4.93      4.00
    4   11   24     -1.11     -0.63
    4   11   25     -1.85     -4.04
    4   11   26      2.94      7.11
    4   11   27     -4.04      2.46
    4   11   28     -0.18     -5.41
    4   11   29      0.33     -6.24
    4   11   30      2.94      7.71
    4   11   31     -3.82      2.65
    4   11   32      0.40     -7.56
    4   11   33     -0.13     -6.88
    4   11   34      3.71      5.71
    4   11   35     -3.35      1.48
    3   11    1     -1.50     -5.49
    3   11    2      2.34      1.71
    3   11    3     -1.26     -5.15
    3   11    4      9.75      4.41
    3   11    5     -1.09     -5.24
    3   11    6      5.36      5.75
    3   11    7     -3.02     -3.75
    3   11    8      6.67      2.83
    3   11    9      1.34     -5.31
    3   11   10      6.32      8.82
    3   11   11     -2.97     -5.42
    3   11   12     -1.19     -0.47
    3   11   13      0.29     -1.40
    3   11   14      2.93      7.59
    3   11   15     -3.08     -6.18
    3   11   16     -3.59     -2.35
    3   11   17     -1.48      0.22
    3   11   18      2.19      3.47
    3   11   19     -2.35     -4.70
    3   11   20     -5.45     -4.20
    3   11   21      0.16     -3.64
    3   11   22      5.51      0.81
    3   11   23     -0.73     -3.86
    3   11   24     -8.10     -7.18
    3   11   25      1.58     -5.19
    3   11   26      5.33      1.09
    3   11   27     -0.60     -0.75
    3   11   28     -4.98    -10.15
    3   11   29      2.47     -4.80
    3   11   30      3.76      2.99
    3   11   31     -0.37      2.28
    3   11   32     -1.21     -8.56
    3   11   33      4.68     -4.66
    3   11   34      5.26      3.56
    3   11   35      1.78      1.90
    3   11   36     -0.66     -3.15
    2   11    0      4.22      0.20
    2   11    1     -0.30      3.61
    2   11    2     -0.36     -1.15
    2   11    3     -2.09      4.86
    2   11    4      2.49     -0.61
    2   11    5     -0.24      3.09
    2   11    6     -2.70      0.01
    2   11    7     -3.77      4.42
    2   11    8     -1.30     -1.11
    2   11    9      2.30      5.13
    2   11   10      0.62      3.73
    2   11   11     -3.21      2.66
    2   11   12     -1.41     -1.49
    2   11   13      3.21      4.23
    2   11   14      3.47      4.91
    2   11   15     -0.88      0.06
    2   11   16      0.79      0.92
    2   11   17      3.21      1.64
    2   11   18      3.67      4.11
    2   11   19     -0.15      0.87
    2   11   20     -3.02      3.55
    2   11   21      4.39      3.34
    2   11   22      4.79      3.76
    2   11   23     -0.18      5.34
    2   11   24     -7.48      2.46
    2   11   25      2.89      3.32
    2   11   26      1.47      5.60
    2   11   27     -0.03      6.94
    2   11   28     -6.90      0.22
    2   11   29     -1.31     -0.48
    2   11   30     -3.84      5.82
    2   11   31     -2.06      4.56
    2   11   32     -7.00     -2.28
    2   11   33     -4.07     -0.85
    2   11   34     -2.98      1.20
    2   11   35     -2.70      2.69
    2   11   36     -6.25     -4.02
    2   11   37     -4.73     -0.02
    1   11    0     -4.45     -0.06
    1   11    1      1.43     -4.24
    1   11    2     -5.60     -0.19
    1   11    3      0.14     -1.65
    1   11    4     -2.98     -1.73
    1   11    5      2.93     -6.11
    1   11    6     -1.72     -0.40
    1   11    7     -0.23     -1.38
    1   11    8     -0.70     -2.91
    1   11    9      1.33     -5.89
    1   11   10     -0.86      2.40
    1   11   11     -0.20     -1.11
    1   11   12      1.20     -2.36
    1   11   13     -1.33     -3.86
    1   11   14     -7.39      4.58
    1   11   15      2.80     -0.94
    1   11   16      1.43     -2.19
    1   11   17      0.54      0.21
    1   11   18    -11.27      2.36
    1   11   19      3.85     -4.94
    1   11   20     -0.18     -3.31
    1   11   21      3.62      0.89
    1   11   22     -6.52      3.94
    1   11   23      2.58     -6.75
    1   11   24      1.72     -4.55
    1   11   25      1.73     -1.02
    1   11   26     -1.62      6.95
    1   11   27      3.60     -1.75
    1   11   28      5.26     -5.11
    1   11   29      0.27      2.56
    1   11   30      0.91      3.78
    1   11   31      4.42      0.47
    1   11   32      3.58     -2.69
    1   11   33      1.20      5.90
    1   11   34      2.75      1.56
    1   11   35      2.80     -2.62
    1   11   36     -0.07      0.41
    1   11   37      0.01      1.95
    0   11    1      0.72      0.17
    0   11    2      4.87      0.24
    0   11    3      1.21      0.27
    0   11    4      0.08     -0.24
    0   11    5      2.42     -1.65
    0   11    6      2.98      0.25
    0   11    7      2.98      2.02
    0   11    8      0.42     -3.89
    0   11    9      3.58     -2.93
    0   11   10     -1.18      0.07
    0   11   11      6.81      6.04
    0   11   12      1.34    -10.04
    0   11   13      0.28     -0.13
    0   11   14     -4.59     -0.08
    0   11   15      6.17      6.03
    0   11   16      2.99     -9.69
    0   11   17     -8.04      7.37
    0   11   18     -3.87      0.33
    0   11   19     -0.79      0.16
    0   11   20      3.46     -8.81
    0   11   21    -13.28     11.67
    0   11   22     -3.59      0.90
    0   11   23     -3.59     -2.34
    0   11   24      1.81    -13.74
    0   11   25    -11.42      8.02
    0   11   26     -5.54      1.05
    0   11   27     -3.22     -2.95
    0   11   28     -0.45    -10.11
    0   11   29     -8.21      2.65
    0   11   30     -3.76      1.13
    0   11   31     -6.27     -6.51
    0   11   32     -2.14      0.67
    0   11   33     -6.89      1.32
    0   11   34     -0.87      1.10
    0   11   35     -5.55     -5.24
    0   11   36     -2.77      2.67
    0   11   37     -4.78      1.64
    0   11   38     -1.18      0.48
    3   11    0      7.91      0.04
   11   11    0     -0.42      0.12
   11   11    1      0.41     -7.73
   11   11    2    -14.96    -11.18
   11   11    3      0.69     -9.40
   11   11    4      3.76      0.27
   11   11    5      0.42     -1.65
   11   11    6    -14.02     -8.65
   11   11    7      0.35     -6.12
   11   11    8      7.99      0.22
   11   11    9      0.51      1.01
   11   11   10     -7.57     -4.35
   11   11   11      0.19     -4.84
   10   12    0     -1.81      2.54
   10   12    1      3.40      5.50
   10   12    2     -2.68     -1.80
   10   12    3     -1.53      6.05
   10   12    4      1.36      6.91
   10   12    5      1.29      5.71
   10   12    6     -4.56     -2.55
   10   12    7      0.35      5.96
   10   12    8      4.40      4.03
   10   12    9     -1.28      3.60
   10   12   10     -3.82     -3.82
    9   12    0     -0.01     -1.72
    9   12    1     12.23     -2.86
    9   12    2      0.82     -6.24
    9   12    3    -10.39     -1.16
    9   12    4      0.88     -5.23
    9   12    5      6.64     -3.32
    9   12    6     -1.94     -7.57
    9   12    7     -6.84      1.88
    9   12    8      1.82     -0.29
    9   12    9      2.24     -2.38
    9   12   10     -0.16     -4.19
    9   12   11     -5.31      3.63
    9   12   12      1.69      4.91
    9   12   13      2.27      1.48
    9   12   14      3.07     -3.40
    9   12   15     -4.37      3.90
    9   12   16      1.63      4.08
    9   12   17      2.06      3.67
    9   12   18      3.42     -1.51
    8   12    0      1.27      1.65
    8   12    1      6.07     -3.56
    8   12    2      0.40      5.17
    8   12    3     -4.43     -5.36
    8   12    4      5.95      6.25
    8   12    5      5.81     -5.79
    8   12    6      0.64      6.25
    8   12    7      0.03     -6.82
    8   12    8      8.12      4.37
    8   12    9      7.66     -7.49
    8   12   10      1.50      0.83
    8   12   11      0.76     -4.12
    8   12   12      0.63      2.52
    8   12   13      7.85     -7.19
    8   12   14      0.86     -1.39
    8   12   15      0.33     -2.58
    8   12   16     -4.51      2.37
    8   12   17      3.80     -4.95
    8   12   18     -0.56      0.43
    8   12   19      1.77     -1.70
    8   12   20     -3.85      0.07
    8   12   21      0.70     -1.17
    8   12   22     -0.40      0.84
    7   12    0     -0.10     -0.22
    7   12    1     -2.26      1.98
    7   12    2      1.00     -1.71
    7   12    3     -1.05      3.99
    7   12    4     -2.27     -2.57
    7   12    5     -7.88      3.37
    7   12    6     -7.87     -2.76
    7   12    7     -2.45      2.10
    7   12    8     -3.89     -1.04
    7   12    9     -7.00      3.26
    7   12   10     -6.17     -2.23
    7   12   11     -4.06     -1.68
    7   12   12     -2.38      0.21
    7   12   13     -1.38     -1.54
    7   12   14      3.23     -0.93
    7   12   15     -2.24     -1.92
    7   12   16     -1.12     -1.83
    7   12   17      0.67     -2.62
    7   12   18      5.15     -0.10
    7   12   19      1.30     -2.32
    7   12   20     -0.47     -2.63
    7   12   21     -0.12     -0.75
    7   12   22      1.77      0.82
    7   12   23      1.74     -2.22
    7   12   24      0.34      0.49
    7   12   25     -1.07     -1.47
    6   12    0      0.22      0.34
    6   12    1      2.56      3.07
    6   12    2     -2.89      2.16
    6   12    3      5.41      5.00
    6   12    4      2.00     -0.27
    6   12    5      6.42      3.85
    6   12    6      1.64      2.64
    6   12    7      7.67      3.86
    6   12    8      3.42      0.64
    6   12    9      4.82      8.85
    6   12   10     -0.05     -0.97
    6   12   11      3.83      3.76
    6   12   12      0.43     -0.32
    6   12   13      3.35      9.74
    6   12   14     -1.70     -0.20
    6   12   15      1.87      6.21
    6   12   16     -2.13     -1.19
    6   12   17      3.09      7.43
    6   12   18      0.11      2.96
    6   12   19      1.96      3.88
    6   12   20      1.13      0.16
    6   12   21      2.62      5.31
    6   12   22     -0.33      3.26
    6   12   23      1.83     -0.64
    6   12   24      4.26      1.12
    6   12   25      2.24      2.02
    6   12   26     -0.36      1.57
    6   12   27      2.82     -1.06
    6   12   28      1.78      2.17
    5   12    0      6.53      0.34
    5   12    1     -2.71      0.00
    5   12    2     -1.37     -1.40
    5   12    3     -2.94      1.23
    5   12    4      2.90     -1.24
    5   12    5     -5.62     -0.03
    5   12    6      1.17     -1.23
    5   12    7     -5.07      1.19
    5   12    8      1.37      4.25
    5   12    9     -6.85      0.65
    5   12   10      0.04      1.46
    5   12   11     -3.90     -2.71
    5   12   12      3.64      7.85
    5   12   13     -7.95     -2.03
    5   12   14     -1.09      1.94
    5   12   15     -4.04     -5.67
    5   12   16      2.06      5.96
    5   12   17     -7.37     -5.36
    5   12   18     -0.57     -0.60
    5   12   19     -4.79     -3.75
    5   12   20      2.67      4.30
    5   12   21     -5.84     -2.56
    5   12   22     -2.99     -2.08
    5   12   23     -3.91     -1.31
    5   12   24      4.79      1.51
    5   12   25     -4.24      1.89
    5   12   26     -4.31     -2.57
    5   12   27     -3.00     -0.99
    5   12   28      2.38     -2.14
    5   12   29     -2.39      1.05
    5   12   30     -1.55     -3.10
    4   12    0      9.38      0.49
    4   12    1     -0.83     -7.08
    4   12    2      1.60      1.00
    4   12    3      1.69     -5.92
    4   12    4      8.42      5.72
    4   12    5      1.38    -13.60
    4   12    6      5.44      0.79
    4   12    7      3.08     -6.09
    4   12    8      6.71      5.32
    4   12    9      2.36    -14.90
    4   12   10      2.29     -1.40
    4   12   11      5.79     -5.04
    4   12   12      4.17      3.94
    4   12   13      1.99     -5.88
    4   12   14     -2.29     -3.32
    4   12   15      5.59     -1.76
    4   12   16      0.22      2.73
    4   12   17      2.17     -2.59
    4   12   18     -3.63     -5.34
    4   12   19      4.74      1.40
    4   12   20     -2.96      0.24
    4   12   21      2.55     -5.93
    4   12   22     -5.83     -5.26
    4   12   23      5.15      0.04
    4   12   24     -3.05     -0.86
    4   12   25      1.97     -3.57
    4   12   26     -5.83     -0.29
    4   12   27      1.80     -1.43
    4   12   28     -1.23     -1.15
    4   12   29      0.66     -0.98
    4   12   30     -2.75      4.13
    4   12   31     -2.15     -0.09
    4   12   32      0.13     -2.33
    3   12    1      0.06      2.18
    3   12    2    -11.35     -3.07
    3   12    3     -2.93      4.29
    3   12    4     -4.78     -1.73
    3   12    5     -0.15      3.89
    3   12    6    -13.22     -5.15
    3   12    7     -3.19     10.47
    3   12    8     -6.75     -3.63
    3   12    9      3.43      6.11
    3   12   10     -8.09     -4.79
    3   12   11     -0.91      8.40
    3   12   12     -4.38     -2.91
    3   12   13      4.94      8.06
    3   12   14     -0.84     -3.53
    3   12   15      1.11      2.64
    3   12   16     -3.16      0.38
    3   12   17      3.43      6.27
    3   12   18      2.89      0.56
    3   12   19      1.19      4.90
    3   12   20     -4.14      2.35
    3   12   21      1.27      4.65
    3   12   22      6.43      2.29
    3   12   23     -0.65      6.72
    3   12   24     -3.21      1.00
    3   12   25      0.95      6.37
    3   12   26      6.70      2.44
    3   12   27     -1.75      4.29
    3   12   28     -1.91     -1.90
    3   12   29      3.14      5.96
    3   12   30      1.55      4.95
    3   12   31     -2.09      4.65
    3   12   32     -2.59     -3.31
    3   12   33      3.70      3.31
    2   12    2     -0.91     -0.28
    2   12    3      3.49     -2.99
    2   12    4      2.52      0.79
    2   12    5      7.38     -4.09
    2   12    6      0.87     -0.70
    2   12    7      0.96     -6.38
    2   12    8      2.08      0.09
    2   12    9      7.42     -4.76
    2   12   10      4.26     -0.97
    2   12   11     -5.80     -8.42
    2   12   12     -3.95      0.80
    2   12   13      6.76     -1.08
    2   12   14      5.55     -1.68
    2   12   15     -6.90     -4.67
    2   12   16     -6.81     -0.41
    2   12   17      6.18     -0.35
    2   12   18      6.22     -3.89
    2   12   19     -6.55      1.36
    2   12   20     -7.15     -1.49
    2   12   21      6.09     -3.50
    2   12   22      7.69     -3.97
    2   12   23     -6.45      0.97
    2   12   24     -6.04      0.49
    2   12   25      4.62     -4.80
    2   12   26      6.21     -0.65
    2   12   27     -3.34     -1.82
    2   12   28     -0.36     -1.21
    2   12   29      2.17     -4.58
    2   12   30      3.56      2.16
    2   12   31     -1.21     -0.77
    2   12   32      3.03     -3.22
    2   12   33      1.41     -4.29
    2   12   34      2.19      3.17
    1   12    4      1.27     -2.03
    1   12    5     -3.54      2.66
    1   12    6      2.57      2.02
    1   12    7     -2.15      5.64
    1   12    8     -2.08     -2.83
    1   12    9      1.86      4.13
    1   12   10      4.84     -1.82
    1   12   11     -2.15      5.26
    1   12   12     -2.03     -5.63
    1   12   13      4.72      3.99
    1   12   14      4.83     -4.34
    1   12   15     -3.86      4.87
    1   12   16      3.54     -6.19
    1   12   17      3.40      0.70
    1   12   18      2.56     -1.19
    1   12   19     -9.73      3.48
    1   12   20      5.82     -4.53
    1   12   21      3.10     -2.06
    1   12   22      0.99      0.94
    1   12   23    -11.99      1.79
    1   12   24      3.34     -6.76
    1   12   25     -0.16     -0.94
    1   12   26     -2.41      1.71
    1   12   27     -5.78      0.78
    1   12   28      1.83     -6.84
    1   12   29     -4.53      0.36
    1   12   30     -4.22      4.40
    1   12   31     -0.94     -1.02
    1   12   32      0.62     -1.24
    1   12   33     -2.80      0.59
    1   12   34      0.00      3.74
    0   12    5     -3.77     -3.54
    0   12    6      0.00      5.46
    0   12    7     -1.25      0.82
    0   12    8     -5.04     -0.05
    0   12    9     -5.06     -5.14
    0   12   10      0.17      8.86
    0   12   11     -3.24      2.61
    0   12   12     -3.25      0.45
    0   12   13     -7.92     -8.09
    0   12   14     -0.23     12.48
    0   12   15      0.03     -0.72
    0   12   16      3.30      0.49
    0   12   17     -4.79     -5.15
    0   12   18     -1.04     12.05
    0   12   19      3.81     -3.51
    0   12   20      7.19      0.00
    0   12   21      4.28      3.40
    0   12   22     -1.05     13.88
    0   12   23      6.18     -4.15
    0   12   24      7.55     -0.09
    0   12   25      6.78      5.69
    0   12   26     -0.14     15.57
    0   12   27      9.28     -5.83
    0   12   28      6.90     -0.12
    0   12   29      4.27      3.60
    0   12   30      0.70      5.88
    0   12   31      8.94     -5.33
    0   12   32      2.61     -0.60
    0   12   33      4.20      4.15
    0   12   34      0.86     -4.74
    3   12    0     -2.20      0.12
    9   13    0     -1.15      0.35
    9   13    1      6.24     -5.15
    9   13    2      5.67      3.23
    9   13    3     -2.89     -5.56
    9   13    4     -0.65      4.93
    9   13    5      5.82     -6.92
    9   13    6      4.55      4.24
    9   13    7      0.99     -3.94
    8   13    0     -3.06     -0.98
    8   13    1      3.45      7.52
    8   13    2      0.01     -1.34
    8   13    3     -7.28      7.01
    8   13    4     -2.84     -1.93
    8   13    5     -2.66     10.63
    8   13    6     -3.33     -0.19
    8   13    7     -7.89     11.10
    8   13    8     -3.43     -3.45
    8   13    9     -3.65      6.23
    8   13   10     -3.00      2.86
    8   13   11     -8.19     10.60
    8   13   12     -3.00     -2.43
    8   13   13     -1.04     -0.56
    8   13   14     -0.37      1.14
    8   13   15     -6.62      6.25
    7   13    0     -1.56      0.03
    7   13    1     -0.36      1.50
    7   13    2      4.30     -1.15
    7   13    3      9.94     -0.34
    7   13    4      1.83     -3.73
    7   13    5      2.80     -1.69
    7   13    6      2.55      0.06
    7   13    7     14.74     -3.21
    7   13    8      3.94     -5.30
    7   13    9      4.05     -2.74
    7   13   10      1.62      3.33
    7   13   11      7.51      2.04
    7   13   12     -0.16     -5.31
    7   13   13      6.25     -1.33
    7   13   14      1.43      3.24
    7   13   15      1.56      6.61
    7   13   16     -2.78     -3.61
    7   13   17      4.32     -0.28
    7   13   18      1.07      1.56
    7   13   19      2.44      3.25
    7   13   20     -2.99     -0.86
    6   13    0     -2.52      0.13
    6   13    1     -4.50     -7.03
    6   13    2     -0.54      6.27
    6   13    3     -2.24     -5.88
    6   13    4     -1.64     -0.44
    6   13    5    -12.33     -3.56
    6   13    6      1.98     11.19
    6   13    7     -1.44     -5.03
    6   13    8      0.98     -0.09
    6   13    9     -9.45     -0.72
    6   13   10      4.03      8.37
    6   13   11     -1.94     -4.24
    6   13   12      1.56     -0.25
    6   13   13     -3.10     -4.71
    6   13   14      3.52      6.61
    6   13   15     -4.74     -2.27
    6   13   16     -0.74     -0.93
    6   13   17     -2.23     -6.02
    6   13   18      1.65      3.94
    6   13   19     -3.67     -1.53
    6   13   20     -1.08     -0.90
    6   13   21     -3.46     -1.50
    6   13   22      0.83     -0.29
    6   13   23     -0.57      0.28
    5   13    0      1.39      0.07
    5   13    1     -3.99     -5.51
    5   13    2      0.41     -0.65
    5   13    3      7.17     -6.66
    5   13    4     -3.40     -8.35
    5   13    5     -1.08     -6.84
    5   13    6     -1.98     -3.80
    5   13    7      6.65     -9.33
    5   13    8     -7.36     -8.46
    5   13    9     -1.67     -6.49
    5   13   10     -5.27     -6.80
    5   13   11      5.58     -4.65
    5   13   12     -3.31     -5.24
    5   13   13     -1.46     -4.46
    5   13   14     -3.81     -5.79
    5   13   15      4.34      3.77
    5   13   16      0.24     -2.88
    5   13   17     -1.17     -2.37
    5   13   18     -2.46     -4.65
    5   13   19      2.70      5.06
    5   13   20      1.18     -0.26
    5   13   21     -2.56     -0.35
    5   13   22     -4.73     -3.28
    5   13   23      3.34      1.56
    5   13   24      1.87      1.77
    5   13   25     -2.74      0.74
    4   13    0     -6.54      0.06
    4   13    1     -4.84      7.82
    4   13    2     -5.18      0.34
    4   13    3      5.43     13.08
    4   13    4     -6.69      3.46
    4   13    5     -2.75      7.77
    4   13    6     -1.58     -0.81
    4   13    7      6.53     18.70
    4   13    8     -3.07      2.19
    4   13    9     -2.58      5.45
    4   13   10     -3.12     -5.38
    4   13   11      8.81     15.88
    4   13   12      2.31     -0.08
    4   13   13     -3.12     -0.50
    4   13   14     -5.75     -7.97
    4   13   15      8.75     10.32
    4   13   16      3.18      1.16
    4   13   17     -0.78     -4.54
    4   13   18     -5.20     -6.08
    4   13   19      8.16      7.97
    4   13   20      4.25      3.26
    4   13   21     -1.22     -4.11
    4   13   22     -4.27     -4.43
    4   13   23      6.77      3.60
    4   13   24      6.19      1.91
    4   13   25     -3.04     -1.58
    4   13   26     -2.08     -4.01
    4   13   27      4.33     -0.58
    3   13    0      4.07      0.29
    3   13    1      0.68      2.35
    3   13    2      1.41     -3.78
    3   13    3      1.49      3.25
    3   13    4      3.53      0.90
    3   13    5      1.24     -2.09
    3   13    6      2.66     -3.58
    3   13    7     -0.44      4.64
    3   13    8      5.09      3.89
    3   13    9     -3.20     -4.81
    3   13   10      1.52      2.18
    3   13   11     -3.09      5.58
    3   13   12      8.56      8.63
    3   13   13     -5.17     -2.46
    3   13   14      1.89      2.64
    3   13   15     -3.27      4.63
    3   13   16     10.52      8.05
    3   13   17     -5.08     -2.50
    3   13   18      5.08      0.32
    3   13   19     -1.86      4.14
    3   13   20     10.07      5.05
    3   13   21     -5.46     -3.53
    3   13   22      5.08     -0.22
    3   13   23      0.17      1.36
    3   13   24      5.83      5.50
    3   13   25     -3.49     -1.02
    3   13   26      2.42     -0.52
    3   13   27     -0.11     -3.65
    3   13   28      0.41      3.65
    2   13    1      1.76     -6.25
    2   13    2      4.64     -0.72
    2   13    3     -6.62     -8.62
    2   13    4      2.12      5.33
    2   13    5     -2.17     -4.23
    2   13    6      4.68     -1.50
    2   13    7     -6.37     -8.27
    2   13    8      1.50      2.48
    2   13    9      1.18     -4.73
    2   13   10      2.19     -4.91
    2   13   11     -8.29     -8.36
    2   13   12     -2.52     -0.61
    2   13   13      3.89     -5.01
    2   13   14     -1.24     -7.76
    2   13   15    -12.01     -6.85
    2   13   16     -6.73      1.01
    2   13   17      2.74     -8.20
    2   13   18     -3.89     -5.46
    2   13   19    -10.53     -2.26
    2   13   20     -8.31      3.90
    2   13   21      2.53    -10.72
    2   13   22     -4.60     -5.65
    2   13   23     -6.04      0.08
    2   13   24     -6.43      5.49
    2   13   25      2.58     -4.82
    2   13   26     -2.57     -6.77
    2   13   27     -2.75      0.19
    2   13   28     -3.42      3.86
    2   13   29      1.76      1.34
    1   13    3      1.61      3.37
    1   13    4     -5.49     -0.82
    1   13    5     -2.24      4.84
    1   13    6     -0.33      1.97
    1   13    7     -0.11      2.89
    1   13    8     -7.00      2.09
    1   13    9      0.24      5.22
    1   13   10      2.60      5.23
    1   13   11     -5.20      2.23
    1   13   12     -2.51      8.16
    1   13   13      8.18      3.13
    1   13   14      2.97      6.10
    1   13   15     -5.97      2.48
    1   13   16      4.98      8.41
    1   13   17     14.99     -2.48
    1   13   18     -0.13      3.33
    1   13   19     -4.41      7.92
    1   13   20      9.01      4.27
    1   13   21     16.78     -4.77
    1   13   22     -1.92     -0.93
    1   13   23     -2.64      9.78
    1   13   24      7.70      3.28
    1   13   25     11.54     -3.18
    1   13   26     -1.95     -2.22
    1   13   27      1.27      3.37
    1   13   28      3.97      1.02
    1   13   29      3.66     -1.70
    1   13   30     -1.18     -1.05
    0   13    4     -0.12     -4.84
    0   13    5     -0.31      0.49
    0   13    6      6.41      0.14
    0   13    7      3.55      3.81
    0   13    8     -0.33     -7.89
    0   13    9      3.66     -3.50
    0   13   10      4.63     -0.11
    0   13   11      1.48      1.77
    0   13   12     -0.42     -8.69
    0   13   13      4.59     -4.17
    0   13   14     -7.76     -0.70
    0   13   15      0.70      1.08
    0   13   16     -0.29     -8.42
    0   13   17      2.91     -2.53
    0   13   18    -19.50     -0.89
    0   13   19     -2.05     -1.46
    0   13   20     -0.09     -6.87
    0   13   21      2.90     -3.17
    0   13   22    -19.66     -0.70
    0   13   23     -5.52     -4.84
    0   13   24      0.11     -5.02
    0   13   25     -0.53     -0.31
    0   13   26    -11.65     -0.73
    0   13   27     -3.81     -3.20
    0   13   28      0.36     -3.40
    0   13   29     -4.89      4.07
    0   13   30     -3.62     -0.69
    7   14    0     -5.43      0.03
    7   14    1     -2.01     -4.14
    7   14    2     -2.87      3.08
    7   14    3      1.78     -4.20
    7   14    4     -3.34      5.17
    7   14    5     -4.91     -0.42
    7   14    6     -1.54      7.26
    7   14    7      2.03     -2.05
    7   14    8      0.19     -0.59
    7   14    9     -3.27      1.60
    7   14   10      0.96      8.17
    6   14    0     -1.46     -0.40
    6   14    1     -4.88      2.43
    6   14    2      1.75     -0.45
    6   14    3      3.39      0.83
    6   14    4     -4.00    -12.41
    6   14    5     -9.33      4.45
    6   14    6     -1.87      0.90
    6   14    7      1.98     -2.26
    6   14    8     -7.53    -12.91
    6   14    9     -9.02      5.04
    6   14   10     -4.61      4.31
    6   14   11     -2.65     -4.13
    6   14   12     -6.23     -8.56
    6   14   13     -3.65      1.80
    6   14   14     -3.66      4.93
    6   14   15     -4.53     -2.54
    5   14    0     -0.09     -0.02
    5   14    1     -8.36     12.57
    5   14    2      6.58      5.72
    5   14    3     12.90      9.21
    5   14    4      1.49     -1.81
    5   14    5     -1.76     13.32
    5   14    6     10.55      8.99
    5   14    7     11.87      3.97
    5   14    8      3.82     -1.35
    5   14    9      1.83     11.46
    5   14   10      8.23      4.17
    5   14   11      7.47      2.84
    5   14   12      3.81     -1.77
    5   14   13      2.45      5.65
    5   14   14      2.20      0.65
    5   14   15      4.72      3.49
    5   14   16      2.35     -2.31
    5   14   17      3.63      0.06
    5   14   18     -0.67     -1.14
    5   14   19      4.61      1.30
    4   14    0     -4.94     -0.04
    4   14    1    -14.40     -5.75
    4   14    2      4.40     -0.65
    4   14    3      7.54     -1.45
    4   14    4     -5.31      0.27
    4   14    5    -13.67     -6.47
    4   14    6      5.83      0.48
    4   14    7      2.35      1.82
    4   14    8     -1.46      5.44
    4   14    9    -10.76     -5.18
    4   14   10      5.73      4.09
    4   14   11      3.64      4.34
    4   14   12      5.55      9.64
    4   14   13     -9.04     -5.76
    4   14   14      4.29      5.63
    4   14   15      2.71      5.66
    4   14   16      8.23      8.67
    4   14   17     -7.68     -6.16
    4   14   18      2.63      3.94
    4   14   19      0.19      4.68
    4   14   20      8.29      5.78
    4   14   21     -6.01     -3.18
    3   14    0      3.67      0.26
    3   14    1     -6.76    -13.11
    3   14    2      4.65     -0.88
    3   14    3      3.23    -10.10
    3   14    4      0.33      4.99
    3   14    5     -6.71    -19.04
    3   14    6      2.23     -2.94
    3   14    7     -0.26    -11.10
    3   14    8     -5.34      1.27
    3   14    9     -8.14    -21.47
    3   14   10     -6.45     -5.61
    3   14   11      0.05     -9.35
    3   14   12     -8.44     -2.09
    3   14   13     -9.65    -17.49
    3   14   14    -13.37     -5.58
    3   14   15      0.61     -3.83
    3   14   16     -9.64     -1.55
    3   14   17     -7.29    -11.31
    3   14   18    -14.42     -2.35
    3   14   19      2.17     -0.24
    3   14   20     -8.34     -2.21
    3   14   21     -5.14     -6.23
    3   14   22    -12.28     -1.22
    3   14   23      3.86      0.22
    2   14    0     -3.63      0.23
    2   14    1      2.59     15.74
    2   14    2     -0.71     -4.92
    2   14    3      0.16     14.75
    2   14    4     -4.61      4.96
    2   14    5      4.90     19.40
    2   14    6      1.07     -7.68
    2   14    7      4.41     15.43
    2   14    8     -1.45      5.46
    2   14    9      7.51     18.97
    2   14   10      4.99     -4.43
    2   14   11      8.92     13.20
    2   14   12      5.11      4.62
    2   14   13     10.72     11.56
    2   14   14      8.64     -4.36
    2   14   15      9.83     10.02
    2   14   16      6.43      1.27
    2   14   17     10.26      3.33
    2   14   18      8.50     -4.78
    2   14   19      7.30     10.15
    2   14   20      5.23     -2.11
    2   14   21      4.36     -0.12
    2   14   22      3.95     -4.65
    2   14   23      3.51      8.59
    2   14   24      3.93     -0.27
    1   14    2     -1.61     -2.02
    1   14    3      3.86     -7.30
    1   14    4     -2.74      4.31
    1   14    5      0.74     -4.67
    1   14    6      0.46     -3.64
    1   14    7      6.42     -7.63
    1   14    8     -5.13      3.70
    1   14    9     -2.79     -1.59
    1   14   10     -3.18     -4.47
    1   14   11      1.87     -3.17
    1   14   12     -8.06      3.97
    1   14   13     -3.12      1.40
    1   14   14     -8.14     -4.50
    1   14   15     -4.31      6.95
    1   14   16     -6.97      4.41
    1   14   17     -0.83     -1.99
    1   14   18     -8.79     -0.75
    1   14   19     -6.43     13.37
    1   14   20     -1.78      4.21
    1   14   21      1.03     -9.34
    1   14   22     -6.81      1.57
    1   14   23     -4.98     10.69
    1   14   24      2.63      6.03
    1   14   25      1.16     -9.27
    0   14    3      2.80     -2.50
    0   14    4      4.46      0.35
    0   14    5     -8.05     -7.92
    0   14    6     -0.03      0.46
    0   14    7      3.86     -3.51
    0   14    8      2.75      0.43
    0   14    9     -8.08     -7.78
    0   14   10      0.01     -1.56
    0   14   11      4.43     -4.23
    0   14   12     10.07      0.45
    0   14   13     -8.53     -8.25
    0   14   14      0.15     -4.42
    0   14   15      1.92     -1.89
    0   14   16     18.50      0.45
    0   14   17    -10.06    -10.20
    0   14   18      0.08     -1.84
    0   14   19     -3.76      3.72
    0   14   20     19.41      0.35
    0   14   21     -7.70     -7.97
    0   14   22     -0.18     -0.46
    0   14   23     -6.92      6.86
    0   14   24     12.03      0.37
    0   14   25     -2.87     -2.89
    5   15    0     -4.84     -0.15
    5   15    1     -5.28     -5.10
    5   15    2     -0.82      3.61
    5   15    3      2.11     -7.59
    5   15    4     -4.10     -2.92
    5   15    5     -4.94     -0.17
    5   15    6     -0.28      5.20
    5   15    7     -0.79     -8.00
    4   15    0     -4.91      0.11
    4   15    1    -11.32     -5.72
    4   15    2      3.17      0.24
    4   15    3      9.29     -3.40
    4   15    4     -6.06     -1.74
    4   15    5     -7.32     -7.40
    4   15    6     -1.99     -1.10
    4   15    7      2.59     -2.72
    4   15    8     -8.49      0.26
    4   15    9     -5.41     -6.16
    4   15   10     -6.31     -3.18
    4   15   11      0.12     -0.55
    4   15   12     -8.36      0.51
    3   15    0     -1.08      0.03
    3   15    1     -8.28     10.04
    3   15    2     -1.14     -1.55
    3   15    3     11.41     17.14
    3   15    4      0.39     -1.59
    3   15    5      1.02      7.63
    3   15    6      2.61     -4.00
    3   15    7     11.06     20.34
    3   15    8      3.10     -2.34
    3   15    9      5.80      7.68
    3   15   10      5.89     -4.96
    3   15   11     11.57     17.01
    3   15   12      4.04     -2.66
    3   15   13      3.39      4.80
    3   15   14      5.47     -3.65
    3   15   15      7.85     10.71
    2   15    0     -1.02     -0.19
    2   15    1     -1.80     -8.45
    2   15    2     -2.90     -1.84
    2   15    3      1.07     -7.45
    2   15    4     -0.91      7.27
    2   15    5     -0.56     -9.56
    2   15    6     -1.27     -2.28
    2   15    7     -3.32     -8.23
    2   15    8     -0.65     10.00
    2   15    9     -3.42     -7.38
    2   15   10      0.85      0.31
    2   15   11     -5.00     -5.13
    2   15   12     -0.12      8.85
    2   15   13     -5.49     -3.54
    2   15   14      4.29      2.09
    2   15   15     -4.28     -1.08
    2   15   16      0.16      5.26
    1   15    1     -2.05     -3.61
    1   15    2      4.17     -4.37
    1   15    3     -3.64     -2.67
    1   15    4      4.27      3.45
    1   15    5     -7.27     -4.37
    1   15    6      3.46    -10.27
    1   15    7     -2.60     -4.56
    1   15    8      1.24      2.45
    1   15    9     -7.96     -5.86
    1   15   10      3.02    -11.38
    1   15   11     -0.21     -7.10
    1   15   12     -2.12      0.96
    1   15   13     -5.02     -9.83
    1   15   14      3.08     -7.63
    1   15   15     -1.89     -6.92
    1   15   16     -4.76      0.32
    1   15   17     -1.84    -11.37
    0   15    2     -9.95     -0.44
    0   15    3     11.56     11.11
    0   15    4      0.00      4.11
    0   15    5     -6.21      5.20
    0   15    6     -5.04     -0.65
    0   15    7     14.20     13.64
    0   15    8      0.22      7.27
    0   15    9     -7.40      6.57
    0   15   10     -0.61     -0.65
    0   15   11     13.89     13.30
    0   15   12      0.10      8.43
    0   15   13     -4.80      4.53
    0   15   14      0.32     -0.45
    0   15   15     12.27     11.82
    0   15   16     -0.11      1.91
    0   15   17      0.04      0.13
    0   15   18     -2.09     -0.18
    7   16   12     -0.84     -0.47
    1    1    0     84.85     -0.12
    0    2    0     -6.21      0.49
    0   12    0     -2.41     -0.36
    1   12    0      2.35      0.05
    2   12    0      0.07      0.04
   11   12    0      4.21      3.84
   12   12    0     -2.74     -1.55
    1   13    0     -3.35      0.04
    2   13    0      1.24      0.29
   10   13    0     -3.85     -1.25
   11   13    0      3.93     -0.37
    0   14    0      7.90      0.19
    1   14    0     -2.31     -0.14
    8   14    0      2.66     -0.45
    9   14    0     -1.07     -0.52
   10   14    0      1.04      0.25
    1   15    0      5.94      0.24
    6   15    0      3.48     -0.23
    7   15    0      1.20     -0.24
    8   15    0      2.22     -0.05
    9   15    0      2.92      0.07
    0   16    0      4.11      0.25
    1   16    0     -2.48     -0.16
    2   16    0     -0.03      0.10
    3   16    0      0.47      0.21
    4   16    0     -1.47      0.05
    5   16    0     -1.63      0.08
    6   16    0     -2.05      0.04
    7   16    0      1.33     -0.18
    0    1    1     -1.54      2.08
    1    1    1      0.32    -41.06
    0   12    1     -3.49     -3.23
    1   12    1     -2.79      2.32
    2   12    1      2.96     -1.68
   11   12    1     -0.23      0.67
   12   12    1     -0.39      1.89
    0   13    1     -2.26      2.35
    1   13    1     -0.93      4.69
   10   13    1     -0.89     -1.12
   11   13    1      2.09      2.53
    0   14    1     -4.92     -4.71
    1   14    1      1.45     -6.40
    8   14    1      2.87     -1.55
    9   14    1     -0.61      3.62
   10   14    1     -3.84     -0.85
    0   15    1     -7.15      6.59
    6   15    1      2.23     -0.27
    7   15    1      1.35      4.18
    8   15    1      2.34     -0.78
    9   15    1     -1.68     -0.11
    0   16    1     -4.18     -4.20
    1   16    1      3.24      6.52
    2   16    1     -1.85     -1.32
    3   16    1     -3.62     -3.14
    4   16    1     -1.28      4.16
    5   16    1      3.14      2.40
    6   16    1      3.54     -0.01
    7   16    1      1.64     -3.85
    0    1    2   -210.06      0.21
    1    1    2     94.41     -0.17
    0   12    2     -0.01      2.46
    1   12    2      2.44      1.47
   11   12    2      0.22     -0.83
   12   12    2     -0.53     -0.03
    0   13    2      1.66      0.14
    1   13    2     -1.02      0.05
   10   13    2     -1.00     -2.86
   11   13    2      2.97      0.78
    0   14    2     -0.02     -0.16
    8   14    2      0.44     -3.16
    9   14    2     -1.63     -1.98
   10   14    2     -1.00      0.19
    6   15    2      5.10      2.71
    7   15    2      0.13     -2.40
    8   15    2     -2.27     -0.59
    9   15    2      0.95     -0.38
    0   16    2      0.14      1.34
    1   16    2     -0.36     -1.62
    2   16    2     -1.47      0.14
    3   16    2      2.08      2.29
    4   16    2      4.49      0.40
    5   16    2     -2.00      0.87
    6   16    2     -2.62     -0.18
    7   16    2     -0.89     -0.70
    0    1    3     23.51     23.53
    1    1    3      0.04      2.86
    0   12    3      1.96     -2.44
    1   12    3     -0.74      4.25
   11   12    3     -2.08     -2.17
   12   12    3     -0.37      0.04
    0   13    3      3.72      3.72
   10   13    3     -0.27     -2.14
   11   13    3     -0.53      0.33
    8   14    3     -1.16     -4.47
    9   14    3     -0.49      3.86
   10   14    3      2.93     -1.46
    6   15    3      2.11     -1.49
    7   15    3     -3.37      4.75
    8   15    3     -2.05      0.53
    9   15    3      0.11      0.16
    0   16    3      3.68     -3.20
    1   16    3     -0.35      6.47
    2   16    3     -1.98     -0.06
    3   16    3      1.32      0.18
    4   16    3      0.61      2.56
    5   16    3     -2.68     -1.14
    6   16    3     -2.84      1.20
    7   16    3     -1.20     -1.38
    0    0    4    321.64     -0.49
    0    1    4      0.30    -27.15
    0   12    4     -3.21     -0.29
   11   12    4      3.95      2.51
   12   12    4     -2.41     -1.34
   10   13    4     -2.59     -1.03
   11   13    4      3.05     -0.39
    8   14    4      1.82     -1.10
    9   14    4     -1.93      0.66
   10   14    4      0.64      2.52
    6   15    4      3.02     -1.58
    7   15    4      0.91      0.76
    8   15    4      1.57      3.43
    9   15    4      2.31      1.51
    0   16    4      3.39      0.30
    1   16    4     -1.24      1.17
    2   16    4      0.34     -0.37
    3   16    4      1.77     -0.79
    4   16    4      0.61     -1.99
    5   16    4     -0.97     -2.44
    6   16    4     -1.72     -1.59
    7   16    4      1.13      1.07
   11   12    5     -1.60      0.12
   12   12    5     -0.05      1.88
   10   13    5     -1.56     -1.23
   11   13    5      3.32      3.13
    8   14    5      4.74     -3.28
    9   14    5     -0.38      4.58
   10   14    5     -1.92      0.26
    6   15    5      2.81     -0.91
    7   15    5     -0.76      2.74
    8   15    5      4.20      0.42
    9   15    5     -0.88     -1.10
    0   16    5     -5.65     -5.35
    1   16    5      5.26      6.54
    2   16    5     -1.12     -1.05
    3   16    5     -2.57     -6.55
    4   16    5      0.08      3.47
    5   16    5      2.66      4.44
    6   16    5      1.59      0.12
    7   16    5      1.53     -4.20
   11   12    6     -3.50     -0.68
   12   12    6      0.75     -0.05
   10   13    6     -1.65     -2.03
   11   13    6      2.61      0.78
    8   14    6      1.58     -4.14
    9   14    6     -0.49     -2.63
   10   14    6     -0.26     -0.10
    6   15    6      4.57      4.94
    7   15    6     -0.29     -1.46
    8   15    6     -0.47     -0.57
    9   15    6      0.68     -0.46
    0   16    6      0.04      2.63
    1   16    6     -0.90     -2.87
    2   16    6     -4.26     -0.48
    3   16    6      0.82      4.40
    4   16    6      2.72     -1.57
    5   16    6     -1.93      1.55
    6   16    6     -1.69     -0.29
    7   16    6     -0.82     -1.72
   11   12    7     -2.73     -1.03
   12   12    7     -0.43      1.30
   10   13    7      0.64     -1.76
   11   13    7     -0.90      1.70
    8   14    7     -0.33     -6.44
    9   14    7     -1.29      4.12
   10   14    7      0.52     -0.55
    6   15    7      5.21     -3.97
    7   15    7     -3.20      2.61
    8   15    7     -2.53      0.91
    9   15    7     -1.85     -0.97
    0   16    7      3.46     -2.97
    1   16    7      1.57      5.40
    2   16    7     -4.39      0.25
    3   16    7     -1.98      0.25
    4   16    7     -0.60      1.45
    5   16    7     -1.79     -1.63
    6   16    7     -1.02      1.55
    7   16    7     -1.67     -0.56
   11   12    8      2.90      0.88
   12   12    8     -0.81     -0.87
    9   13    8      0.06      2.31
   10   13    8     -0.13     -1.00
   11   13    8      1.75     -1.74
    8   14    8      0.65     -4.63
    9   14    8     -2.73     -0.06
   10   14    8      0.38      1.29
    5   15    8     -1.78     -1.73
    6   15    8      2.85     -3.57
    7   15    8     -0.55      0.21
    8   15    8     -0.21      2.30
    9   15    8      1.52      1.60
    0   16    8      1.63      0.29
    1   16    8      1.40      2.32
    2   16    8     -1.45     -0.67
    3   16    8      2.55      0.46
    4   16    8      2.73     -1.32
    5   16    8      0.09      0.04
    6   16    8     -0.95     -2.19
    7   16    8      0.42     -0.62
   11   12    9     -1.09     -1.78
   12   12    9      0.43     -1.89
    9   13    9      3.70     -7.48
   10   13    9     -0.82     -2.50
   11   13    9      2.29      0.77
    8   14    9      4.83     -4.65
    9   14    9     -0.90      4.15
   10   14    9     -0.80      1.29
    5   15    9     -1.50      1.54
    6   15    9      2.89      1.61
    7   15    9     -0.54      2.89
    8   15    9      3.44      1.31
    0   16    9     -5.96     -5.56
    1   16    9      4.76      5.62
    2   16    9      0.01      0.47
    3   16    9     -3.04     -8.08
    4   16    9      1.11      1.57
    5   16    9      2.64      4.46
    6   16    9      0.72      0.35
    7   16    9      0.09     -1.60
   11   12   10     -4.28      0.46
   12   12   10      0.28      0.06
    9   13   10      2.35      2.74
   10   13   10     -1.49      1.27
   11   13   10      0.95      0.69
    8   14   10      2.53     -0.70
    9   14   10     -0.48     -0.47
   10   14   10     -0.24     -0.14
    5   15   10      0.09      2.07
    6   15   10      3.47      4.32
    7   15   10     -0.98      3.02
    8   15   10      0.75      0.01
    0   16   10     -0.16      1.15
    1   16   10      0.05     -1.73
    2   16   10     -6.67     -0.71
    3   16   10      3.19      3.78
    4   16   10      2.85     -3.39
    5   16   10     -1.77      1.41
    6   16   10     -1.60      0.23
   10   12   11     -1.65      2.00
   11   12   11     -1.72      1.48
   12   12   11     -0.03      2.01
    9   13   11      1.87     -1.40
   10   13   11      1.94     -1.38
   11   13   11     -0.62      2.51
    7   14   11     -0.12     -0.83
    8   14   11     -0.55     -3.91
    9   14   11     -0.39      2.08
   10   14   11     -0.20      1.01
    5   15   11     -1.46     -7.57
    6   15   11      2.86     -3.25
    7   15   11     -2.06      0.52
    8   15   11     -0.23     -1.48
    0   16   11      1.40     -1.12
    1   16   11      1.82      4.61
    2   16   11     -1.90      0.48
    3   16   11     -1.37     -1.89
    4   16   11     -0.58      1.32
    5   16   11     -2.06     -0.20
    6   16   11     -0.26      0.00
   11   11   12      5.21      0.11
   10   12   12      2.09      1.91
   11   12   12      0.42     -0.22
   12   12   12      0.69     -0.39
    9   13   12     -0.27      0.51
   10   13   12      0.95     -0.85
   11   13   12      0.28     -0.70
    7   14   12      1.98     -5.05
    8   14   12      0.83     -4.19
    9   14   12     -1.38     -0.51
   10   14   12     -0.26      0.19
    5   15   12      0.29     -0.58
    6   15   12      3.05     -4.07
    7   15   12     -1.60     -0.20
    8   15   12     -1.35      1.68
    0   16   12      0.23      0.25
    1   16   12      2.65      2.24
    2   16   12     -5.36     -1.37
    3   16   12      2.00     -0.10
    4   16   12      1.61     -0.49
    5   16   12      0.74      0.26
    6   16   12     -0.43     -2.68
   11   11   13      0.43      2.48
   10   12   13     -1.26      1.79
   11   12   13     -0.05     -0.61
   12   12   13      0.36     -2.07
    9   13   13      3.24     -4.41
   10   13   13      0.65     -1.62
   11   13   13      0.04     -0.17
    7   14   13      1.13      0.33
    8   14   13      2.30     -2.90
    9   14   13     -1.96      3.13
   10   14   13     -0.60      1.57
    4   15   13     -4.40     -4.03
    5   15   13      1.07     -0.16
    6   15   13      2.47      3.60
    7   15   13     -0.30      2.43
    8   15   13      1.19      0.51
    0   16   13     -3.66     -3.29
    1   16   13      3.29      3.71
    2   16   13      0.28      0.57
    3   16   13     -3.65     -7.23
    4   16   13      0.35      1.33
    5   16   13      1.94      3.67
    6   16   13      1.60     -0.35
   11   11   14     -0.42     -1.18
   10   12   14     -0.99     -2.99
   11   12   14     -1.58     -0.48
   12   12   14     -0.30      0.10
    9   13   14     -0.30      0.38
   10   13   14      0.29      0.66
   11   13   14      0.21      0.35
    7   14   14      1.22      5.16
    8   14   14      0.68     -0.53
    9   14   14     -0.24     -0.54
    4   15   14     -6.05     -3.23
    5   15   14     -0.73      1.69
    6   15   14      1.80      3.39
    7   15   14     -0.88      2.10
    8   15   14      0.38     -1.22
    0   16   14     -0.06      0.49
    1   16   14      1.71     -0.91
    2   16   14     -7.42      0.39
    3   16   14      4.79      3.19
    4   16   14      2.59     -0.13
    5   16   14     -0.38      1.58
    6   16   14     -1.18      1.16
   11   11   15      0.18     -2.00
   10   12   15     -4.05     -1.72
   11   12   15     -0.66      0.36
   12   12   15      0.28      1.01
    9   13   15      0.96     -1.16
   10   13   15      2.03     -1.04
   11   13   15     -0.51      1.21
    7   14   15      0.00      0.34
    8   14   15     -0.68     -1.82
    9   14   15     -0.48      0.72
    4   15   15      0.74      1.66
    5   15   15     -1.52     -4.62
    6   15   15      0.66     -1.20
    7   15   15     -0.60     -0.03
    8   15   15      1.02     -2.25
    0   16   15     -0.70      0.59
    1   16   15     -0.87      3.64
    2   16   15      0.77     -0.47
    3   16   15      0.69     -2.46
    4   16   15     -0.56      0.14
    5   16   15     -1.94     -0.75
   11   11   16      2.54      0.05
   10   12   16     -1.05      2.05
   11   12   16     -1.50      0.30
   12   12   16      1.15     -0.28
    8   13   16     -0.04     -0.48
    9   13   16     -1.25      1.34
   10   13   16      0.07     -0.17
    6   14   16     -2.36     -4.22
    7   14   16      2.35     -2.78
    8   14   16      1.13      0.22
    9   14   16      0.03     -0.65
    3   15   16      3.53     -2.59
    4   15   16     -4.56     -1.00
    5   15   16      0.35     -0.56
    6   15   16      1.70     -2.91
    7   15   16     -0.54      0.35
    8   15   16     -0.90      1.75
    0   16   16      0.01      0.19
    1   16   16      1.47      0.42
    2   16   16     -6.47     -1.47
    3   16   16      2.35     -1.45
    4   16   16      0.73      0.07
    5   16   16      0.65     -2.32
   11   11   17      0.27      3.23
   10   12   17     -0.47      0.21
   11   12   17      0.44     -0.01
    8   13   17     -1.04     -1.69
    9   13   17      3.27     -2.12
   10   13   17      1.64     -0.52
    6   14   17     -1.74     -0.32
    7   14   17      1.27      0.28
    8   14   17      0.10     -2.20
    9   14   17     -1.52      1.68
    2   15   17     -3.27     -0.47
    3   15   17      0.62      2.91
    4   15   17     -1.12     -2.07
    5   15   17      0.72      0.26
    6   15   17      1.10      2.29
    7   15   17     -0.63      0.88
    0   16   17     -0.68     -0.35
    1   16   17      1.26      3.98
    2   16   17      0.53      0.60
    3   16   17     -1.98     -3.47
    4   16   17     -0.18      1.21
    5   16   17      0.75      2.30
   11   11   18      1.97     -0.34
   10   12   18      0.46     -1.63
   11   12   18     -0.90     -1.01
    8   13   18      1.28     -0.99
    9   13   18     -0.72     -0.72
   10   13   18      1.53     -0.38
    6   14   18     -1.27      3.21
    7   14   18      0.40      0.44
    8   14   18     -1.63     -0.46
    9   14   18      0.69     -0.58
    1   15   18      2.32     -0.66
    2   15   18      6.31      3.23
    3   15   18      3.53     -1.41
    4   15   18     -4.57     -2.51
    5   15   18     -1.20      1.45
    6   15   18      0.74      2.11
    7   15   18     -0.12      0.62
    0   16   18     -0.04      2.27
    1   16   18      2.42     -1.35
    2   16   18     -5.11      0.50
    3   16   18      2.40      1.65
    4   16   18      0.65      1.57
    5   16   18      0.99      1.45
   11   11   19      0.13      2.39
    9   12   19     -2.98      3.30
   10   12   19     -3.53     -1.40
   11   12   19     -0.04     -0.49
    8   13   19     -3.09      2.66
    9   13   19      0.81     -0.28
   10   13   19      1.81      0.00
    6   14   19     -2.74     -0.90
    7   14   19      1.69      1.72
    8   14   19     -0.29     -0.66
    9   14   19     -1.09      1.30
    0   15   19      9.68      9.41
    1   15   19     -2.47     -3.51
    2   15   19     -0.96     -2.05
    3   15   19      3.06      4.18
    4   15   19      0.47      0.55
    5   15   19     -2.07     -1.03
    6   15   19      0.77     -0.47
    7   15   19     -0.05     -0.78
    0   16   19      0.20     -0.64
    1   16   19     -1.74      1.85
    2   16   19      1.11     -3.10
    3   16   19      1.84     -1.16
    4   16   19     -0.67     -1.06
   10   11   20      2.65     -0.07
   11   11   20      4.11      0.08
    9   12   20      0.19      1.48
   10   12   20     -1.78      0.80
   11   12   20     -0.81      1.08
    8   13   20      0.75     -0.04
    9   13   20     -2.12      0.71
   10   13   20      0.15      0.80
    5   14   20      1.47     -1.27
    6   14   20     -1.20      0.47
    7   14   20      1.44     -1.46
    8   14   20     -0.18      1.91
    0   15   20      0.00     -5.70
    1   15   20     -3.68     -1.03
    2   15   20      0.52      2.08
    3   15   20      3.14     -1.82
    4   15   20     -1.32     -0.37
    5   15   20     -0.01     -1.01
    6   15   20     -0.29     -1.67
    7   15   20      0.18      0.12
    0   16   20     -0.04      0.09
    1   16   20     -0.98     -0.43
    2   16   20     -5.22     -0.61
    3   16   20      1.78     -0.59
    4   16   20      1.10      0.69
   10   11   21      2.25     -2.65
   11   11   21      0.18      1.68
    9   12   21      0.29      1.56
   10   12   21     -0.69     -0.59
   11   12   21      0.73      0.52
    7   13   21      0.29     -0.08
    8   13   21     -2.61     -1.43
    9   13   21      2.35     -0.77
   10   13   21      0.78      0.04
    5   14   21      3.11     -1.88
    6   14   21     -1.49     -1.16
    7   14   21     -0.21      0.83
    8   14   21     -0.31     -2.13
    0   15   21      2.53     -2.24
    1   15   21     -1.98     -7.88
    2   15   21     -1.84      0.65
    3   15   21     -1.92      3.50
    4   15   21      0.17     -0.64
    5   15   21      0.71      1.37
    6   15   21      0.73      0.94
    0   16   21     -0.76     -0.53
    1   16   21     -1.03      4.35
    2   16   21     -0.87      0.94
    3   16   21     -0.20     -0.12
    4   16   21     -0.27      0.56
   10   11   22     -5.68     -1.27
   11   11   22      2.28     -0.16
    9   12   22      2.60      0.45
   10   12   22      0.24     -0.44
   11   12   22     -2.00     -0.59
    7   13   22      1.56      0.10
    8   13   22      3.08     -0.28
    9   13   22      0.67     -1.12
    4   14   22      0.59      2.57
    5   14   22     -1.31     -1.58
    6   14   22      1.03      1.97
    7   14   22      1.52     -2.00
    8   14   22     -1.57      0.49
    0   15   22     -4.20     -0.04
    1   15   22      0.07      1.27
    2   15   22      4.59      3.23
    3   15   22      1.59      0.01
    4   15   22     -3.03     -1.15
    5   15   22      0.04     -0.21
    6   15   22      0.58      1.76
    0   16   22     -0.10      1.96
    1   16   22      2.33     -1.10
    2   16   22     -0.86     -0.57
    3   16   22      1.34     -0.02
   10   11   23      0.55     -0.53
   11   11   23      0.07      1.30
    8   12   23      2.71      1.90
    9   12   23     -1.93      1.62
   10   12   23     -2.35     -1.90
    7   13   23      3.47      0.03
    8   13   23     -0.42      0.10
    9   13   23      2.01      0.33
    4   14   23      1.31      3.16
    5   14   23      2.47     -0.55
    6   14   23     -0.75      0.03
    7   14   23      0.99      2.29
    8   14   23     -0.21      0.76
    0   15   23      6.16      5.97
    1   15   23      0.00      0.51
    2   15   23      3.36     -3.07
    3   15   23      1.60      0.84
    4   15   23     -0.04     -1.44
    5   15   23     -1.52      0.72
    6   15   23     -0.42      1.18
    0   16   23      1.03     -1.43
    1   16   23      0.36      0.89
    2   16   23      0.34     -2.93
    9   11   24      7.13      2.04
   10   11   24     -0.51     -0.61
   11   11   24      4.74      0.05
    8   12   24     -2.14     -1.84
    9   12   24     -1.15     -0.30
   10   12   24     -1.14      0.51
    6   13   24     -0.87     -0.89
    7   13   24     -3.68      0.60
    8   13   24     -0.57      0.52
    9   13   24     -2.04      0.80
    3   14   24     -3.72     -2.23
    4   14   24      6.37      3.19
    5   14   24     -0.41     -1.36
    6   14   24     -1.62      2.09
    7   14   24     -0.08     -1.03
    0   15   24      0.14     -4.40
    1   15   24     -0.92     -1.40
    2   15   24      1.44      1.62
    3   15   24      1.28     -0.69
    4   15   24      0.41      0.13
    5   15   24     -0.63     -1.86
    0   16   24     -1.15      0.08
    1   16   24     -1.95      0.73
   10   10   25     -0.05      1.44
    9   11   25      0.89     -3.91
   10   11   25      2.90     -0.71
   11   11   25      0.06      1.16
    8   12   25      0.46      0.16
    9   12   25     -0.45      0.04
   10   12   25     -1.44      0.42
    6   13   25     -4.45      0.42
    7   13   25     -1.43     -0.91
    8   13   25     -2.75     -0.99
    9   13   25      1.53      0.80
    2   14   25      0.00     -0.61
    3   14   25     -3.30     -2.11
    4   14   25     -3.22     -0.03
    5   14   25      0.44     -2.21
    6   14   25      0.45     -2.56
    7   14   25      0.11      0.42
    0   15   25      2.23     -2.01
    1   15   25     -2.41     -3.37
    2   15   25     -1.40     -0.37
    3   15   25     -3.22      1.90
    4   15   25     -0.05     -0.74
    5   15   25      1.77      0.86
   10   10   26     -1.58     -0.07
    9   11   26      0.54      0.58
   10   11   26     -4.25     -1.64
   11   11   26      2.17     -0.06
    7   12   26      0.08      1.11
    8   12   26     -0.26     -0.15
    9   12   26      0.36     -0.57
   10   12   26     -0.31      1.24
    5   13   26     -3.38      0.64
    6   13   26      1.14     -2.24
    7   13   26      1.58     -1.25
    8   13   26      3.45      0.10
    9   13   26      0.32     -0.99
    0   14   26     -0.43     -1.67
    1   14   26     -2.89      0.42
    2   14   26     -0.21     -4.87
    3   14   26     -5.97     -1.85
    4   14   26     -1.22      2.17
    5   14   26     -0.68     -0.54
    6   14   26      2.99      0.71
    7   14   26      1.61     -1.59
    0   15   26     -2.35     -0.08
    1   15   26     -1.03     -0.89
    2   15   26      1.94      1.30
    3   15   26     -0.38      0.05
    4   15   26      0.32      0.01
    5   15   26      0.60     -0.40
   10   10   27     -0.01      2.34
    9   11   27     -2.59      1.20
   10   11   27      1.38      0.11
   11   11   27     -0.03     -0.32
    7   12   27     -0.09     -0.18
    8   12   27      1.73      2.83
    9   12   27     -1.18      0.73
   10   12   27     -2.15     -2.53
    5   13   27      4.02      0.41
    6   13   27      1.17      2.19
    7   13   27      2.83     -0.41
    8   13   27      0.22     -0.83
    0   14   27     -4.12      4.01
    1   14   27     -2.87      4.59
    2   14   27      0.19      3.48
    3   14   27      2.36      0.74
    4   14   27      1.25      1.79
    5   14   27     -0.03     -0.69
    6   14   27      0.70      0.57
    7   14   27     -0.32      1.09
    0   15   27      2.04      1.95
    1   15   27      1.15      1.89
    2   15   27      3.49     -1.06
    3   15   27      1.16      1.26
    4   15   27      0.07     -1.31
   10   10   28      5.70     -0.02
    8   11   28     -0.50      0.96
    9   11   28      5.56      2.15
   10   11   28     -1.79     -0.81
    7   12   28      0.48      2.86
    8   12   28      0.24     -1.32
    9   12   28     -0.42     -1.01
    4   13   28      4.46     -0.98
    5   13   28      0.87      2.82
    6   13   28     -1.55     -0.75
    7   13   28     -2.60      0.89
    8   13   28      0.23      0.65
    0   14   28      2.62      0.46
    1   14   28      2.66      4.77
    2   14   28      0.61      1.77
    3   14   28     -0.25     -0.23
    4   14   28      1.65      1.17
    5   14   28     -1.75     -1.71
    6   14   28     -0.61      1.20
    0   15   28      0.26     -1.63
    1   15   28      0.18     -0.79
    2   15   28      0.69      1.48
    3   15   28     -0.53      0.23
    9   10   29      0.91     -2.36
   10   10   29      0.01     -1.05
    8   11   29      1.43     -0.97
    9   11   29     -0.92     -3.79
   10   11   29      3.51     -0.03
    6   12   29      2.13      0.82
    7   12   29     -1.11     -0.96
    8   12   29      1.16     -0.67
    9   12   29      0.28      0.37
    3   13   29     -0.84     -0.46
    4   13   29     -0.67      0.64
    5   13   29     -2.26      0.67
    6   13   29     -4.72      0.00
    7   13   29     -1.26     -0.91
    8   13   29     -0.93      1.22
    0   14   29      0.36      0.43
    1   14   29      0.63     -4.22
    2   14   29     -0.05     -0.01
    3   14   29     -1.35      0.51
    4   14   29     -1.47      0.02
    5   14   29     -0.37     -1.44
    6   14   29      0.43     -1.46
    0   15   29      1.53     -1.33
    1   15   29     -1.27     -0.23
    2   15   29     -0.96     -1.67
    3   15   29     -1.78     -0.26
    9   10   30     -3.98      0.96
   10   10   30      0.75     -0.11
    8   11   30     -2.67      1.75
    9   11   30      1.59      0.70
   10   11   30     -1.36     -1.25
    6   12   30      0.88     -0.59
    7   12   30     -0.17     -0.32
    8   12   30     -0.43     -0.05
    9   12   30     -1.59     -0.97
    2   13   30     -0.32     -2.67
    3   13   30      1.88     -0.19
    4   13   30      0.19     -2.21
    5   13   30     -0.91      1.98
    6   13   30      1.24     -2.47
    7   13   30      0.20     -0.55
    0   14   30     -0.58     -0.02
    1   14   30      0.77      0.75
    2   14   30     -0.52     -2.61
    3   14   30     -0.36     -1.32
    4   14   30     -2.11      1.22
    5   14   30      0.34     -0.70
    0   15   30      0.03     -0.08
    1   15   30      0.32     -0.46
    2   15   30     -0.20     -0.12
    9   10   31      2.44      2.01
   10   10   31      0.02      0.76
    7   11   31     -2.25     -1.73
    8   11   31     -0.54      1.44
    9   11   31     -2.16      0.71
   10   11   31      1.13     -0.22
    5   12   31     -2.35     -0.92
    6   12   31      2.76     -0.63
    7   12   31     -1.02     -0.41
    8   12   31     -0.18      0.28
    0   13   31     -1.66     -1.38
    1   13   31      2.15     -0.19
    2   13   31     -0.90      0.81
    3   13   31     -1.56     -5.20
    4   13   31      3.37      0.53
    5   13   31      2.08      0.29
    6   13   31      1.90      0.79
    7   13   31      1.16     -1.38
    0   14   31     -2.08      1.90
    1   14   31     -1.51      0.30
    2   14   31     -0.47      1.01
    3   14   31      0.16      0.89
    4   14   31      0.22     -0.40
    5   14   31      0.78     -0.86
    9    9   32     -3.68      0.02
    8   10   32      0.94     -5.87
    9   10   32     -0.19     -0.13
   10   10   32      0.98     -0.08
    7   11   32     -0.34     -1.74
    8   11   32     -2.13     -0.13
    9   11   32      2.21      0.05
    5   12   32      1.11     -0.86
    6   12   32     -1.27      2.98
    7   12   32     -0.49      1.18
    8   12   32      0.74     -0.51
    0   13   32      0.42      0.39
    1   13   32      0.15     -2.41
    2   13   32     -1.85      0.27
    3   13   32     -0.63      0.59
    4   13   32      2.15     -1.30
    5   13   32     -0.06      2.59
    6   13   32     -0.54      0.24
    7   13   32     -0.92      0.91
    0   14   32     -1.95      0.32
    1   14   32      0.42      1.23
    2   14   32     -1.02      1.44
    3   14   32     -0.10      0.09
    4   14   32      0.02      0.54
    9    9   33     -0.15      2.32
    8   10   33      0.32      0.37
    9   10   33     -0.32      0.03
   10   10   33      0.02     -0.64
    6   11   33      1.94      0.59
    7   11   33      2.00      0.81
    8   11   33      1.07      0.21
    9   11   33     -1.06     -1.04
    4   12   33     -0.31     -1.81
    5   12   33     -1.32     -0.69
    6   12   33      1.30      2.11
    7   12   33      0.29      1.00
    8   12   33      1.11     -0.02
    0   13   33     -2.72      2.27
    1   13   33      0.66     -0.48
    2   13   33      1.80      0.90
    3   13   33      0.19     -1.68
    4   13   33      1.06      1.71
    5   13   33     -2.21      0.13
    6   13   33     -2.04      0.85
    0   14   33      1.65      1.79
    1   14   33      0.98     -2.37
    2   14   33      0.18      1.19
    3   14   33     -1.69      0.93
    4   14   33     -1.03     -0.91
    9    9   34     -1.80     -0.03
    7   10   34     -1.96      4.71
    8   10   34      1.85     -2.27
    9   10   34     -0.71      2.65
   10   10   34      1.87     -0.05
    6   11   34      1.49     -0.87
    7   11   34      2.86      0.22
    8   11   34     -0.35      2.02
    9   11   34      1.57      0.16
    3   12   34     -1.49      3.96
    4   12   34     -0.91      2.72
    5   12   34     -0.22     -1.17
    6   12   34      0.99     -2.08
    7   12   34      0.85     -1.18
    0   13   34      1.04     -0.53
    1   13   34      0.49     -1.16
    2   13   34      0.67     -1.00
    3   13   34      2.14      0.71
    4   13   34     -0.34     -0.55
    5   13   34     -2.01     -0.38
    6   13   34      1.33     -1.62
    0   14   34     -0.45     -0.13
    1   14   34      1.19      0.96
    2   14   34     -0.42     -0.14
    3   14   34     -0.37     -1.81
    8    9   35     -3.27     -3.97
    9    9   35     -0.14     -1.29
    7   10   35     -1.89      0.79
    8   10   35      0.29      0.50
    9   10   35      1.28     -0.07
    5   11   35      0.93      3.35
    6   11   35     -2.49     -1.08
    7   11   35     -1.96     -0.77
    8   11   35      0.01     -0.89
    0   12   35      4.74     -2.33
    1   12   35     -0.74     -1.06
    2   12   35     -1.11      0.37
    3   12   35     -2.23      4.01
    4   12   35     -1.20      0.20
    5   12   35     -0.67     -0.74
    6   12   35      0.52     -1.22
    7   12   35     -0.41     -1.40
    0   13   35     -2.11     -2.29
    1   13   35     -0.63      0.28
    2   13   35     -0.06      0.68
    3   13   35     -0.99     -2.85
    4   13   35      2.17      1.35
    5   13   35     -0.44     -0.29
    0   14   35     -2.51      2.37
    1   14   35     -1.01     -0.84
    8    9   36      0.14      4.33
    9    9   36     -2.27      0.18
    6   10   36      2.21      0.31
    7   10   36     -3.60      2.38
    8   10   36      0.94     -4.44
    9   10   36      0.78      0.62
    4   11   36     -1.37     -3.94
    5   11   36     -0.37     -1.87
    6   11   36     -1.39      0.66
    7   11   36      0.11      0.42
    8   11   36     -0.73     -1.34
    0   12   36     -1.38     -0.47
    1   12   36     -0.17      1.02
    2   12   36      0.00      0.00
    3   12   36     -2.21     -2.21
    4   12   36      0.13     -2.33
    5   12   36      1.43      1.99
    6   12   36     -1.44      1.13
    7   12   36     -1.99     -1.43
    0   13   36      0.24      3.26
    1   13   36     -1.79     -1.00
    2   13   36     -0.63     -1.27
    3   13   36      0.29      1.49
    4   13   36      1.22      0.00
    7    9   37      3.18      1.45
    8    9   37     -2.33      0.04
    9    9   37      0.00      1.40
    6   10   37     -1.17     -1.39
    7   10   37      1.77     -0.23
    8   10   37      0.74      1.06
    9   10   37     -0.91      1.32
    3   11   37      3.93     -2.08
    4   11   37     -1.36     -3.72
    5   11   37      1.93      0.00
    6   11   37      1.83      1.00
    7   11   37      0.33      0.95
    8   11   37     -0.74     -1.15
    0   12   37      2.78      3.14
    1   12   37      0.18      1.50
    2   12   37      0.39     -2.85
    3   12   37      1.17      1.18
    4   12   37     -1.27     -0.16
    5   12   37     -0.53      0.05
    6   12   37      0.43      0.86
    0   13   37      0.09     -0.21
    1   13   37      1.02     -0.47
    2   13   37      1.49      0.02
    3   13   37      0.55     -0.17
    4   13   37      0.12      0.81
    8    8   38      0.55      0.10
    7    9   38      1.83     -4.30
    8    9   38      2.74      3.26
    9    9   38     -3.36     -0.05
    5   10   38      0.65      1.72
    6   10   38      2.32     -1.24
    7   10   38     -1.45      1.19
    8   10   38     -1.66     -1.71
    1   11   38      1.01      2.25
    2   11   38      0.03     -1.44
    3   11   38      4.96      1.72
    4   11   38      2.21      2.75
    5   11   38     -0.43     -0.80
    6   11   38     -1.33     -0.32
    7   11   38      1.27      1.63
    0   12   38      0.39     -3.43
    1   12   38      3.13      0.37
    2   12   38     -0.41      2.73
    3   12   38     -0.35      0.24
    4   12   38      0.16      0.15
    5   12   38     -0.61      1.75
    0   13   38      0.54     -0.58
    1   13   38      1.34     -1.13
    2   13   38      1.15     -2.36
    3   13   38      0.94      0.36
    8    8   39     -0.23      1.11
    6    9   39      2.45      0.94
    7    9   39      2.96      0.04
    8    9   39     -0.88     -1.10
    9    9   39     -0.07     -2.39
    4   10   39      2.66      2.38
    5   10   39      2.63      1.23
    6   10   39     -3.07     -2.21
    7   10   39     -0.31     -0.71
    8   10   39      0.25      0.68
    0   11   39     -0.96     -0.57
    1   11   39      1.05     -2.64
    2   11   39      0.02      1.53
    3   11   39      2.18      1.73
    4   11   39     -0.74     -1.74
    5   11   39      0.72      0.01
    6   11   39     -0.95     -0.13
    7   11   39      0.44      0.99
    0   12   39      1.91     -0.84
    1   12   39     -0.79      1.11
    2   12   39      0.34      0.16
    3   12   39     -0.45      0.81
    4   12   39      0.07      0.12
    5   12   39      1.07      0.06
    0   13   39     -1.28     -1.45
    1   13   39     -0.67     -0.87
    7    8   40     -0.66      2.45
    8    8   40     -2.56     -0.02
    6    9   40      2.28      0.71
    7    9   40     -1.83     -2.64
    8    9   40      1.44      1.92
    9    9   40      0.77      0.18
    3   10   40     -2.50      0.29
    4   10   40     -3.47     -0.95
    5   10   40     -0.44     -0.32
    6   10   40      1.68     -0.12
    7   10   40     -0.85      0.85
    8   10   40      1.56     -0.84
    0   11   40     -1.90     -0.32
    1   11   40     -1.34     -0.13
    2   11   40     -2.51     -2.04
    3   11   40      0.38     -0.23
    4   11   40     -2.33     -0.65
    5   11   40      1.95     -2.38
    6   11   40     -0.73      0.71
    0   12   40     -0.02      0.16
    1   12   40      1.10     -0.49
    2   12   40     -2.00      1.44
    3   12   40     -0.29     -0.63
    4   12   40     -0.71     -0.97
    6    8   41      0.67     -2.48
    7    8   41     -0.32     -2.17
    8    8   41      0.00     -0.65
    5    9   41     -3.56     -2.95
    6    9   41      0.40     -0.02
    7    9   41     -1.03      0.48
    8    9   41     -1.08      1.45
    0   10   41      0.28      0.24
    1   10   41      0.08      0.67
    2   10   41      0.50      0.15
    3   10   41     -4.48     -2.30
    4   10   41     -0.49      0.36
    5   10   41     -0.40      0.81
    6   10   41     -0.33     -0.46
    7   10   41     -0.28      0.62
    0   11   41     -1.55      0.59
    1   11   41     -0.16     -0.80
    2   11   41     -3.28     -0.48
    3   11   41      0.57      0.40
    4   11   41      0.63     -1.95
    5   11   41     -0.14      0.60
    6   11   41     -0.69      0.95
    0   12   41      0.90      1.22
    1   12   41     -0.26      1.26
    2   12   41     -0.90     -1.20
    3   12   41     -0.74     -0.64
    7    7   42      1.19     -0.08
    6    8   42     -4.43     -0.43
    7    8   42      0.03      1.52
    8    8   42      0.34      0.11
    4    9   42     -1.72      0.12
    5    9   42     -4.11      1.19
    6    9   42     -1.33      1.63
    7    9   42      0.61     -1.31
    8    9   42      0.22      0.80
    0   10   42      2.44     -1.24
    1   10   42     -0.43      0.83
    2   10   42      0.37     -1.78
    3   10   42     -1.71     -1.03
    4   10   42      1.35      1.53
    5   10   42     -0.33      2.08
    6   10   42     -0.09     -0.08
    7   10   42     -0.80     -1.33
    0   11   42     -0.59     -0.05
    1   11   42     -1.28      0.71
    2   11   42      0.07     -0.05
    3   11   42      2.78      0.39
    4   11   42      0.46      0.14
    5   11   42      0.18     -0.49
    0   12   42     -0.18      0.70
    1   12   42      1.45     -0.35
    2   12   42     -1.78      0.77
    6    7   43      0.15      1.32
    7    7   43     -0.24      3.16
    5    8   43      0.96      0.69
    6    8   43     -2.56      2.37
    7    8   43      0.12      0.55
    8    8   43     -0.15     -0.55
    2    9   43     -3.19      0.15
    3    9   43      0.89      1.02
    4    9   43     -1.61      1.67
    5    9   43     -0.42      1.81
    6    9   43      1.70      2.05
    7    9   43      1.30     -0.66
    0   10   43      0.04      0.58
    1   10   43     -1.41     -0.55
    2   10   43      3.68      0.02
    3   10   43     -0.33      0.18
    4   10   43     -0.32      3.14
    5   10   43      0.56      1.41
    6   10   43      0.35     -1.96
    0   11   43     -0.80     -0.82
    1   11   43     -0.04     -0.46
    2   11   43      1.01     -0.44
    3   11   43      0.44      1.07
    4   11   43      0.98     -1.09
    6    7   44      1.00     -1.23
    7    7   44      2.15      0.19
    4    8   44     -1.04      0.30
    5    8   44      1.99     -0.92
    6    8   44      1.51     -2.50
    7    8   44      0.15      1.61
    8    8   44      0.85      0.00
    0    9   44     -0.67      3.76
    1    9   44     -0.69     -0.41
    2    9   44      0.27      5.58
    3    9   44      5.54      3.46
    4    9   44      0.98      0.51
    5    9   44      0.85     -2.20
    6    9   44      2.49     -0.11
    7    9   44      0.08     -0.14
    0   10   44     -1.96     -0.12
    1   10   44      2.77      1.80
    2   10   44      3.14      0.93
    3   10   44     -1.71     -0.63
    4   10   44     -1.64      0.23
    5   10   44      0.92     -1.04
    0   11   44     -0.50     -0.69
    1   11   44     -1.20     -1.26
    2   11   44     -1.72      0.30
    3   11   44      0.80     -0.10
    6    6   45     -0.04     -0.94
    5    7   45     -1.88      0.82
    6    7   45     -0.36     -2.42
    7    7   45      0.05     -0.06
    3    8   45     -1.18      1.04
    4    8   45      1.87      1.42
    5    8   45      1.77      0.24
    6    8   45      0.26     -0.37
    7    8   45      0.55     -0.70
    0    9   45     -2.19      1.83
    1    9   45      0.78     -0.59
    2    9   45     -1.51      2.10
    3    9   45      2.35      0.05
    4    9   45      1.66     -2.92
    5    9   45     -0.78     -2.57
    6    9   45     -0.02     -0.61
    0   10   45      1.45      1.55
    1   10   45      0.64     -0.19
    2   10   45      0.36      0.32
    3   10   45     -0.86     -0.77
    4   10   45      0.06     -1.04
    5   10   45      0.10      0.20
    0   11   45     -0.46      0.17
    1   11   45      0.80      0.49
    2   11   45     -1.22      1.07
    5    6   46      3.18     -1.15
    6    6   46     -1.44     -0.08
    4    7   46      0.94     -0.59
    5    7   46      1.69      0.76
    6    7   46     -1.01      2.46
    7    7   46      0.33     -0.12
    0    8   46     -0.12     -1.51
    1    8   46     -0.33      1.15
    2    8   46     -0.88     -2.68
    3    8   46     -2.22     -3.54
    4    8   46      1.60     -1.23
    5    8   46      2.23      2.34
    6    8   46     -1.86     -0.76
    7    8   46     -2.29      0.38
    0    9   46      5.87      0.10
    1    9   46     -1.74     -3.00
    2    9   46     -5.66     -2.10
    3    9   46      0.22     -2.39
    4    9   46      0.29     -0.34
    5    9   46     -1.23     -0.09
    6    9   46     -0.17      1.26
    0   10   46      0.76     -0.62
    1   10   46      0.06      0.98
    2   10   46      1.76     -0.45
    3   10   46     -0.82     -0.52
    4   10   46      0.71      1.80
    4    6   47      0.37      1.18
    5    6   47     -0.44     -0.11
    6    6   47      0.19      2.92
    2    7   47      1.66      1.84
    3    7   47      0.71     -0.69
    4    7   47      0.65      0.70
    5    7   47      0.66     -0.29
    6    7   47     -0.30     -0.26
    7    7   47     -0.06      0.37
    0    8   47      1.36     -1.43
    1    8   47      0.03     -0.27
    2    8   47      3.61     -0.09
    3    8   47     -0.93     -1.21
    4    8   47     -0.42     -0.75
    5    8   47     -0.11     -0.86
    6    8   47     -0.36     -0.06
    0    9   47      0.30      0.41
    1    9   47      0.28     -0.93
    2    9   47     -1.08      0.88
    3    9   47     -0.33      0.29
    4    9   47     -0.93      0.71
    5    9   47     -0.58      0.77
    0   10   47     -0.10      0.20
    1   10   47     -0.43     -0.68
    2   10   47      0.80     -1.16
    5    5   48     -2.72      0.07
    3    6   48     -0.40     -1.93
    4    6   48      0.75     -0.22
    5    6   48      2.14      1.34
    6    6   48     -0.70      0.35
    0    7   48      0.79     -2.28
    1    7   48      0.24     -2.31
    2    7   48      2.84     -2.40
    3    7   48      0.91      1.82
    4    7   48     -2.08      1.57
    5    7   48     -1.89     -1.47
    6    7   48     -0.84     -0.04
    7    7   48      3.83      0.09
    0    8   48     -3.80     -0.12
    1    8   48      0.66      1.67
    2    8   48      3.31      0.78
    3    8   48      1.05      1.39
    4    8   48     -1.69      0.42
    5    8   48     -0.95      0.51
    6    8   48      0.02     -1.43
    0    9   48     -0.10      1.62
    1    9   48      0.27     -0.80
    2    9   48     -0.13      1.92
    3    9   48      1.54      0.64
    4    9   48     -1.10      0.48
    0   10   48     -0.93     -0.13
    3    5   49      0.06     -0.31
    4    5   49     -1.88     -1.81
    5    5   49     -0.05     -0.19
    0    6   49      1.30      1.32
    1    6   49      0.62     -3.09
    2    6   49     -1.38     -1.87
    3    6   49     -1.44     -0.72
    4    6   49      0.51     -0.56
    5    6   49     -0.24     -2.42
    6    6   49     -0.11     -0.04
    0    7   49      2.01     -2.05
    1    7   49      0.18     -0.45
    2    7   49     -0.18     -0.05
    3    7   49     -1.86     -1.16
    4    7   49      0.40      0.38
    5    7   49      0.41      0.08
    6    7   49     -0.86      0.34
    0    8   49      0.54      0.46
    1    8   49     -1.97     -0.55
    2    8   49      0.50     -1.65
    3    8   49     -1.54     -0.47
    4    8   49      0.33      0.15
    5    8   49     -0.27      1.57
    0    9   49     -0.24      0.33
    1    9   49     -0.56     -0.19
    2    9   49     -0.21      0.26
    3    9   49      1.42      0.57
    3    4   50     -0.74     -1.99
    4    4   50     -2.91      0.01
    0    5   50      0.95      0.11
    1    5   50     -3.82     -4.61
    2    5   50      0.67     -0.39
    3    5   50     -1.23      4.89
    4    5   50     -1.07      1.31
    5    5   50     -6.59      0.04
    0    6   50     -0.90     -4.36
    1    6   50     -0.87      3.22
    2    6   50     -3.17      1.63
    3    6   50     -0.06      2.48
    4    6   50     -1.13     -1.27
    5    6   50      1.50      0.26
    6    6   50      1.20     -0.09
    0    7   50      0.30     -0.11
    1    7   50     -0.31      0.92
    2    7   50     -0.06      0.75
    3    7   50     -0.81      0.07
    4    7   50     -0.30     -0.35
    5    7   50      1.60     -0.80
    0    8   50     -0.15     -2.74
    1    8   50     -0.26      0.48
    2    8   50     -1.91     -1.27
    3    8   50      0.14     -0.81
    4    8   50      1.05      0.21
    0    9   50      1.97      0.14
    1    9   50     -0.49      0.18
    3    3   51      0.03     -0.37
    0    4   51     -0.28      0.19
    1    4   51     -0.85      1.07
    2    4   51     -0.32     -0.31
    3    4   51      0.14     -0.53
    4    4   51     -0.02      0.08
    0    5   51     -2.18     -2.31
    1    5   51      1.59     -0.35
    2    5   51     -0.54      1.26
    3    5   51      1.55     -0.18
    4    5   51      0.78     -0.24
    5    5   51      0.07      3.05
    0    6   51     -2.82      2.83
    1    6   51     -0.85      1.75
    2    6   51      0.05      0.06
    3    6   51      1.47     -0.17
    4    6   51      0.34      0.69
    5    6   51     -1.29     -0.27
    6    6   51      0.13      0.05
    0    7   51     -0.51     -0.52
    1    7   51     -0.76      0.22
    2    7   51      0.86      1.90
    3    7   51     -0.95     -0.08
    4    7   51      0.65      0.68
    0    8   51     -0.46      0.27
    1    8   51     -0.32      0.07
    2    8   51      1.47      0.62
    2    2   52      0.96      0.10
    0    3   52     -0.19     -1.36
    1    3   52      0.95      2.01
    2    3   52      2.63
;
_shelx_fab_checksum              37169
loop_
_space_group_symop_operation_xyz
'x, y, z'
'-x, -y, z+1/2'
'-y+1/2, x+1/2, z+3/4'
'y+1/2, -x+1/2, z+1/4'
'-x+1/2, y+1/2, -z+3/4'
'x+1/2, -y+1/2, -z+1/4'
'y, x, -z'
'-y, -x, -z+1/2'
loop_
_atom_site_label
_atom_site_type_symbol
_atom_site_fract_x
_atom_site_fract_y
_atom_site_fract_z
_atom_site_U_iso_or_equiv
_atom_site_adp_type
_atom_site_occupancy
_atom_site_site_symmetry_order
_atom_site_calc_flag
_atom_site_refinement_flags_posn
_atom_site_refinement_flags_adp
Ru1 Ru 0.90754(19) 1.08953(19) -0.00715(4) 0.0416(6) Uani 1 1 d . .
O21 O 1.0197(12) 1.0045(12) -0.0281(3) 0.045(4) Uani 1 1 d . U
N22 N 0.8161(16) 0.9696(17) -0.0169(4) 0.043(5) Uani 1 1 d . U
N23 N 0.8243(17) 1.1313(17) 0.0263(4) 0.051(5) Uani 1 1 d . U
N24 N 1.0044(14) 1.2033(15) -0.0030(4) 0.044(4) Uani 1 1 d . U
C1 C 1.049(2) 1.126(2) -0.0666(5) 0.041(5) Uani 1 1 d . U
C2A C 1.037(2) 1.202(2) -0.1187(5) 0.048(5) Uani 1 1 d . U
H2AA H 1.0681 1.2586 -0.1108 0.058 Uiso 1 1 calc R U
C2 C 1.018(2) 1.134(2) -0.0977(5) 0.047(5) Uani 1 1 d . U
C2C C 0.975(2) 1.149(2) -0.1676(5) 0.055(6) Uani 1 1 d . U
H2CA H 0.9760 1.1660 -0.1880 0.066 Uiso 1 1 calc R U
C2B C 1.022(2) 1.209(2) -0.1492(5) 0.053(6) Uani 1 1 d . U
H2BA H 1.0490 1.2651 -0.1582 0.064 Uiso 1 1 calc R U
C3A C 0.909(2) 1.022(2) -0.1328(5) 0.059(6) Uani 1 1 d . U
H3AA H 0.8623 0.9711 -0.1328 0.071 Uiso 1 1 calc R U
C3B C 0.926(2) 1.065(2) -0.1598(5) 0.058(6) Uani 1 1 d . U
H3BA H 0.8989 1.0301 -0.1761 0.069 Uiso 1 1 calc R U
C3 C 0.952(2) 1.045(2) -0.1042(5) 0.049(5) Uani 1 1 d . U
C4 C 0.9418(19) 0.993(2) -0.0755(5) 0.044(5) Uani 1 1 d . U
C5 C 0.8705(18) 0.919(2) -0.0684(5) 0.043(5) Uani 1 1 d . U
C6 C 0.8205(19) 0.906(2) -0.0416(5) 0.042(5) Uani 1 1 d . U
C7 C 0.745(2) 0.835(2) -0.0375(5) 0.045(5) Uani 1 1 d . U
H7A H 0.7349 0.7793 -0.0499 0.055 Uiso 1 1 calc R U
C8 C 0.687(2) 0.859(2) -0.0125(5) 0.048(6) Uani 1 1 d . U
H8A H 0.6303 0.8252 -0.0056 0.058 Uiso 1 1 calc R U
C9 C 0.7325(19) 0.9461(19) 0.0004(6) 0.043(5) Uani 1 1 d . U
C10 C 0.696(2) 1.004(2) 0.0253(5) 0.048(5) Uani 1 1 d . U
C11 C 0.738(2) 1.089(3) 0.0370(5) 0.050(5) Uani 1 1 d . U
C12 C 0.703(2) 1.147(2) 0.0637(5) 0.049(6) Uani 1 1 d . U
H12A H 0.6462 1.1336 0.0753 0.059 Uiso 1 1 calc R U
C13 C 0.766(2) 1.220(2) 0.0680(5) 0.048(5) Uani 1 1 d . U
H13A H 0.7611 1.2684 0.0829 0.057 Uiso 1 1 calc R U
C14 C 0.847(2) 1.212(2) 0.0449(6) 0.048(5) Uani 1 1 d . U
C15 C 0.926(2) 1.276(2) 0.0440(5) 0.049(5) Uani 1 1 d . U
C16 C 1.004(2) 1.267(2) 0.0222(6) 0.047(5) Uani 1 1 d . U
C17 C 1.093(2) 1.324(2) 0.0202(5) 0.054(6) Uani 1 1 d . U
H17A H 1.1133 1.3702 0.0345 0.065 Uiso 1 1 calc R U
C18 C 1.145(2) 1.3021(19) -0.0047(5) 0.048(5) Uani 1 1 d . U
H18A H 1.2058 1.3293 -0.0101 0.057 Uiso 1 1 calc R U
C19 C 1.089(2) 1.228(2) -0.0220(5) 0.044(5) Uani 1 1 d . U
C20 C 1.106(2) 1.197(2) -0.0507(5) 0.045(5) Uani 1 1 d . U
C21 C 1.0059(19) 1.044(2) -0.0537(6) 0.044(5) Uani 1 1 d . U
C25 C 0.849(2) 0.841(2) -0.0919(5) 0.048(5) Uani 1 1 d . U
C26 C 0.931(2) 0.794(2) -0.1059(5) 0.056(6) Uani 1 1 d . U
H26A H 0.9955 0.8091 -0.0996 0.067 Uiso 1 1 calc R U
C27 C 0.916(2) 0.727(2) -0.1286(5) 0.056(6) Uani 1 1 d . U
H27A H 0.9706 0.6945 -0.1372 0.067 Uiso 1 1 calc R U
C28 C 0.822(2) 0.706(2) -0.1387(6) 0.053(6) Uani 1 1 d . U
H28A H 0.8134 0.6600 -0.1543 0.063 Uiso 1 1 calc R U
C29 C 0.739(2) 0.751(2) -0.1268(5) 0.050(6) Uani 1 1 d . U
H29A H 0.6755 0.7340 -0.1331 0.060 Uiso 1 1 calc R U
C30 C 0.755(2) 0.823(2) -0.1045(5) 0.051(6) Uani 1 1 d . U
H30A H 0.7015 0.8600 -0.0977 0.061 Uiso 1 1 calc R U
C31 C 0.603(2) 0.962(2) 0.0397(5) 0.055(5) Uani 1 1 d . U
C32 C 0.515(2) 0.990(3) 0.0322(6) 0.064(6) Uani 1 1 d . U
H32A H 0.5105 1.0391 0.0175 0.076 Uiso 1 1 calc R U
C33 C 0.425(2) 0.953(2) 0.0440(6) 0.069(6) Uani 1 1 d . U
H33A H 0.3633 0.9787 0.0380 0.083 Uiso 1 1 calc R U
C34 C 0.432(2) 0.880(2) 0.0644(6) 0.069(6) Uani 1 1 d . U
H34A H 0.3750 0.8529 0.0730 0.083 Uiso 1 1 calc R U
C35 C 0.522(3) 0.844(3) 0.0727(6) 0.070(6) Uani 1 1 d . U
H35A H 0.5265 0.7952 0.0874 0.084 Uiso 1 1 calc R U
C36 C 0.607(2) 0.881(2) 0.0591(5) 0.063(6) Uani 1 1 d . U
H36A H 0.6683 0.8516 0.0631 0.075 Uiso 1 1 calc R U
C37 C 0.943(2) 1.358(2) 0.0654(6) 0.051(5) Uani 1 1 d . U
C38 C 0.953(2) 1.344(2) 0.0967(6) 0.054(6) Uani 1 1 d . U
H38A H 0.9481 1.2794 0.1043 0.065 Uiso 1 1 calc R U
C39 C 0.968(2) 1.419(2) 0.1160(5) 0.052(6) Uani 1 1 d . U
H39A H 0.9747 1.4058 0.1366 0.062 Uiso 1 1 calc R U
C40 C 0.974(2) 1.519(2) 0.1058(6) 0.056(6) Uani 1 1 d . U
H40A H 0.9831 1.5718 0.1193 0.067 Uiso 1 1 calc R U
C41 C 0.967(2) 1.535(2) 0.0758(6) 0.062(6) Uani 1 1 d . U
H41A H 0.9733 1.5990 0.0682 0.074 Uiso 1 1 calc R U
C42 C 0.948(2) 1.454(2) 0.0554(6) 0.055(6) Uani 1 1 d . U
H42A H 0.9404 1.4667 0.0349 0.066 Uiso 1 1 calc R U
C43 C 1.188(2) 1.249(2) -0.0671(6) 0.054(5) Uani 1 1 d . U
C44 C 1.200(2) 1.355(2) -0.0674(6) 0.060(6) Uani 1 1 d . U
H44A H 1.1551 1.3949 -0.0568 0.073 Uiso 1 1 calc R U
C45 C 1.279(2) 1.400(3) -0.0839(5) 0.059(6) Uani 1 1 d . U
H45A H 1.2890 1.4687 -0.0842 0.071 Uiso 1 1 calc R U
C46 C 1.339(2) 1.336(2) -0.0990(6) 0.059(6) Uani 1 1 d . U
H46A H 1.3923 1.3640 -0.1095 0.071 Uiso 1 1 calc R U
C47 C 1.329(2) 1.245(2) -0.1002(6) 0.060(6) Uani 1 1 d . U
H47A H 1.3727 1.2083 -0.1123 0.072 Uiso 1 1 calc R U
C48 C 1.254(2) 1.193(2) -0.0840(5) 0.054(6) Uani 1 1 d . U
H48A H 1.2500 1.1237 -0.0847 0.065 Uiso 1 1 calc R U
O200 C 0.841(2) 1.156(2) -0.0354(6) 0.052(7) Uiso 1 1 d . U
C200 O 0.7959(16) 1.2066(16) -0.0523(4) 0.069(6) Uiso 1 1 d . U
loop_
_atom_site_aniso_label
_atom_site_aniso_U_11
_atom_site_aniso_U_22
_atom_site_aniso_U_33
_atom_site_aniso_U_23
_atom_site_aniso_U_13
_atom_site_aniso_U_12
Ru1 0.0471(16) 0.0516(17) 0.0263(10) -0.0041(13) 0.0032(13) -0.0065(14)
O21 0.050(11) 0.048(11) 0.036(9) -0.005(8) 0.007(9) -0.001(9)
N22 0.046(10) 0.056(10) 0.028(9) -0.009(8) -0.003(8) -0.006(10)
N23 0.057(11) 0.072(12) 0.023(9) -0.012(8) 0.001(9) -0.004(10)
N24 0.049(10) 0.048(10) 0.034(9) -0.003(9) -0.005(9) -0.005(9)
C1 0.051(10) 0.048(10) 0.025(8) 0.003(8) 0.018(8) -0.004(9)
C2A 0.060(11) 0.057(12) 0.027(10) -0.005(10) 0.014(10) 0.007(11)
C2 0.056(10) 0.055(10) 0.030(9) -0.004(8) 0.019(9) 0.002(9)
C2C 0.069(13) 0.069(13) 0.028(10) 0.000(10) 0.008(10) -0.002(12)
C2B 0.066(12) 0.068(13) 0.026(10) -0.007(10) 0.008(10) 0.001(11)
C3A 0.072(12) 0.073(12) 0.032(10) 0.005(10) 0.002(11) -0.006(11)
C3B 0.069(13) 0.074(13) 0.030(10) 0.004(10) 0.007(11) -0.007(11)
C3 0.058(10) 0.060(10) 0.029(8) 0.003(9) 0.010(9) -0.003(9)
C4 0.052(10) 0.054(10) 0.025(8) 0.006(8) 0.009(8) -0.006(9)
C5 0.051(10) 0.056(10) 0.021(8) -0.002(8) 0.002(8) -0.010(9)
C6 0.047(10) 0.056(10) 0.021(8) -0.005(9) -0.001(8) -0.011(9)
C7 0.051(12) 0.060(12) 0.025(10) -0.010(10) -0.005(10) -0.011(11)
C8 0.053(12) 0.063(12) 0.027(10) -0.004(10) -0.005(9) -0.008(11)
C9 0.049(10) 0.058(10) 0.023(9) -0.012(9) -0.001(8) -0.005(9)
C10 0.049(10) 0.069(10) 0.028(9) -0.013(8) 0.001(9) 0.004(9)
C11 0.049(10) 0.076(11) 0.024(8) -0.012(9) 0.001(8) 0.000(10)
C12 0.043(12) 0.079(13) 0.026(10) -0.014(10) -0.001(10) -0.006(11)
C13 0.047(12) 0.071(13) 0.026(10) -0.018(10) -0.004(10) -0.010(10)
C14 0.051(10) 0.066(11) 0.028(9) -0.014(9) -0.001(8) 0.000(9)
C15 0.055(10) 0.058(10) 0.035(8) -0.020(8) 0.001(9) -0.002(9)
C16 0.050(10) 0.053(10) 0.038(9) -0.014(9) 0.002(9) -0.006(9)
C17 0.062(12) 0.062(11) 0.040(10) -0.012(10) 0.007(11) -0.009(11)
C18 0.061(12) 0.056(11) 0.026(10) -0.002(10) 0.012(10) -0.012(11)
C19 0.053(10) 0.051(10) 0.028(8) 0.006(8) 0.002(9) -0.011(9)
C20 0.051(10) 0.055(10) 0.028(8) 0.007(8) 0.008(9) -0.015(9)
C21 0.051(10) 0.049(10) 0.031(9) 0.001(8) 0.013(9) -0.003(9)
C25 0.063(11) 0.053(10) 0.028(9) -0.006(8) 0.008(9) 0.000(10)
C26 0.071(13) 0.056(12) 0.040(11) -0.014(9) 0.001(10) 0.002(11)
C27 0.073(13) 0.052(12) 0.042(11) -0.008(10) 0.002(11) 0.008(12)
C28 0.070(14) 0.049(12) 0.039(11) 0.004(10) 0.001(11) 0.010(12)
C29 0.068(13) 0.045(12) 0.036(11) 0.000(10) 0.009(11) 0.010(11)
C30 0.068(12) 0.051(12) 0.033(11) -0.002(9) 0.009(11) 0.008(11)
C31 0.050(11) 0.082(11) 0.034(9) -0.006(9) -0.007(10) 0.000(11)
C32 0.056(13) 0.094(13) 0.041(11) 0.009(10) -0.010(11) -0.001(13)
C33 0.055(13) 0.099(14) 0.053(12) 0.009(10) -0.010(12) 0.003(13)
C34 0.058(13) 0.099(15) 0.049(12) 0.002(11) -0.009(12) 0.000(13)
C35 0.066(14) 0.094(14) 0.049(12) -0.003(11) -0.006(12) 0.000(13)
C36 0.056(13) 0.089(14) 0.044(11) -0.002(10) -0.001(11) -0.003(13)
C37 0.053(10) 0.061(11) 0.040(9) -0.025(9) 0.010(9) 0.000(10)
C38 0.055(11) 0.067(12) 0.041(11) -0.028(11) 0.003(10) 0.000(11)
C39 0.053(11) 0.069(13) 0.035(11) -0.030(11) 0.006(10) 0.000(12)
C40 0.052(11) 0.070(13) 0.045(12) -0.024(12) 0.008(11) 0.000(12)
C41 0.055(11) 0.071(13) 0.060(12) -0.020(12) 0.014(11) -0.002(12)
C42 0.050(11) 0.062(12) 0.052(11) -0.024(11) 0.018(10) 0.005(12)
C43 0.057(11) 0.064(11) 0.042(10) 0.000(10) 0.008(9) -0.017(10)
C44 0.061(13) 0.070(13) 0.050(11) -0.006(11) 0.004(10) -0.014(12)
C45 0.060(13) 0.070(14) 0.048(11) -0.003(12) 0.012(10) -0.013(12)
C46 0.055(13) 0.071(14) 0.051(11) -0.004(12) 0.011(10) -0.017(12)
C47 0.055(13) 0.074(14) 0.050(11) -0.008(12) 0.008(10) -0.018(12)
C48 0.056(13) 0.062(13) 0.044(11) -0.008(11) 0.011(10) -0.018(11)
loop_
_atom_type_symbol
_atom_type_description
_atom_type_scat_dispersion_real
_atom_type_scat_dispersion_imag
_atom_type_scat_source
C C 0.0033 0.0016 'International Tables Vol C Tables 4.2.6.8 and 6.1.1.4'
H H 0.0000 0.0000 'International Tables Vol C Tables 4.2.6.8 and 6.1.1.4'
N N 0.0061 0.0033 'International Tables Vol C Tables 4.2.6.8 and 6.1.1.4'
O O 0.0106 0.0060 'International Tables Vol C Tables 4.2.6.8 and 6.1.1.4'
Ru Ru -1.2594 0.8363 'International Tables Vol C Tables 4.2.6.8 and 6.1.1.4'
Cl Cl 0.1484 0.1585 'International Tables Vol C Tables 4.2.6.8 and 6.1.1.4'
loop_
_geom_angle_atom_site_label_1
_geom_angle_atom_site_label_2
_geom_angle_atom_site_label_3
_geom_angle
_geom_angle_site_symmetry_1
_geom_angle_site_symmetry_3
O200 Ru1 N23 95.8(10) . .
O200 Ru1 N24 90.4(12) . .
N23 Ru1 N24 94.8(9) . .
O200 Ru1 N22 87.0(12) . .
N23 Ru1 N22 92.4(9) . .
N24 Ru1 N22 172.6(8) . .
O200 Ru1 O21 108.9(9) . .
N23 Ru1 O21 154.9(8) . .
N24 Ru1 O21 89.4(7) . .
N22 Ru1 O21 84.9(7) . .
O200 Ru1 O21 173.3(12) . 7
N23 Ru1 O21 85.7(7) . 7
N24 Ru1 O21 83.0(7) . 7
N22 Ru1 O21 99.5(7) . 7
O21 Ru1 O21 70.2(6) . 7
O200 Ru1 C21 79.1(10) . .
N23 Ru1 C21 174.9(9) . .
N24 Ru1 C21 85.4(8) . .
N22 Ru1 C21 87.3(8) . .
O21 Ru1 C21 30.1(6) . .
O21 Ru1 C21 99.3(8) 7 .
C21 O21 Ru1 93.4(16) . .
C21 O21 Ru1 158.4(17) . 7
Ru1 O21 Ru1 108.1(6) . 7
C6 N22 C9 109(2) . .
C6 N22 Ru1 128.1(18) . .
C9 N22 Ru1 122.6(17) . .
C11 N23 C14 107(2) . .
C11 N23 Ru1 129(2) . .
C14 N23 Ru1 123.5(19) . .
C16 N24 C19 109(2) . .
C16 N24 Ru1 122.2(17) . .
C19 N24 Ru1 128.8(17) . .
C21 C1 C20 124(2) . .
C21 C1 C2 109(3) . .
C20 C1 C2 126(3) . .
C2 C2A C2B 135(3) . .
C2A C2 C1 131(3) . .
C2A C2 C3 122(3) . .
C1 C2 C3 107(2) . .
C2B C2C C3B 126(3) . .
C2C C2B C2A 131(3) . .
C3B C3A C3 129(3) . .
C3A C3B C2C 132(3) . .
C3A C3 C4 129(3) . .
C3A C3 C2 125(2) . .
C4 C3 C2 106(2) . .
C5 C4 C3 126(3) . .
C5 C4 C21 126(2) . .
C3 C4 C21 107(3) . .
C6 C5 C4 128(3) . .
C6 C5 C25 114(3) . .
C4 C5 C25 118(2) . .
C5 C6 N22 128(3) . .
C5 C6 C7 124(3) . .
N22 C6 C7 107(2) . .
C8 C7 C6 111(2) . .
C7 C8 C9 105(3) . .
N22 C9 C10 125(3) . .
N22 C9 C8 108(2) . .
C10 C9 C8 127(3) . .
C11 C10 C9 127(3) . .
C11 C10 C31 119(3) . .
C9 C10 C31 114(3) . .
C10 C11 N23 124(3) . .
C10 C11 C12 127(3) . .
N23 C11 C12 109(3) . .
C13 C12 C11 107(3) . .
C12 C13 C14 109(3) . .
C15 C14 N23 130(3) . .
C15 C14 C13 123(3) . .
N23 C14 C13 108(3) . .
C14 C15 C16 122(3) . .
C14 C15 C37 125(3) . .
C16 C15 C37 112(3) . .
N24 C16 C17 106(2) . .
N24 C16 C15 126(3) . .
C17 C16 C15 128(3) . .
C18 C17 C16 112(3) . .
C17 C18 C19 108(3) . .
C20 C19 N24 127(3) . .
C20 C19 C18 128(3) . .
N24 C19 C18 105(2) . .
C19 C20 C1 125(3) . .
C19 C20 C43 116(3) . .
C1 C20 C43 118(2) . .
O21 C21 C1 130(3) . .
O21 C21 C4 118(2) . .
C1 C21 C4 111(3) . .
O21 C21 Ru1 56.4(12) . .
C1 C21 Ru1 111.4(18) . .
C4 C21 Ru1 110.0(17) . .
C30 C25 C26 117(2) . .
C30 C25 C5 124(3) . .
C26 C25 C5 118(3) . .
C27 C26 C25 120(3) . .
C26 C27 C28 120(3) . .
C29 C28 C27 122(3) . .
C28 C29 C30 117(3) . .
C29 C30 C25 123(3) . .
C32 C31 C36 115(3) . .
C32 C31 C10 123(3) . .
C36 C31 C10 121(3) . .
C31 C32 C33 127(3) . .
C34 C33 C32 116(3) . .
C35 C34 C33 121(3) . .
C34 C35 C36 120(3) . .
C31 C36 C35 121(3) . .
C42 C37 C38 116(3) . .
C42 C37 C15 121(3) . .
C38 C37 C15 123(3) . .
C39 C38 C37 123(3) . .
C38 C39 C40 121(3) . .
C41 C40 C39 117(3) . .
C40 C41 C42 121(3) . .
C37 C42 C41 122(3) . .
C48 C43 C44 118(3) . .
C48 C43 C20 119(3) . .
C44 C43 C20 123(3) . .
C45 C44 C43 120(3) . .
C46 C45 C44 115(3) . .
C47 C46 C45 126(3) . .
C46 C47 C48 123(3) . .
C43 C48 C47 118(3) . .
C200 O200 Ru1 174(3) . .
loop_
_geom_bond_atom_site_label_1
_geom_bond_atom_site_label_2
_geom_bond_distance
_geom_bond_site_symmetry_2
Ru1 O200 1.77(3) .
Ru1 N23 1.94(2) .
Ru1 N24 2.015(19) .
Ru1 N22 2.07(2) .
Ru1 O21 2.104(17) .
Ru1 O21 2.235(17) 7
Ru1 C21 2.52(2) .
O21 C21 1.27(2) .
O21 Ru1 2.235(17) 7
N22 C6 1.39(3) .
N22 C9 1.39(3) .
N23 C11 1.38(3) .
N23 C14 1.39(3) .
N24 C16 1.41(3) .
N24 C19 1.45(3) .
C1 C21 1.37(3) .
C1 C20 1.40(3) .
C1 C2 1.44(3) .
C2A C2 1.33(3) .
C2A C2B 1.36(3) .
C2 C3 1.51(4) .
C2C C2B 1.30(3) .
C2C C3B 1.36(3) .
C3A C3B 1.34(3) .
C3A C3 1.42(3) .
C3 C4 1.45(3) .
C4 C5 1.41(3) .
C4 C21 1.46(3) .
C5 C6 1.37(3) .
C5 C25 1.51(3) .
C6 C7 1.41(3) .
C7 C8 1.39(3) .
C8 C9 1.45(3) .
C9 C10 1.44(3) .
C10 C11 1.38(4) .
C10 C31 1.51(4) .
C11 C12 1.49(3) .
C12 C13 1.31(4) .
C13 C14 1.50(3) .
C14 C15 1.37(4) .
C15 C16 1.43(3) .
C15 C37 1.47(3) .
C16 C17 1.42(4) .
C17 C18 1.33(3) .
C18 C19 1.46(3) .
C19 C20 1.36(3) .
C20 C43 1.49(3) .
C25 C30 1.40(3) .
C25 C26 1.41(4) .
C26 C27 1.37(3) .
C27 C28 1.38(4) .
C28 C29 1.36(4) .
C29 C30 1.40(3) .
C31 C32 1.28(4) .
C31 C36 1.38(4) .
C32 C33 1.41(4) .
C33 C34 1.34(4) .
C34 C35 1.34(4) .
C35 C36 1.39(4) .
C37 C42 1.36(3) .
C37 C38 1.40(3) .
C38 C39 1.34(3) .
C39 C40 1.42(3) .
C40 C41 1.35(3) .
C41 C42 1.43(3) .
C43 C48 1.38(3) .
C43 C44 1.44(4) .
C44 C45 1.43(3) .
C45 C46 1.35(4) .
C46 C47 1.24(4) .
C47 C48 1.42(3) .
O200 C200 1.18(3) .
