#------------------------------------------------------------------------------
#$Date: 2017-03-04 15:10:06 +0200 (Sat, 04 Mar 2017) $
#$Revision: 193420 $
#$URL: file:///home/coder/svn-repositories/cod/cif/4/34/50/4345083.cif $
#------------------------------------------------------------------------------
#
# This file is available in the Crystallography Open Database (COD),
# http://www.crystallography.net/
#
# All data on this site have been placed in the public domain by the
# contributors.
#
data_4345083
loop_
_publ_author_name
'Ning, Yingying'
'Ke, Xian-Sheng'
'Hu, Ji-Yun'
'Liu, Yi-Wei'
'Ma, Fang'
'Sun, Hao-Ling'
'Zhang, Jun-Long'
_publ_section_title
;
 Bioinspired Orientation of \b-Substituents on Porphyrin Antenna Ligands
 Switches Ytterbium(III) NIR Emission with Thermosensitivity.
;
_journal_issue                   4
_journal_name_full               'Inorganic chemistry'
_journal_page_first              1897
_journal_page_last               1905
_journal_paper_doi               10.1021/acs.inorgchem.6b02481
_journal_volume                  56
_journal_year                    2017
_chemical_formula_sum            'C14.5 H8.25 Co0.25 F5 N O3.25 P0.75 Yb0.25'
_chemical_formula_weight         424.69
_chemical_name_systematic
;
 ?
;
_space_group_crystal_system      orthorhombic
_space_group_IT_number           59
_space_group_name_Hall           '-P 2ab 2a'
_space_group_name_H-M_alt        'P m m n'
_symmetry_space_group_name_Hall  '-P 2ab 2a'
_symmetry_space_group_name_H-M   'P m m n :2'
_atom_sites_solution_hydrogens   geom
_audit_creation_method           SHELXL-2014
_cell_angle_alpha                90
_cell_angle_beta                 90
_cell_angle_gamma                90
_cell_formula_units_Z            8
_cell_length_a                   15.8894(6)
_cell_length_b                   23.4727(8)
_cell_length_c                   10.1435(3)
_cell_measurement_reflns_used    7422
_cell_measurement_temperature    180.00(10)
_cell_measurement_theta_max      27.9250
_cell_measurement_theta_min      3.3420
_cell_volume                     3783.2(2)
_computing_structure_refinement  'SHELXL-2014 (Sheldrick, 2014)'
_diffrn_ambient_temperature      180.00(10)
_diffrn_detector_area_resol_mean 10.3914
_diffrn_measured_fraction_theta_full 0.973
_diffrn_measured_fraction_theta_max 0.997
_diffrn_measurement_device_type
;
SuperNova, Dual, Cu at zero, Atlas
;
_diffrn_radiation_type           MoK\a
_diffrn_radiation_wavelength     0.71073
_diffrn_reflns_av_R_equivalents  0.0341
_diffrn_reflns_av_unetI/netI     0.0333
_diffrn_reflns_Laue_measured_fraction_full 0.973
_diffrn_reflns_Laue_measured_fraction_max 0.997
_diffrn_reflns_limit_h_max       14
_diffrn_reflns_limit_h_min       -18
_diffrn_reflns_limit_k_max       24
_diffrn_reflns_limit_k_min       -27
_diffrn_reflns_limit_l_max       12
_diffrn_reflns_limit_l_min       -12
_diffrn_reflns_number            13570
_diffrn_reflns_point_group_measured_fraction_full 0.973
_diffrn_reflns_point_group_measured_fraction_max 0.997
_diffrn_reflns_theta_full        25.242
_diffrn_reflns_theta_max         24.994
_diffrn_reflns_theta_min         2.902
_diffrn_source
;
SuperNova (Mo) X-ray Source
;
_exptl_absorpt_coefficient_mu    1.615
_exptl_absorpt_correction_T_max  1.00000
_exptl_absorpt_correction_T_min  0.74540
_exptl_absorpt_correction_type   multi-scan
_exptl_absorpt_process_details
;
CrysAlisPro, Agilent Technologies,
Version 1.171.36.32 (release 02-08-2013 CrysAlis171 .NET)
(compiled Aug  2 2013,16:46:58)
Empirical absorption correction using spherical harmonics,
 implemented in SCALE3 ABSPACK scaling algorithm.
;
_exptl_crystal_colour            purple
_exptl_crystal_density_diffrn    1.491
_exptl_crystal_description       block
_exptl_crystal_F_000             1670
_refine_diff_density_max         0.764
_refine_diff_density_min         -0.419
_refine_diff_density_rms         0.106
_refine_ls_extinction_method     none
_refine_ls_goodness_of_fit_ref   1.061
_refine_ls_hydrogen_treatment    constr
_refine_ls_matrix_type           full
_refine_ls_number_parameters     279
_refine_ls_number_reflns         3546
_refine_ls_number_restraints     3
_refine_ls_restrained_S_all      1.060
_refine_ls_R_factor_all          0.0397
_refine_ls_R_factor_gt           0.0340
_refine_ls_shift/su_max          0.000
_refine_ls_shift/su_mean         0.000
_refine_ls_structure_factor_coef Fsqd
_refine_ls_weighting_details
'w=1/[\s^2^(Fo^2^)+(0.0637P)^2^+4.0042P] where P=(Fo^2^+2Fc^2^)/3'
_refine_ls_weighting_scheme      calc
_refine_ls_wR_factor_gt          0.0976
_refine_ls_wR_factor_ref         0.1008
_reflns_Friedel_coverage         0.000
_reflns_number_gt                3230
_reflns_number_total             3546
_reflns_threshold_expression     'I > 2\s(I)'
_cod_data_source_file            ic6b02481_si_003.cif
_cod_data_source_block           exp_3209
_cod_depositor_comments
'Adding full bibliography for 4345083--4345084.cif.'
_cod_original_formula_sum        'C14.50 H8.25 Co0.25 F5 N O3.25 P0.75 Yb0.25'
_cod_database_code               4345083
_shelx_space_group_comment
;
The symmetry employed for this shelxl refinement is uniquely defined
by the following loop, which should always be used as a source of
symmetry information in preference to the above space-group names.
They are only intended as comments.
;
_shelxl_version_number           2014-3
_shelx_res_file
;
TITL 1 exp_3209
CELL  0.71073   15.8894   23.4727   10.1435    90.000    90.000    90.000
ZERR        8    0.0006    0.0008    0.0003     0.000     0.000     0.000
LATT 1
SYMM     0.50000 - X ,    0.50000 - Y ,              Z
SYMM     0.50000 + X ,            - Y ,            - Z
SYMM             - X ,    0.50000 + Y ,            - Z
SFAC C  H  Co F  N  O  P  Yb
UNIT 116  66  2  40  8  26  6  2
L.S. 200
ACTA
BOND $H
FMAP 2
PLAN 10
omit -2 50
exyz o2 c4
eadp o2 c4
dang 2.30 0.01 c14 c15
eadp c14 c16 c15

DFIX 1.38 0.01 C14 C16
DFIX 1.41 0.01 C16 C15
exyz c13a c13b
eadp c13a c13b
exyz c12a c12b
eadp c12a c12b

CONF

WGHT    0.063700    4.004200
FVAR       0.26889   0.59623
YB1   8    0.750000    0.250000    0.655645    10.25000    0.02594    0.01709 =
         0.01206    0.00000    0.00000    0.00000
CO1   3    0.750000    0.250000    0.247202    10.25000    0.05782    0.04422 =
         0.01148    0.00000    0.00000    0.00000
PART   1
P1    7    0.641407    0.250000    0.359770    10.25000    0.03699    0.05432 =
         0.01789    0.00000   -0.00725    0.00000
PART   2
P2    7    0.689453    0.184395    0.368249    10.50000    0.07503    0.05284 =
         0.01978   -0.00925    0.00001   -0.03136
PART   0
N1    5    0.750000    0.162820    0.773191    10.50000    0.03315    0.01523 =
         0.01575   -0.00013    0.00000    0.00000
N2    5    0.621584    0.250000    0.776413    10.50000    0.02802    0.02180 =
         0.01650    0.00000    0.00008    0.00000
F1    4    0.548701    0.064565    0.606310    11.00000    0.09524    0.06248 =
         0.03580   -0.01553    0.01630   -0.04034
F2    4    0.434635   -0.017246    0.651380    11.00000    0.11753    0.07671 =
         0.06543   -0.02940    0.00527   -0.06300
F3    4    0.354808   -0.022774    0.887878    11.00000    0.08248    0.06472 =
         0.08036    0.00823    0.00689   -0.04992
F4    4    0.393110    0.053165    1.078816    11.00000    0.08269    0.07075 =
         0.05501    0.00595    0.03131   -0.03269
F5    4    0.508255    0.134934    1.034216    11.00000    0.07338    0.05292 =
         0.03261   -0.01088    0.01552   -0.02438
O1    6    0.416728    0.204064    0.809655    10.50000    0.02916    0.04323 =
         0.10487    0.00453    0.00359   -0.00624
O2    6    0.487857    0.218820    0.803090    10.50000    0.02916    0.05196 =
         0.04880   -0.00126    0.00279   -0.01185
C4    1    0.487857    0.218820    0.803090    10.50000    0.02916    0.05196 =
         0.04880   -0.00126    0.00279   -0.01185
PART   1
O3    6    0.645493    0.250000    0.508867    10.25000    0.03143    0.05522 =
         0.01500    0.00000    0.00012    0.00000
PART   2
O4    6    0.690683    0.190040    0.515393    10.50000    0.04707    0.02812 =
         0.01808   -0.00372   -0.00234   -0.01234
PART   0
C1    1    0.680685    0.128951    0.791264    11.00000    0.03568    0.02014 =
         0.01735    0.00041   -0.00112   -0.00229
C2    1    0.597520    0.147287    0.794508    11.00000    0.03459    0.02511 =
         0.01884    0.00015    0.00024   -0.00697
C3    1    0.572123    0.203804    0.788860    11.00000    0.03146    0.02802 =
         0.02021   -0.00019    0.00311   -0.00340
C5    1    0.707342    0.071207    0.817556    11.00000    0.04953    0.02098 =
         0.02997    0.00476    0.00038   -0.00444
AFIX  43
H5A   2    0.672545    0.039948    0.831787    11.00000   -1.20000
AFIX   0
C6    1    0.530898    0.103065    0.817760    11.00000    0.03157    0.02680 =
         0.02725    0.00289   -0.00020   -0.00556
C7    1    0.510028    0.063413    0.723659    11.00000    0.05579    0.03782 =
         0.03242   -0.00183    0.00377   -0.01690
C8    1    0.451924    0.021112    0.746373    11.00000    0.06541    0.04246 =
         0.04562   -0.00657   -0.00264   -0.02505
C9    1    0.411823    0.018136    0.864740    11.00000    0.04965    0.04187 =
         0.05782    0.00952    0.00087   -0.02414
C10   1    0.430880    0.056646    0.961223    11.00000    0.04623    0.04650 =
         0.04202    0.00826    0.00986   -0.01489
C11   1    0.490270    0.098490    0.937685    11.00000    0.04057    0.03382 =
         0.03395   -0.00004    0.00278   -0.00949
PART   1
C14   1    0.695418    0.218067    0.081163    10.50000    0.08619    0.11016 =
         0.01296   -0.01898   -0.00595   -0.00447
PART   2
C15   1    0.832676    0.250000    0.085381    10.25000    0.08619    0.11016 =
         0.01296   -0.01898   -0.00595   -0.00447
PART   0
C16   1    0.779684    0.201879    0.078390    10.50000    0.08619    0.11016 =
         0.01296   -0.01898   -0.00595   -0.00447
PART   2
O6A   6    0.750000    0.125165    0.344859    10.25000    0.06774    0.04601 =
         0.03294   -0.00077    0.00000    0.00000
C13A  1    0.750000    0.082226    0.408414    10.25000    0.07788
AFIX  33
H13A  2    0.709447    0.056151    0.372625    10.50000   -1.50000
H13B  2    0.804919    0.065227    0.405462    10.50000   -1.50000
H13C  2    0.735633    0.090847    0.498150    10.50000   -1.50000
AFIX   0
PART   1
O6B   6    0.696488    0.127490    0.320018    10.25000    0.06589    0.02796 =
         0.04593   -0.01428   -0.01094    0.01024
C13B  1    0.750000    0.082226    0.408414    10.25000    0.07788
O5A   6    0.581000    0.201547    0.321896    10.60000    0.08051    0.11686 =
         0.04135   -0.02572    0.01027   -0.07229
C12A  1    0.529994    0.165913    0.379698    10.60000    0.07916    0.06711 =
         0.08936    0.00434   -0.01975   -0.00876
AFIX  33
H12A  2    0.503855    0.142082    0.314587    10.60000   -1.50000
H12B  2    0.561087    0.142675    0.440469    10.60000   -1.50000
H12C  2    0.487488    0.186747    0.426594    10.60000   -1.50000
AFIX   0
PART   2
O5B   6    0.609575    0.158105    0.320817    10.40000    0.07568    0.18017 =
         0.04301   -0.03076   -0.00741   -0.03912
C12B  1    0.529994    0.165913    0.379698    10.40000    0.07916    0.06711 =
         0.08936    0.00434   -0.01975   -0.00876
AFIX  33
H12D  2    0.488469    0.144716    0.331533    10.40000   -1.50000
H12E  2    0.531697    0.152700    0.469224    10.40000   -1.50000
H12F  2    0.515650    0.205639    0.378414    10.40000   -1.50000
AFIX   0
PART   0
C18   1    0.750000   -0.091793    0.290641    10.25000    0.28198
AFIX  23
H18A  2    0.700374   -0.069891    0.267556    10.12500   -1.20000
H18B  2    0.799626   -0.069891    0.267556    10.12500   -1.20000
AFIX   0
C19   1    0.750000   -0.106706    0.443058    10.25000    0.28736
AFIX  23
H19A  2    0.798225   -0.131953    0.448008    10.12500   -1.20000
H19B  2    0.701775   -0.131953    0.448008    10.12500   -1.20000
AFIX   0
C20   1    0.750000   -0.132337    0.240199    10.25000    0.20714
AFIX  23
H20A  2    0.701476   -0.151814    0.276743    10.12500   -1.20000
H20B  2    0.798524   -0.151814    0.276743    10.12500   -1.20000
AFIX   0
C21   1    0.750000   -0.149885    0.101649    10.25000    0.19029
AFIX  33
H21A  2    0.750000   -0.190722    0.096471    10.12500   -1.50000
H21B  2    0.700669   -0.135217    0.058827    10.12500   -1.50000
H21C  2    0.799331   -0.135217    0.058827    10.12500   -1.50000
AFIX   0
C17   1    0.750000   -0.078077    0.603438    10.25000    0.26613
AFIX  33
H17A  2    0.750000   -0.108511    0.666662    10.12500   -1.50000
H17B  2    0.799331   -0.055053    0.615563    10.12500   -1.50000
H17C  2    0.700669   -0.055053    0.615563    10.12500   -1.50000

AFIX   0
HKLF 4 1  0.0000  0.0000  1.0000 -1.0000  0.0000  0.0000  0.0000 -1.0000  0.0000

REM  1 exp_3209
REM R1 =  0.0340 for    3230 Fo > 4sig(Fo)  and  0.0397 for all    3546 data
REM    279 parameters refined using      3 restraints

END

WGHT      0.0593      2.4574

REM Highest difference peak  0.764,  deepest hole -0.419,  1-sigma level  0.106
Q1    1   0.7500  0.0723  0.4521  10.50000  0.05    0.76
Q2    1   0.7500  0.2500  0.0392  10.25000  0.05    0.76
Q3    1   0.7500  0.2980  0.6588  10.50000  0.05    0.71
Q4    1   0.6726 -0.0646  0.5912  11.00000  0.05    0.69
Q5    1   0.3742  0.2500  0.1458  10.50000  0.05    0.63
Q6    1   0.7500 -0.1712  0.3153  10.50000  0.05    0.62
Q7    1   0.7500 -0.1018  0.1666  10.50000  0.05    0.61
Q8    1   0.7500  0.2500  0.7514  10.25000  0.05    0.58
Q9    1   0.7500  0.0872  0.3444  10.50000  0.05    0.56
Q10   1   0.7633 -0.2500  0.7683  10.50000  0.05    0.51
;
_shelx_res_checksum              28788
_shelx_hkl_file
;
   0   0 -18  305.18   24.24
   0   0 -17  -11.68   12.28
   0   0 -16  429.21   25.50
   0   0 -16  415.46   16.33
   0   0 -15   -8.76   11.08
   0   0 -15    9.77    4.97
   0   0 -14  281.07   13.18
   0   0 -14  284.38   19.41
   0   0 -13   29.96   10.76
   0   0 -13   39.23    6.24
   0   0 -12 1232.56   24.60
   0   0 -12 1189.55   34.17
   0   0 -11   20.10    8.45
   0   0 -10  190.68   13.92
   0   0  -9  105.53   11.72
   0   0  -8 1034.23   24.94
   0   0  -7    0.05    6.60
   0   0  -6 1838.97   28.26
   0   0  -5   10.09    5.72
   0   0  -4 6869.07   43.31
   0   0  -3    2.78    4.64
   0   0  10  212.46   13.32
   0   0  11   16.68    7.11
   0   0  12 1207.08   32.65
   0   1 -19   24.06   11.04
   0   1 -18   30.11   12.65
   0   1 -17    8.68   10.29
   0   1 -16   71.59    7.54
   0   1 -16   54.69   12.58
   0  -1 -16   65.83    7.92
   0  -1 -15  238.26   12.84
   0  -1 -15  210.17   18.12
   0   1 -15  247.68   19.97
   0   1 -15  245.22   12.16
   0   1 -14  186.86   16.55
   0  -1 -14  175.61   16.34
   0  -1 -14  203.48   11.87
   0  -1 -13  140.32    9.98
   0  -1 -13  142.07   14.80
   0   1 -13  153.90   15.32
   0  -1 -12    1.06    4.36
   0   1 -12    5.59    9.07
   0  -1 -11   12.69    9.05
   0   1 -11   32.18    8.67
   0  -1 -11   32.03    5.33
   0  -1 -10  786.05   18.71
   0  -1 -10  793.80   25.33
   0   1 -10  789.59   25.03
   0  -1  -9  112.19   10.19
   0  -1  -9  113.46    7.27
   0   1  -9  118.87   11.27
   0  -1  -8   64.23    8.42
   0  -1  -8   78.19    6.00
   0   1  -8   86.56    9.66
   0   1  -7  317.98   13.86
   0  -1  -7  290.37   13.57
   0  -1  -7  326.87   10.23
   0   1  -6  468.73   15.24
   0  -1  -6  461.64   11.24
   0  -1  -6  463.35   15.18
   0  -1  -5   21.66    5.29
   0   1  -5   42.57    6.58
   0  -1  -5   30.92    3.64
   0  -1  -4  720.22   15.04
   0   1  -4  771.01   16.05
   0  -1  -4  739.71   12.14
   0  -1  -3  855.50   12.01
   0   1  -3  882.73   15.11
   0  -1  -3  851.56   14.03
   0   1  -2 2916.82   21.94
   0   1   5   34.44    5.26
   0   1   6  448.79   13.92
   0   1   7  315.11   13.13
   0   1   8   83.96    8.23
   0   1   9  131.46   10.26
   0   1  10  745.37   23.54
   0  -1  11   24.72    6.92
   0   1  11   37.19    7.65
   0  -1  12   -3.91    6.02
   0   1  12   -7.13    7.36
   0   2 -18   41.51   13.46
   0   2 -17  117.78   16.27
   0   2 -16   36.65   11.32
   0  -2 -16   37.39    7.26
   0  -2 -15   29.12    6.20
   0   2 -15   38.06   11.93
   0   2 -14  163.79   16.82
   0  -2 -14  164.34   11.44
   0   2 -13  231.58   17.91
   0  -2 -13  238.55   13.05
   0  -2 -12  184.91   11.44
   0   2 -12  191.91   15.72
   0   2 -11  614.06   23.98
   0  -2 -11  608.27   18.83
   0   2 -10  189.68   14.25
   0  -2 -10  177.36   10.23
   0   2  -9 1138.58   28.51
   0  -2  -9 1132.81   22.82
   0   2  -8   92.75   10.15
   0  -2  -8   81.76    6.78
   0   2  -7  251.69   13.06
   0  -2  -7  268.73   10.44
   0  -2  -6 1942.66   25.67
   0   2  -6 1931.75   30.34
   0  -2  -5  546.29   13.17
   0   2  -5  548.98   15.56
   0   2  -4  586.82   14.82
   0  -2  -4  605.33   13.06
   0   2  -3 1306.10   19.46
   0  -2  -2  304.68    7.67
   0  -2  -1    7.62    2.52
   0  -2   0 5165.89   31.00
   0  -2   1   10.21    3.68
   0   2   1    9.64    2.54
   0  -2   2  310.60   10.03
   0   2   4  562.77   13.42
   0   2   5  571.85   13.27
   0   2   5  530.73   14.01
   0   2   6 2039.88   29.14
   0   2   7  244.28   11.70
   0   2   8   89.48    8.44
   0   2   9 1121.32   26.62
   0   2  10  191.70   12.92
   0  -2  11  626.10   23.54
   0   2  11  595.84   22.23
   0   2  12  190.71   13.88
   0   3 -18   47.24   13.38
   0   3 -17   -0.16   11.40
   0   3 -16  331.47   23.66
   0   3 -15  101.07   15.16
   0   3 -14  123.19   15.56
   0   3 -13    4.33   10.01
   0   3 -12  249.52   17.85
   0  -3 -12  251.39   13.58
   0   3 -11   53.12    9.02
   0  -3 -11   50.32    7.17
   0   3 -11   56.07   10.57
   0  -3 -10  637.67   19.71
   0   3 -10  648.31   23.42
   0   3 -10  635.99   23.38
   0  -3  -9   77.69    7.60
   0   3  -9   82.47   10.71
   0   3  -8  592.80   20.76
   0   3  -7  346.69   15.61
   0   3  -6  869.86   21.95
   0   3  -5  365.69   13.91
   0   3  -4 2228.46   29.99
   0  -3  -3   43.72    4.35
   0  -3  -2   30.55    3.81
   0   3  -1  751.82   15.71
   0  -3  -1  776.71   14.70
   0   3   0 1452.62   20.69
   0  -3   0 1500.73   20.76
   0  -3   1  752.27   15.74
   0   3   1  751.77   14.27
   0  -3   2   40.69    5.38
   0   3   2   33.17    3.68
   0   3   5  363.57   12.65
   0   3   5  375.22   12.43
   0   3   6  841.86   19.71
   0   3   6  889.01   19.53
   0   3   7  334.78   13.52
   0   3   8  572.80   18.21
   0   3   9   79.85    8.87
   0   3  10  632.30   21.67
   0   3  11   57.23    8.74
   0   3  12  261.30   15.61
   0   4 -17   18.58   12.48
   0   4 -16   27.48   12.47
   0   4 -15   77.19   14.37
   0   4 -14   81.00   13.85
   0   4 -13  197.11   17.13
   0   4 -12   26.83    9.50
   0   4 -11  173.70   15.27
   0   4 -10  244.22   16.10
   0   4 -10  258.32   16.01
   0   4  -9  459.41   20.07
   0   4  -9  487.63   20.65
   0   4  -8   14.13    8.01
   0   4  -7 1245.21   28.56
   0   4  -6  309.96   14.60
   0   4  -5   15.36    6.29
   0  -4  -5    8.96    3.64
   0  -4  -4   68.02    6.18
   0   4  -4   66.62    7.66
   0   4  -4   65.03    7.82
   0   4  -3 1251.16   25.64
   0  -4  -3 1281.91   21.62
   0   4  -2  386.52   13.82
   0  -4  -2  381.84   12.22
   0  -4  -1  858.81   17.85
   0   4  -1  782.98   18.36
   0  -4   0 1299.38   22.65
   0   4   0 1254.57   22.11
   0   4   1  811.06   17.11
   0  -4   1  832.47   18.86
   0  -4   2  395.21   13.92
   0   4   2  383.62   11.92
   0  -4   3 1243.29   25.14
   0   4   6  320.12   12.81
   0   4   6  345.53   13.83
   0   4   7 1316.58   26.59
   0   4   7 1346.49   26.57
   0   4   8   17.76    5.84
   0   4   8    5.40    5.43
   0   4   9  447.63   17.72
   0   4  10  253.96   14.43
   0   4  11  138.75   11.48
   0   4  12   29.87    8.09
   0   5 -17   89.12   15.96
   0   5 -16    7.06   11.24
   0   5 -15  162.66   18.06
   0   5 -14   23.63   11.36
   0   5 -13  272.58   19.70
   0   5 -12    3.73    8.89
   0   5 -11  377.38   21.15
   0   5 -10   11.44    8.58
   0   5  -9  952.26   28.91
   0   5  -9  986.26   30.23
   0   5  -8  121.86   11.22
   0   5  -8  102.98   11.08
   0   5  -7  302.84   15.75
   0  -5  -7  292.48   13.25
   0   5  -7  322.59   17.39
   0   5  -6    5.62    6.09
   0   5  -6   11.85    6.18
   0  -5  -6    7.16    4.16
   0  -5  -5 2135.87   31.93
   0   5  -5 2202.39   35.89
   0   5  -5 2166.36   39.46
   0  -5  -4  365.30   13.31
   0   5  -4  365.92   16.47
   0   5  -4  370.07   14.78
   0  -5  -3 2439.43   33.20
   0   5  -3 2394.86   38.56
   0  -5  -2  594.99   16.58
   0   5  -2  558.43   18.12
   0  -5  -1  154.74    9.32
   0   5  -1  153.60    9.77
   0  -5   0  389.40   14.32
   0   5   0  376.25   13.89
   0  -5   1  162.10    9.92
   0   5   1  151.43    8.88
   0   5   2  570.86   16.21
   0  -5   2  578.61   18.39
   0  -5   3 2360.13   36.89
   0   5   6   11.02    5.37
   0   5   7  298.76   13.81
   0   5   7  308.69   14.46
   0   5   8  116.75    9.86
   0   5   8  110.34    9.54
   0   5   9  976.40   25.78
   0   5   9 1004.19   26.17
   0   5  10   15.38    6.46
   0   5  11  353.02   17.01
   0   5  12    6.57    6.12
   0   6 -16   34.20   12.72
   0   6 -15  113.45   16.09
   0   6 -14   34.03   10.85
   0   6 -13   12.58    9.29
   0   6 -12  152.84   16.01
   0   6 -11  136.60   14.44
   0  -6 -11  113.17   10.66
   0   6 -10   75.33   12.02
   0  -6 -10   69.53    8.57
   0  -6  -9   16.52    5.70
   0   6  -9   23.38    9.18
   0   6  -8   25.24    8.51
   0   6  -8   19.90    6.85
   0  -6  -8   27.82    6.23
   0   6  -7  417.34   19.18
   0  -6  -7  417.15   16.16
   0   6  -7  412.50   20.36
   0   6  -6  166.64   12.30
   0   6  -6  164.62   13.32
   0  -6  -6  165.85   10.54
   0   6  -5   38.24    7.68
   0   6  -5   36.27    7.32
   0  -6  -5   35.63    6.01
   0  -6  -4  170.32   10.32
   0   6  -4  169.99   11.08
   0   6  -4  151.44   11.79
   0   6  -3    6.56    4.88
   0  -6  -3   -0.81    4.02
   0  -6  -2  270.74   12.70
   0   6  -2  291.91   14.73
   0   6  -1  314.30   14.68
   0  -6  -1  334.32   14.26
   0   6   0  361.81   15.27
   0  -6   0  389.09   15.78
   0   6   1  335.56   14.23
   0  -6   1  318.51   14.66
   0  -6   2  287.66   14.11
   0   6   2  263.96   12.55
   0  -6   3   10.61    6.17
   0   6   3    4.87    3.56
   0   6   5   41.05    7.08
   0   6   6  157.90   11.51
   0   6   7  389.61   16.00
   0   6   7  410.02   17.80
   0   6   8   29.87    6.87
   0   6   8   11.27    5.04
   0   6   9    7.71    6.32
   0   6   9   17.21    6.03
   0   6  10   85.16    9.58
   0   6  11  118.53   10.59
   0   6  12  153.46   12.03
   0   7 -15  103.35   16.17
   0  -7 -15   71.40    9.99
   0   7 -14  167.81   18.44
   0  -7 -14  138.40   12.88
   0  -7 -13   45.98    8.60
   0   7 -13   58.14   12.74
   0  -7 -12  183.64   13.89
   0   7 -12  207.18   18.37
   0   7 -11   70.61   12.47
   0  -7 -11   78.04    9.50
   0  -7 -10   82.03    9.37
   0   7 -10   99.67   13.12
   0  -7  -9  188.09   12.60
   0   7  -9  187.18   15.27
   0   7  -8  135.50   13.55
   0  -7  -8  135.94   10.59
   0   7  -7  107.57   11.77
   0  -7  -7   99.30    9.28
   0  -7  -6  364.79   16.09
   0   7  -6  344.22   17.51
   0   7  -6  368.83   19.76
   0   7  -5   18.52    7.02
   0   7  -5   26.47    7.65
   0  -7  -5   22.73    6.03
   0   7  -4  169.79   13.39
   0  -7  -4  170.63   11.11
   0   7  -4  155.62   11.62
   0   7  -3 1124.04   31.16
   0  -7  -3 1135.68   27.04
   0   7  -2  783.58   25.64
   0  -7  -2  751.01   22.32
   0  -7  -1  741.83   22.67
   0   7  -1  727.76   24.37
   0  -7   0 4917.71   57.82
   0   7   0 4898.54   59.17
   0  -7   1  721.79   23.18
   0   7   1  721.45   22.68
   0  -7   2  751.81   24.06
   0   7   2  756.45   22.94
   0  -7   3 1106.35   29.37
   0   7   3 1164.21   27.66
   0   7   4  173.53   12.48
   0   7   5   14.19    6.17
   0   7   6  372.67   17.92
   0   7   7  100.80   10.82
   0   7   8  110.38   11.16
   0   7   8  137.77   10.51
   0   7   9  188.58   12.22
   0   7   9  173.18   13.55
   0   7  10  106.02   11.42
   0   7  10   83.56    9.17
   0   7  11   79.20    9.32
   0   7  12  189.00   13.12
   0   8 -15  168.11   18.24
   0   8 -14   14.13   10.90
   0  -8 -13  229.12   14.90
   0   8 -13  305.27   22.54
   0   8 -12    4.64    9.80
   0  -8 -12    4.53    5.62
   0  -8 -11  236.40   14.81
   0   8 -11  272.37   19.97
   0   8 -10  184.55   16.72
   0  -8 -10  185.24   13.14
   0  -8  -9   67.21    8.76
   0   8  -9  101.47   12.79
   0   8  -8    1.44    7.58
   0  -8  -8    3.56    5.31
   0   8  -7  691.18   26.12
   0  -8  -7  670.25   23.02
   0  -8  -6    8.66    5.93
   0   8  -6    4.51    7.38
   0   8  -5  386.61   20.18
   0  -8  -5  387.57   17.48
   0   8  -5  373.32   18.51
   0   8  -4    2.93    5.76
   0  -8  -4   -0.14    6.54
   0   8  -4   -2.94    7.16
   0  -8  -3  256.14   14.62
   0   8  -3  270.21   16.54
   0  -8  -2  204.81   13.57
   0   8  -2  191.16   14.29
   0   8  -1  422.48   19.89
   0  -8  -1  428.87   18.83
   0   8   0   34.86    7.23
   0  -8   0   39.81    8.27
   0   8   1  428.47   18.94
   0  -8   1  430.67   19.11
   0  -8   2  206.16   14.23
   0   8   2  219.38   13.61
   0   8   3  287.00   16.32
   0   8   3  254.35   14.25
   0  -8   3  262.26   16.53
   0   8   4    5.12    7.05
   0   8   5  389.14   19.43
   0   8   6    1.03    7.20
   0   8   7  639.62   24.68
   0   8   8  -12.71    6.63
   0   8   8   -3.11    6.51
   0   8   9  108.32   11.98
   0   8   9   73.59    8.52
   0   8  10  166.97   11.86
   0   8  10  184.73   15.01
   0   9 -14  136.34   16.96
   0   9 -13   21.00   11.32
   0   9 -12  248.64   20.19
   0   9 -11   23.93   10.21
   0  -9 -11   31.70    6.85
   0  -9 -10  199.03   13.61
   0   9 -10  180.11   17.09
   0  -9  -9   66.43    8.72
   0   9  -9   77.10   12.62
   0  -9  -8  199.52   13.61
   0   9  -8  171.09   15.55
   0  -9  -7   83.81    9.56
   0   9  -7   75.48   11.46
   0  -9  -6  676.26   24.00
   0   9  -6  644.95   25.84
   0   9  -5    3.34    7.19
   0  -9  -5    6.53    5.87
   0  -9  -4   15.61    6.60
   0   9  -4   10.76    6.87
   0  -9  -3  314.68   17.20
   0   9  -3  308.95   18.18
   0  -9  -2  572.86   22.65
   0   9  -2  570.79   23.90
   0   9  -1   28.50    7.33
   0  -9  -1   28.47    7.97
   0   9   0  164.72   12.87
   0  -9   0  162.91   13.27
   0   9   1   31.73    7.00
   0  -9   1   36.64    9.20
   0   9   2  537.85   21.83
   0  -9   2  562.33   23.91
   0   9   3  288.68   17.50
   0   9   3  289.42   15.85
   0   9   4   15.69    7.49
   0   9   5    0.51    7.12
   0   9   6  628.43   25.66
   0   9   7   74.47   11.39
   0   9   8  180.85   11.81
   0   9   8  197.93   15.76
   0   9   9   70.32   11.21
   0   9  10  217.90   17.02
   0   9  11   35.77    9.62
   0  10 -13   20.70   10.22
   0  10 -12  176.33   17.30
   0  10 -11   51.71   12.44
   0  10 -10  299.97   20.84
   0  10  -9   18.27    9.27
   0  10  -8  407.91   22.73
   0 -10  -8  397.75   18.66
   0 -10  -7    4.12    5.47
   0  10  -7   17.45    8.79
   0  10  -6  305.57   18.89
   0 -10  -6  331.05   17.75
   0 -10  -5    5.41    6.17
   0  10  -5    2.40    7.25
   0 -10  -4  497.63   22.03
   0  10  -4  514.12   22.45
   0 -10  -3  141.86   12.99
   0  10  -3  126.89   12.37
   0 -10  -2  427.69   21.01
   0 -10  -1   90.06   11.47
   0  10   0  256.21   16.15
   0 -10   0  259.17   17.22
   0  10   1   69.17    9.27
   0 -10   1   83.24   11.25
   0  10   2  453.92   22.80
   0  10   2  465.20   20.79
   0  10   3  118.10   13.14
   0  10   4  493.67   23.96
   0  10   5   -4.96    8.21
   0  10   6  327.85   20.36
   0  10   7   17.82    8.53
   0  10   8  370.28   21.81
   0  10   9   13.77    8.04
   0  10  10  326.55   20.48
   0  10  11   29.75    9.59
   0  11 -11   58.53   12.50
   0  11 -10   12.10    8.98
   0  11  -9  157.90   16.47
   0  11  -8    5.57    7.87
   0  11  -7  148.26   14.52
   0 -11  -6   12.01    6.18
   0  11  -6   14.51    8.06
   0 -11  -5   37.66    7.83
   0  11  -5   27.02    8.25
   0 -11  -4    8.59    6.26
   0  11  -4   19.38    7.42
   0 -11  -3  195.01   14.77
   0  11  -3  178.04   13.80
   0 -11  -2   56.60   10.01
   0 -11  -1   20.38    7.63
   0 -11   0   52.27    9.90
   0  11   1    6.93    7.31
   0  11   2   44.61    9.72
   0  11   3  209.72   17.36
   0  11   4   12.80    7.87
   0  11   5   28.61    9.19
   0  11   6   12.54    8.86
   0  11   7  152.23   15.45
   0  11   8    1.60    8.17
   0 -12  -3  132.14   12.69
   0 -12  -2  297.61   18.20
   0 -12  -1   35.55    8.77
   0  12   0   34.01    9.90
   0  12   1   45.42   10.57
   0  12   2  283.74   20.54
   0  12   3  149.31   15.72
  -1   0 -19  196.63   20.49
  -1   0 -18  -12.50   10.95
   1   0 -17  273.32   22.34
  -1   0 -17  330.99   24.06
  -1   0 -16  -15.39   10.65
  -1   0 -16   -1.43    4.54
   1   0 -16  -13.35   11.87
   1   0 -16   -0.64    4.47
  -1   0 -15  480.07   25.66
   1   0 -15  507.08   18.12
  -1   0 -15  510.06   17.01
   1   0 -15  475.82   25.85
  -1   0 -14  -10.12    9.82
   1   0 -14    1.28    4.36
  -1   0 -14   -1.82    4.06
   1   0 -14  -15.00   11.25
  -1   0 -13  389.92   21.37
   1   0 -13  375.17   21.08
  -1   0 -13  399.07   14.64
  -1   0 -12    1.40    3.87
   1   0 -12  -10.29   10.21
  -1   0 -11  553.06   15.29
   1   0 -11  671.17   24.97
  -1   0 -11  540.49   22.03
  -1   0 -10    0.74    2.90
  -1   0 -10   -0.80    7.42
   1   0 -10  -10.11    8.64
  -1   0  -9  765.53   22.85
   1   0  -9  727.91   23.16
   1   0  -8   -6.81    7.97
  -1   0  -8   -0.67    5.92
   1   0  -7  378.46   15.05
  -1   0  -7  375.73   14.44
  -1   0  -6    2.10    5.23
   1   0  -6   -2.36    6.12
  -1   0  -5 1850.64   25.23
   1   0  -5 1858.52   26.52
  -1   0  -4    0.17    5.30
   1   0  -4  -10.17    6.90
   1   0  -3  449.19   11.19
  -1   0  -3  477.23   10.62
   1   0   9  785.30   22.73
  -1   0  10    1.16    5.95
   1   0  10   -5.38    6.34
  -1   0  11  592.05   22.74
   1   0  11  556.67   21.75
  -1   0  12   -0.97    6.44
   1   0  12   -1.54    7.19
  -1   1 -19   16.28   11.99
   1   1 -19    2.13   11.45
  -1   1 -18   58.91   13.75
   1   1 -18   48.93   13.24
  -1  -1 -17   65.42   13.60
  -1   1 -17   91.29   14.68
   1   1 -17   71.88   14.51
  -1  -1 -16   76.54   12.81
   1   1 -16   79.52   13.45
   1   1 -16   88.81    8.48
  -1  -1 -16   88.68    8.53
   1  -1 -16   99.12    9.39
  -1   1 -16   79.33    7.40
  -1   1 -16   93.62   14.71
  -1  -1 -15   53.24   11.52
   1   1 -15   41.88   12.04
   1  -1 -15   56.62    7.50
  -1   1 -15   62.61    6.77
  -1   1 -15   44.73   12.46
  -1  -1 -15   60.29    7.52
   1  -1 -14   82.56   12.51
  -1   1 -14   94.30   13.10
   1  -1 -14  117.10    9.83
  -1  -1 -14  127.83   15.89
   1   1 -14   89.12   13.56
  -1  -1 -14  110.05    8.84
  -1   1 -14  109.52    8.22
  -1  -1 -13   84.80   12.16
  -1   1 -13  105.37   13.27
  -1  -1 -13  101.40    8.69
   1  -1 -13   90.27   13.01
   1   1 -13   86.99   12.97
   1  -1 -13  109.40    9.35
   1   1 -12  338.31   19.66
  -1  -1 -12  354.48   14.06
  -1   1 -12  347.88   19.37
   1  -1 -12  312.34   18.44
   1  -1 -12  363.45   14.80
  -1  -1 -12  349.85   19.16
   1   1 -11  131.03   12.95
   1  -1 -11  115.80    8.82
  -1  -1 -11   96.12   10.79
  -1   1 -11  136.32   13.01
  -1  -1 -11  121.74    8.40
   1  -1 -11   90.70   11.54
   1  -1 -10   77.29    6.84
  -1   1 -10   70.15    9.95
  -1  -1 -10   74.04    6.47
   1   1 -10   67.80   10.07
   1  -1 -10   61.65    8.99
  -1  -1 -10   57.88    8.96
   1   1  -9  198.72   13.45
  -1   1  -9  205.22   13.09
   1  -1  -9  166.41   12.71
  -1  -1  -9  167.50   12.04
  -1  -1  -9  179.40    8.70
   1  -1  -9  184.34    9.23
  -1  -1  -8  335.65   10.78
  -1  -1  -8  348.60   15.21
   1  -1  -8  323.80   15.46
   1  -1  -8  318.69   11.05
   1   1  -8  338.05   15.27
  -1   1  -8  335.57   15.52
  -1  -1  -7  135.68    6.70
   1  -1  -7  124.46    9.82
   1   1  -7  169.78   11.54
  -1  -1  -7  123.34    9.59
  -1   1  -7  161.19   11.17
   1  -1  -7  128.59    7.08
   1  -1  -6  581.47   17.35
  -1   1  -6  624.08   17.28
   1   1  -6  612.70   17.32
  -1  -1  -6  599.11   16.53
  -1  -1  -6  586.40   12.22
   1  -1  -6  610.31   13.24
   1   1  -5  522.46   14.63
   1  -1  -5  521.86   15.03
  -1   1  -5  512.09   14.39
  -1  -1  -5  563.62   14.32
   1  -1  -5  526.70   11.44
  -1  -1  -5  520.07   10.64
   1   1  -4  841.48   16.71
   1  -1  -4  905.94   13.79
  -1  -1  -4  872.23   15.66
  -1  -1  -4  896.86   13.08
  -1   1  -4  903.66   17.20
  -1  -1  -3   -1.09    4.99
   1  -1  -3    7.72    2.80
   1   1  -3   -4.53    6.53
  -1   1  -3    4.38    5.51
   1   1  -2  168.05    6.22
   1  -1   2  173.53    6.45
   1   1   3   12.11    2.63
   1   1   3   10.67    4.00
   1   1   4  951.88   13.13
   1   1   4  883.99   15.21
   1   1   5  529.73   13.45
   1   1   6  600.50   15.65
  -1   1   7  133.34    9.16
   1   1   7  143.34    9.55
  -1   1   8  322.70   14.20
   1   1   8  345.12   14.43
  -1   1   9  187.50   12.10
   1   1   9  188.23   11.76
   1   1  10   80.33    9.47
  -1   1  10   85.75    9.88
  -1  -1  11  134.79   12.17
   1   1  11  135.84   11.56
   1  -1  11  129.96   11.44
  -1   1  11  123.58   11.72
   1   1  12  332.60   17.60
  -1   1  12  331.46   17.65
   1  -1  12  336.11   18.43
  -1  -1  12  357.78   18.70
  -1   2 -18   28.29   11.01
   1   2 -18    7.18   11.71
   1   2 -17   32.05   12.08
  -1   2 -17   33.13   11.84
  -1   2 -16  116.76   15.84
   1   2 -16  117.43   15.69
  -1   2 -15  155.30   16.84
   1   2 -15  147.42   16.53
   1  -2 -15  149.20   11.22
  -1  -2 -14  214.48   12.39
   1   2 -14  197.29   17.81
   1  -2 -14  221.34   13.17
  -1   2 -14  211.17   18.06
  -1  -2 -13  102.48    8.93
   1  -2 -13  108.60    9.77
  -1   2 -13  125.74   14.61
   1   2 -13   95.80   12.93
   1   2 -12  168.55   15.18
  -1  -2 -12  171.56   10.84
  -1  -2 -12  141.30   13.23
   1  -2 -12  178.38   11.47
  -1   2 -12  183.40   15.30
  -1   2 -11  247.62   16.08
   1   2 -11  256.54   16.92
  -1  -2 -11  253.35   12.21
   1  -2 -11  252.36   12.81
  -1  -2 -11  246.22   15.92
   1  -2 -10  654.34   18.90
  -1  -2 -10  661.27   23.02
   1   2 -10  661.87   23.61
  -1   2 -10  671.50   23.62
  -1  -2 -10  639.60   18.09
  -1   2  -9  116.24   11.03
  -1  -2  -9  104.03    7.57
   1   2  -9  111.83   11.16
   1  -2  -9  100.76    7.91
  -1  -2  -9   91.27    9.64
   1  -2  -8  702.41   17.45
  -1  -2  -8  717.38   21.32
   1   2  -8  708.15   21.58
  -1  -2  -8  709.19   17.00
  -1   2  -8  702.68   21.62
  -1   2  -7 1041.90   24.46
  -1  -2  -7 1060.39   19.69
   1   2  -7 1046.17   24.35
   1  -2  -7 1042.68   20.12
  -1  -2  -7 1046.18   23.75
   1   2  -6  546.70   16.92
  -1  -2  -6  560.88   16.28
   1  -2  -6  534.73   14.00
  -1   2  -6  550.85   17.29
  -1   2  -5  691.26   17.64
   1  -2  -5  657.01   14.48
   1   2  -5  700.83   17.28
   1  -2  -4  594.05   13.25
   1   2  -4  610.91   14.80
  -1   2  -4  598.22   15.23
   1  -2  -3    6.82    2.93
   1   2  -3   44.02    6.52
  -1  -2  -2 1976.67   16.38
   1   2  -2 1951.08   20.20
   1  -2  -2 1955.09   21.02
  -1  -2  -1 1779.53   15.22
   1  -2  -1 1825.68   19.82
   1  -2   0  867.74   14.15
   1   2   0  844.71   11.68
  -1  -2   1 1801.92   18.96
   1   2   1 1776.97   15.24
   1  -2   1 1788.24   21.37
   1  -2   2 1944.94   23.96
   1  -2   3   13.79    4.76
   1   2   3    0.25    4.09
   1   2   4  600.31   13.01
   1   2   4  579.49   12.86
   1   2   5  687.07   14.24
   1   2   5  653.55   14.77
  -1   2   5  702.85   17.03
   1   2   6  532.78   14.80
   1   2   6  567.49   13.59
  -1   2   6  547.18   16.13
   1   2   7 1063.51   22.16
  -1   2   7 1011.12   22.91
  -1   2   8  669.57   19.88
   1   2   8  726.19   19.90
  -1   2   9   99.12    9.44
   1   2   9  117.91    9.91
   1   2  10  657.54   21.83
  -1   2  10  642.72   22.17
   1   2  11  242.26   14.58
   1  -2  11  271.80   16.36
  -1  -2  11  271.81   16.28
  -1   2  11  248.01   15.16
  -1   2  12  141.05   12.43
   1   2  12  155.20   12.45
  -1   3 -18  -15.70   12.33
   1   3 -18  -16.90   11.50
  -1   3 -17  168.37   19.25
   1   3 -17  140.83   18.20
   1   3 -16  -15.19   12.25
  -1   3 -16   47.05   14.80
  -1   3 -15  105.19   15.20
   1   3 -15  104.69   15.33
   1   3 -14   23.24   10.31
  -1   3 -14   28.93   11.55
   1  -3 -14   21.60    5.97
   1   3 -13  335.70   20.63
   1  -3 -13  331.97   15.99
  -1   3 -13  323.80   20.39
   1  -3 -12   12.69    5.62
   1   3 -12   31.44    9.63
  -1   3 -12   27.52    9.96
   1  -3 -11  291.19   14.48
   1   3 -11  282.85   17.27
  -1   3 -11  276.77   16.38
  -1   3 -11  293.85   18.05
  -1   3 -10  277.22   16.01
  -1   3 -10  277.76   16.44
   1   3 -10  281.57   16.58
   1  -3 -10  276.74   13.62
   1  -3  -9  577.05   18.25
  -1   3  -9  593.78   21.71
   1   3  -9  567.21   21.27
  -1   3  -8   22.14    7.15
   1  -3  -8   44.04    6.11
   1   3  -8   35.56    8.13
   1   3  -7  610.40   19.60
  -1   3  -7  587.04   19.90
   1  -3  -7  582.95   16.74
   1   3  -6  389.31   15.27
  -1   3  -6  390.42   15.77
   1  -3  -6  374.52   13.17
  -1   3  -5 1097.09   23.07
   1   3  -5 1130.83   22.82
  -1   3  -4  165.51    9.35
   1   3  -4  161.63    9.15
   1   3  -3  470.03   12.60
   1  -3  -3  472.84   12.57
  -1  -3  -3  465.85   10.46
  -1  -3  -2  256.59    7.82
   1  -3  -2  240.96    9.10
   1   3  -2  247.81    9.69
   1   3  -1 1063.30   18.21
  -1   3  -1 1050.64   19.23
  -1  -3  -1 1076.77   15.56
   1  -3  -1 1068.05   18.37
   1  -3   0 2359.73   27.53
   1   3   0 2294.20   24.16
  -1   3   0 2363.07   27.41
  -1  -3   0 2393.47   24.57
  -1  -3   1 1059.37   17.42
  -1   3   1 1022.55   17.70
   1  -3   1 1113.78   19.92
   1   3   1 1048.19   15.39
  -1   3   2  247.87    9.04
   1   3   2  257.53    7.71
   1  -3   2  254.95   10.47
   1  -3   3  459.49   14.35
   1   3   4  160.83    7.36
   1   3   5 1095.16   19.79
   1   3   5 1139.82   20.99
  -1   3   6  376.61   13.80
   1   3   6  385.80   13.28
   1   3   6  378.30   13.05
  -1   3   6  359.03   13.07
   1   3   7  559.75   16.38
  -1   3   7  580.84   17.97
   1   3   7  608.77   16.52
   1   3   8   46.77    7.67
  -1   3   8   40.22    6.89
  -1   3   9  601.32   20.43
   1   3   9  591.82   19.56
  -1  -3  10  297.19   16.52
  -1   3  10  282.84   15.18
   1   3  10  299.22   14.97
  -1   3  11  278.35   15.64
  -1  -3  11  308.77   17.27
   1   3  11  299.02   15.80
   1   3  12   24.59    7.42
  -1   3  12   18.16    7.46
   1   3  13  348.44   17.85
  -1   4 -17   46.41   13.88
   1   4 -17   47.03   14.10
  -1   4 -16   88.96   15.82
   1   4 -16   72.81   14.68
   1   4 -15   47.00   12.83
  -1   4 -15   50.68   12.92
   1   4 -14   94.53   14.38
  -1   4 -14  172.43   16.86
  -1   4 -13   30.12   10.06
   1   4 -13   37.18   11.38
  -1   4 -12  119.17   14.49
   1   4 -12   88.57   12.77
  -1   4 -11   60.87   10.51
   1   4 -11   76.64   11.83
  -1   4 -10  574.50   23.32
  -1   4 -10  567.39   23.15
   1   4 -10  541.94   22.08
   1   4 -10  563.04   22.68
   1   4  -9  158.52   13.26
   1   4  -9  140.06   11.71
  -1   4  -9  148.91   13.13
  -1   4  -9  155.97   12.42
   1   4  -8  359.82   16.98
  -1   4  -8  358.58   17.28
  -1   4  -7    1.19    6.69
   1   4  -7    8.86    6.42
   1   4  -6  257.55   13.36
  -1   4  -6  254.86   13.80
  -1  -4  -5  166.57    8.24
   1   4  -5  173.01   10.73
   1   4  -5  164.32   10.97
   1  -4  -5  173.18    9.68
  -1   4  -5  169.53   11.09
  -1  -4  -4  566.57   13.66
   1  -4  -4  551.15   15.68
   1   4  -4  571.28   16.35
   1   4  -4  567.53   18.18
   1   4  -3  139.36    8.62
   1  -4  -3  160.34    9.04
  -1   4  -3  136.58    9.72
   1   4  -3  136.64    9.28
  -1  -4  -3  141.01    7.31
   1  -4  -2  878.21   19.01
  -1   4  -2  815.33   20.37
   1   4  -2  840.77   19.74
  -1  -4  -2  841.71   16.20
  -1  -4  -1  242.18    9.36
   1   4  -1  251.47   10.44
   1  -4  -1  250.76   10.90
  -1   4  -1  254.86   11.20
   1   4   0 2916.61   31.99
  -1  -4   0 3023.10   32.34
  -1   4   0 2871.36   34.72
   1  -4   0 3005.02   35.81
  -1   4   1  256.62   10.42
   1  -4   1  257.31   11.46
   1   4   1  244.28    9.16
  -1  -4   1  246.32   10.36
   1  -4   2  827.89   20.37
   1   4   2  872.45   16.36
  -1   4   2  863.09   18.64
  -1  -4   2  876.90   19.48
   1  -4   3  150.19   10.20
   1  -4   4  547.98   18.20
   1   4   5  158.94    9.53
   1   4   5  175.25    9.00
  -1   4   6  258.34   12.19
   1   4   6  244.65   10.92
   1   4   6  254.00   11.78
  -1   4   7   -6.78    6.03
   1   4   7    6.44    5.17
  -1   4   7   12.54    5.57
   1   4   7    9.65    4.99
   1   4   8  336.81   14.25
   1   4   8  348.86   14.42
  -1   4   8  348.60   15.51
   1   4   9  137.36   10.42
  -1   4   9  171.19   12.51
   1   4  10  549.42   19.82
  -1   4  10  584.66   21.08
   1   4  11   63.61    8.67
  -1   4  11   63.35    9.26
   1   4  12   93.66   10.11
  -1   4  12  111.07   11.15
   1   4  13   38.53    8.22
  -1   5 -17    6.13    9.74
   1   5 -17    1.27   11.75
  -1   5 -16   95.48   15.25
   1   5 -16  116.60   17.19
  -1   5 -15   22.92   11.77
   1   5 -15   10.89   11.00
   1   5 -14  259.40   20.51
  -1   5 -14  291.34   21.24
   1   5 -13    2.45    9.40
  -1   5 -13    4.63    8.70
   1   5 -12  395.27   22.28
  -1   5 -12  367.72   21.85
  -1   5 -11   15.50    9.18
   1   5 -11   20.03    8.95
  -1   5 -10  451.56   21.93
   1   5 -10  453.51   21.53
   1   5  -9   22.78    8.62
  -1   5  -9    5.63    6.31
  -1   5  -9    4.13    7.97
   1   5  -9   13.17    6.78
  -1  -5  -8  989.17   23.57
   1   5  -8  984.62   27.97
  -1   5  -8  963.94   29.74
   1   5  -8  927.67   28.25
  -1   5  -8  918.37   27.59
  -1   5  -7    6.43    7.13
  -1  -5  -7    4.86    3.64
   1   5  -7    9.25    5.78
  -1   5  -7    2.06    6.00
   1   5  -7   13.52    7.37
   1  -5  -7   11.45    4.73
   1   5  -6  868.36   26.25
  -1   5  -6  907.21   27.55
  -1   5  -6  895.33   25.00
  -1  -5  -6  866.02   19.98
   1  -5  -6  892.17   22.52
   1   5  -6  906.82   24.35
   1   5  -5    5.16    5.68
   1   5  -5    2.93    5.26
   1  -5  -5    8.16    4.11
  -1   5  -5    8.69    5.99
  -1   5  -5    5.97    6.21
  -1  -5  -5    6.49    3.92
   1  -5  -4 1919.82   31.16
   1   5  -4 1860.78   34.97
   1   5  -4 1908.98   30.92
  -1  -5  -4 1968.66   28.33
  -1   5  -4 1836.76   35.80
  -1   5  -3  107.37    9.49
   1   5  -3  108.76    8.24
  -1  -5  -3  115.00    7.62
   1  -5  -3  119.69    8.69
   1   5  -3  101.15    8.79
   1  -5  -2  995.40   22.52
   1   5  -2  903.21   22.38
  -1   5  -2  959.16   23.88
  -1  -5  -2  985.23   19.92
  -1   5  -1    2.64    4.52
   1  -5  -1    2.59    4.28
   1   5  -1    1.08    3.94
  -1  -5  -1    1.09    3.91
   1   5   0  243.06   10.94
  -1  -5   0  239.29   10.96
  -1   5   0  214.27   11.35
   1  -5   0  234.37   11.83
   1   5   1    5.27    3.46
   1  -5   1   -0.88    5.19
  -1   5   1    3.14    3.73
  -1  -5   1    7.51    4.94
   1   5   2  953.50   19.65
  -1   5   2  968.24   21.91
  -1  -5   2  977.89   22.45
   1  -5   2  921.82   23.37
   1  -5   3  100.67    9.45
   1  -5   4 1925.97   35.25
   1   5   5   -0.60    5.38
  -1   5   6  913.83   23.58
   1   5   6  893.40   20.80
   1   5   6  888.14   23.08
   1   5   7    5.45    5.16
  -1   5   7   12.84    6.01
   1   5   7    4.51    4.49
  -1   5   7   -0.84    5.81
   1   5   8  980.27   24.15
   1   5   8  956.55   24.77
  -1   5   8  978.14   25.63
  -1   5   8  964.67   25.35
  -1   5   9    1.40    5.69
   1   5   9   12.81    5.88
   1   5   9   16.02    6.08
  -1   5  10  468.50   19.02
   1   5  10  453.89   17.96
  -1   5  11   31.22    8.71
   1   5  11   25.88    6.88
   1   5  12  353.85   17.02
  -1   5  12  405.20   18.54
  -1   6 -16   27.00   12.85
   1   6 -16   15.00   11.36
   1   6 -15   65.95   14.09
  -1   6 -15   73.11   14.78
   1   6 -14   25.19   11.01
  -1   6 -14   30.87   11.12
   1   6 -13   97.59   14.21
  -1   6 -13   82.03   13.79
   1   6 -12  104.10   13.83
  -1   6 -12  116.23   14.77
   1  -6 -11   88.72   10.55
  -1  -6 -11   74.50    8.90
  -1   6 -11  109.38   14.18
   1   6 -11   93.23   13.33
   1  -6 -10   29.26    6.74
  -1  -6 -10   34.14    6.25
   1   6 -10   55.60   11.09
  -1   6 -10   30.47    9.58
  -1  -6  -9  105.35    9.12
   1  -6  -9   96.44    9.68
  -1   6  -9  103.58   12.44
   1   6  -9  104.41   12.31
   1   6  -8   40.29    9.18
  -1   6  -8   29.01    8.89
  -1   6  -8   28.44    7.76
   1   6  -8   24.46    7.72
  -1  -6  -8   31.43    5.72
   1  -6  -8   28.61    6.38
  -1   6  -7  141.71   12.78
   1   6  -7  152.91   12.30
   1   6  -7  138.04   12.44
  -1  -6  -7  133.47    9.21
  -1   6  -7  150.88   12.80
   1  -6  -7  142.38   10.47
   1  -6  -6  574.11   19.24
  -1   6  -6  618.97   24.46
  -1  -6  -6  581.33   17.56
  -1   6  -6  580.49   21.57
   1   6  -6  591.79   20.88
   1   6  -6  582.58   23.07
  -1   6  -5   89.55    9.95
  -1   6  -5   98.34    9.83
   1   6  -5   95.33    9.92
  -1  -6  -5   98.19    7.99
   1   6  -5  100.48    9.43
   1  -6  -5   94.15    8.53
   1  -6  -4   12.93    4.92
  -1   6  -4   15.77    5.91
   1   6  -4   10.01    5.07
   1   6  -4   10.36    5.62
  -1  -6  -4   15.18    4.43
  -1   6  -3   81.31    8.94
  -1  -6  -3   79.65    7.26
   1   6  -3   76.14    8.49
   1  -6  -3   72.43    7.79
   1   6  -2    0.95    4.41
  -1   6  -2    2.98    4.65
   1  -6  -2    3.11    4.69
  -1  -6  -2   -5.70    4.48
   1   6  -1  426.54   16.74
  -1  -6  -1  428.08   15.43
   1  -6  -1  432.10   16.63
  -1   6  -1  387.02   16.79
   1  -6   0  378.58   16.07
  -1  -6   0  366.44   14.55
  -1   6   0  359.76   15.62
   1   6   0  372.80   15.00
   1   6   1  420.64   15.14
  -1  -6   1  437.47   16.18
  -1   6   1  432.00   16.40
   1  -6   1  435.48   17.56
  -1  -6   2    5.02    5.21
   1   6   2    1.79    3.24
   1  -6   2    4.47    5.42
  -1   6   2    0.50    3.54
   1  -6   3   81.82    9.20
   1   6   3   75.43    6.63
  -1   6   3   78.75    7.57
   1  -6   4   22.13    7.10
   1   6   5   93.59    9.33
  -1   6   5   98.35    9.44
  -1   6   6  621.41   21.12
   1   6   6  615.42   20.95
   1   6   7  145.18   11.38
  -1   6   7  145.16   11.43
   1   6   7  143.24    9.94
   1   6   8   38.07    7.46
   1   6   8   32.52    6.16
  -1   6   8   38.85    7.85
  -1   6   8   31.27    6.61
   1   6   9  101.24   10.25
  -1   6   9   91.86    9.44
  -1   6   9   92.76    9.99
   1   6   9  100.89    9.29
   1   6  10   39.87    7.27
  -1   6  10   34.29    7.53
   1   6  10   33.91    7.50
  -1   6  11   96.11   10.20
   1   6  11  113.11   10.27
   1   6  12   92.08    9.76
  -1   6  12  106.09   10.71
   1   7 -16   41.44   13.38
   1  -7 -15  140.84   13.47
   1   7 -15  186.13   19.17
  -1   7 -15  188.99   19.39
  -1  -7 -14   59.31    8.69
   1  -7 -14   60.30    9.60
  -1   7 -14  104.93   15.69
   1   7 -14   85.93   14.92
   1   7 -13  102.43   14.64
   1  -7 -13   71.59   10.42
  -1  -7 -13   83.02    9.62
  -1   7 -13   98.34   14.65
  -1  -7 -12  107.52   10.45
  -1   7 -12  115.46   15.25
   1  -7 -12   98.33   11.26
   1   7 -12  108.93   14.40
  -1   7 -11  267.64   19.48
   1   7 -11  257.45   19.07
   1  -7 -11  230.79   15.35
  -1  -7 -11  242.71   14.31
  -1  -7 -10   94.60    9.47
  -1   7 -10   70.51   12.14
   1  -7 -10   98.20   10.57
   1   7 -10   95.06   12.70
  -1  -7  -9   89.48    8.95
  -1   7  -9  106.63   13.10
   1  -7  -9   98.90   10.13
   1   7  -9  113.65   13.05
   1   7  -8   94.30   11.71
  -1   7  -8  104.73   12.45
  -1  -7  -8   96.49    8.98
   1  -7  -8  118.48   10.68
  -1  -7  -7  185.29   11.30
  -1   7  -7  192.91   14.70
   1  -7  -7  184.10   12.43
   1   7  -7  197.46   14.43
   1   7  -6  145.74   12.78
   1  -7  -6  165.34   11.94
   1   7  -6  161.80   12.69
  -1   7  -6  162.25   13.58
  -1   7  -6  145.02   12.63
  -1  -7  -6  157.92   10.63
   1   7  -5  209.34   13.39
   1   7  -5  231.51   15.42
  -1   7  -5  230.03   14.51
  -1   7  -5  245.91   15.97
  -1  -7  -5  224.76   12.04
   1  -7  -5  219.47   13.25
   1  -7  -4  323.74   15.56
  -1  -7  -4  331.46   14.34
   1   7  -4  331.49   17.56
   1   7  -4  314.35   15.02
  -1   7  -4  311.25   17.75
   1   7  -3  416.13   19.00
   1  -7  -3  423.16   17.54
  -1  -7  -3  423.47   16.15
  -1   7  -3  435.58   20.24
  -1  -7  -2  714.60   21.00
  -1   7  -2  709.85   25.18
   1  -7  -2  646.50   21.90
   1   7  -2  712.56   24.04
  -1  -7  -1 2151.09   36.33
   1   7  -1 2105.90   40.02
   1  -7  -1 2154.50   39.55
  -1   7  -1 2144.48   40.92
   1   7   0  684.05   22.03
   1  -7   0  651.91   22.36
  -1   7   0  680.75   22.93
  -1  -7   0  661.73   21.00
  -1  -7   1 2081.87   37.20
  -1   7   1 2119.59   39.35
   1   7   1 2082.61   37.13
   1  -7   1 2103.33   39.75
   1   7   2  691.30   21.28
   1  -7   2  664.44   23.33
  -1  -7   2  684.23   22.15
  -1   7   2  672.06   22.24
  -1   7   3  404.99   17.24
   1  -7   3  416.00   19.16
   1   7   3  384.39   15.78
  -1   7   3  392.95   17.49
  -1   7   4  285.19   15.29
   1  -7   4  323.58   17.45
   1   7   4  315.46   16.02
   1   7   5  209.82   13.72
  -1   7   5  230.39   14.19
   1   7   6  155.53   12.17
  -1   7   6  164.90   12.32
   1   7   7  174.53   11.09
  -1   7   7  180.41   13.35
   1   7   7  193.89   13.86
  -1   7   8   91.78   10.62
   1   7   8   99.01   11.30
  -1   7   8   87.14    9.01
   1   7   8   94.99    8.93
  -1   7   9   88.21   10.74
   1   7   9   91.79   10.82
  -1   7   9   78.59    9.08
   1   7   9   97.63    9.18
   1   7  10   81.94   10.52
  -1   7  10  100.57   10.04
   1   7  10  106.20    9.99
   1   7  11  268.07   16.51
   1   7  11  259.87   14.12
  -1   7  11  246.24   14.63
   1   7  12  102.23   10.16
  -1   8 -15    2.62   10.19
   1   8 -15    6.05   10.21
   1   8 -14  149.31   16.89
  -1   8 -14  157.43   17.47
   1   8 -13   17.46   10.49
   1  -8 -13    1.65    5.33
  -1   8 -13    4.58   10.38
  -1  -8 -12  279.98   15.48
  -1   8 -12  296.43   21.79
   1  -8 -12  284.33   17.04
   1   8 -12  298.79   21.45
   1   8 -11   24.54   10.58
  -1   8 -11   18.82   10.43
   1  -8 -11   12.75    6.42
  -1  -8 -11   15.08    5.80
  -1   8 -10  133.64   15.32
   1   8 -10  151.08   15.43
   1  -8 -10  137.02   12.28
  -1  -8 -10  136.16   10.88
  -1   8  -9   72.33   12.08
   1   8  -9   58.40   11.16
  -1  -8  -9   68.12    8.36
   1  -8  -9   80.91    9.93
  -1  -8  -8  381.90   16.99
   1  -8  -8  371.66   18.49
   1   8  -8  411.25   21.28
  -1   8  -8  383.98   21.16
   1   8  -7    6.01    7.82
  -1   8  -7    3.14    7.71
  -1  -8  -7    7.13    5.45
   1  -8  -7    0.13    5.78
   1   8  -6  336.32   17.89
  -1   8  -6  320.29   18.10
  -1  -8  -6  338.23   15.62
   1  -8  -6  357.88   17.82
  -1   8  -5    6.02    7.35
   1   8  -5    6.05    5.94
   1   8  -5   -4.21    6.83
   1  -8  -5    2.60    6.52
  -1  -8  -5    4.92    5.62
   1   8  -4  468.43   19.02
   1  -8  -4  473.56   19.80
   1   8  -4  479.37   21.98
  -1  -8  -4  493.58   18.93
  -1   8  -4  476.05   22.42
  -1   8  -3   92.15   11.00
  -1  -8  -3   73.06    9.40
   1   8  -3   79.57    8.89
   1   8  -3   72.90    9.51
   1  -8  -3   62.89    8.93
   1   8  -2  255.85   15.86
  -1  -8  -2  260.67   14.51
   1  -8  -2  269.46   15.63
  -1   8  -2  249.14   16.03
  -1   8  -1  122.34   11.43
   1   8  -1  120.48   11.29
   1  -8  -1  130.87   11.95
  -1  -8  -1  106.40   10.38
   1   8   0  534.07   20.99
  -1   8   0  509.26   20.99
   1  -8   0  512.24   21.22
  -1  -8   0  518.29   20.05
   1  -8   1  113.01   11.62
  -1   8   1  134.54   11.58
  -1  -8   1  130.54   11.48
   1   8   1  123.49   10.71
  -1   8   2  257.13   15.57
  -1  -8   2  254.90   15.51
  -1   8   2  250.97   14.99
   1  -8   2  279.50   16.92
   1   8   2  257.04   14.39
   1  -8   3   82.46   10.71
   1   8   3   75.44    8.27
  -1   8   3   77.73    9.90
  -1   8   3   81.06    9.07
   1   8   4  456.89   20.78
  -1   8   4  464.72   20.59
   1   8   5    3.57    6.70
  -1   8   5    6.58    7.10
  -1   8   6  334.30   18.26
   1   8   6  351.37   18.73
   1   8   7    2.71    6.51
   1   8   7   -4.06    5.29
  -1   8   7    3.53    6.90
  -1   8   8  382.68   17.08
   1   8   8  399.05   20.03
  -1   8   8  362.92   19.37
   1   8   8  441.63   17.07
   1   8   9   77.46   10.72
  -1   8   9   88.43   11.31
   1   8   9   61.85    7.84
  -1   8   9   67.10    8.54
   1   8  10  137.09   13.05
  -1   8  10  140.65   13.31
  -1   8  10  127.86   10.99
   1   8  10  137.58   10.53
   1   8  11    9.71    5.88
   1   8  11   15.24    7.75
  -1   9 -14   28.91   11.32
   1   9 -14   48.73   12.61
  -1   9 -13  103.81   15.37
   1   9 -13  128.53   16.02
   1   9 -12   28.88   11.37
  -1   9 -12    0.99    9.03
  -1   9 -11  219.26   18.74
   1   9 -11  240.21   19.58
   1  -9 -11  222.00   14.80
   1   9 -10   53.88   11.48
   1  -9 -10   51.46    8.98
  -1   9 -10   42.30   10.96
  -1  -9 -10   59.33    7.89
  -1   9  -9  132.82   15.25
  -1  -9  -9  131.71   10.75
   1   9  -9  118.30   14.21
   1  -9  -9  123.67   12.07
   1  -9  -8   15.69    7.01
  -1  -9  -8   20.41    6.00
   1   9  -8   15.53    8.80
  -1   9  -8   13.24    8.99
   1  -9  -7  489.76   21.52
   1   9  -7  495.25   23.25
  -1  -9  -7  520.64   20.10
  -1   9  -7  472.44   23.29
   1  -9  -6  163.77   13.34
  -1   9  -6  143.19   14.20
   1   9  -6  144.18   13.65
  -1  -9  -6  134.95   11.28
   1   9  -5  230.61   15.38
   1  -9  -5  224.07   15.41
  -1  -9  -5  219.05   13.85
  -1   9  -5  215.66   15.81
  -1  -9  -4    4.14    5.65
   1  -9  -4   -3.91    6.58
   1   9  -4    2.04    6.89
   1   9  -3  124.20   12.26
  -1  -9  -3  132.87   11.47
   1   9  -3  131.64   11.40
   1  -9  -3  126.99   12.22
  -1  -9  -2  134.74   11.88
   1  -9  -2  125.40   12.52
  -1   9  -2  123.31   12.42
   1   9  -2  130.28   12.13
  -1  -9  -1  387.57   18.52
   1  -9  -1  367.51   19.14
   1   9  -1  378.51   18.97
  -1   9  -1  373.90   19.20
   1  -9   0   48.44    9.13
  -1   9   0   49.19    8.40
   1   9   0   44.38    7.86
  -1  -9   0   62.56    9.58
  -1  -9   1  359.70   18.28
  -1   9   1  353.80   18.24
   1  -9   1  356.91   19.43
   1   9   1  351.74   17.63
   1   9   2  137.18   11.40
  -1   9   2  146.02   12.02
   1  -9   2  151.46   13.80
  -1   9   2  132.93   12.32
   1   9   3  125.13   10.72
   1  -9   3  139.48   13.69
  -1   9   3  139.99   13.31
  -1   9   4   -1.44    7.07
   1   9   4   -9.01    7.82
   1   9   5  230.25   16.44
  -1   9   5  223.69   15.91
   1   9   6  146.36   13.69
  -1   9   6  154.42   14.20
   1   9   7  503.48   23.35
   1   9   7  483.08   17.30
  -1   9   7  505.35   23.51
  -1   9   8   21.63    8.24
   1   9   8   18.45    7.98
  -1   9   8    3.93    5.59
   1   9   9  121.90   12.98
  -1   9   9  129.71   13.69
   1   9  10   58.48   10.63
  -1   9  10   63.66   11.03
   1   9  11  249.12   17.85
   1  10 -13  143.87   16.21
  -1  10 -12   18.79   10.73
   1  10 -12   11.08    9.85
  -1  10 -11  185.37   17.70
   1  10 -11  170.10   16.16
  -1  10 -10   22.80   10.42
   1  10 -10   49.80   11.46
   1 -10  -9  399.15   19.34
   1  10  -9  432.58   23.45
  -1  10  -9  374.96   22.62
   1  10  -8    7.92    8.71
  -1 -10  -8    3.05    4.90
   1 -10  -8   12.30    6.42
  -1  10  -8   -2.19    8.88
   1 -10  -7  339.28   18.40
  -1  10  -7  338.32   20.76
   1  10  -7  336.04   20.10
  -1 -10  -7  352.56   16.73
  -1  10  -6   53.57   10.85
  -1 -10  -6   52.68    8.51
   1  10  -6   50.84   10.10
   1 -10  -6   39.07    8.26
   1  10  -5  316.30   18.34
  -1  10  -5  325.24   19.31
  -1 -10  -5  322.60   16.75
   1 -10  -5  349.63   19.14
   1 -10  -4   -0.06    6.43
   1  10  -4   -1.70    6.52
  -1  10  -4   -0.01    6.96
  -1 -10  -4    0.48    5.89
  -1 -10  -3  626.70   24.00
   1  10  -3  607.42   23.03
   1 -10  -3  587.80   24.93
   1  10  -2  193.66   13.51
   1 -10  -2  198.28   15.76
  -1 -10  -2  218.93   15.08
   1 -10  -1  373.56   20.58
  -1 -10  -1  364.38   18.93
   1  10  -1  350.47   19.03
  -1 -10   0  103.83   11.84
   1  10   0   90.23   10.54
   1 -10   0  110.05   13.06
  -1  10   1  353.83   18.84
   1 -10   1  348.62   20.45
   1  10   1  366.36   18.51
  -1  10   1  348.44   20.01
  -1  10   2  196.53   14.50
   1  10   2  187.64   13.44
  -1  10   2  205.05   16.01
   1 -10   2  220.36   17.07
   1  10   3  610.56   26.39
  -1  10   3  625.11   26.57
   1  10   4   -2.90    7.61
  -1  10   4   -5.22    7.88
   1  10   5  313.08   19.53
  -1  10   5  325.42   20.00
   1  10   6   30.05    9.14
  -1  10   6   51.73   10.40
   1  10   7  330.81   20.81
  -1  10   7  361.37   21.56
   1  10   8    2.71    7.58
  -1  10   8    5.62    7.90
  -1  10   9  425.48   23.48
   1  10   9  417.66   23.27
   1  10  10   35.84    9.72
  -1  10  10   27.25    9.44
   1  10  11  211.90   17.07
   1  11 -12   62.29   12.43
   1  11 -11    8.41    8.98
  -1  11 -11    7.60    9.38
   1  11 -10   86.56   12.87
  -1  11 -10   76.53   12.62
   1  11  -9    7.56    8.18
  -1  11  -9   14.36    9.21
   1  11  -8  143.68   14.49
  -1  11  -8  155.28   15.97
   1  11  -7   -0.84    7.19
  -1  11  -7    5.76    7.82
   1 -11  -6   49.37    8.75
   1  11  -6   53.40   10.03
  -1  11  -6   46.37   10.01
   1 -11  -5   -0.20    6.11
   1  11  -5   -1.17    6.41
  -1  11  -5   -8.80    7.92
  -1 -11  -5    4.33    5.50
   1  11  -4  171.98   13.71
   1 -11  -4  160.64   13.95
  -1  11  -4  160.60   13.94
  -1 -11  -4  178.60   13.19
  -1  11  -3   40.77    8.75
   1  11  -3   40.48    8.07
   1 -11  -3   23.13    8.02
  -1 -11  -3   48.13    9.00
   1 -11  -2   80.29   11.31
  -1 -11  -2   77.82   10.17
   1  11  -2   58.05    8.53
   1 -11  -1   38.29    9.29
  -1 -11  -1   42.10    8.76
   1 -11   0    5.63    7.71
  -1  11   0    5.00    7.60
  -1  11   1   33.12    8.52
   1 -11   1   41.89    9.97
   1  11   2   79.25   11.95
  -1  11   2   86.05   12.30
  -1  11   3   34.42    9.19
   1  11   3   36.18    9.91
   1  11   4  193.71   17.32
  -1  11   4  174.06   16.04
  -1  11   5   -3.94    7.47
   1  11   5   -6.55    8.82
  -1  11   6   53.90   10.73
   1  11   6   57.54   10.82
  -1  11   7   12.32    8.81
   1  11   7   -1.81    7.59
  -1  11   8  163.35   16.09
   1  11   8  163.47   15.79
  -1  12  -9  166.22   16.18
  -1  12  -8   74.30   11.82
  -1  12  -7  173.11   15.74
  -1  12  -6  163.23   14.84
  -1  12  -5  176.53   14.97
  -1  12  -4  147.88   13.60
  -1  12  -3  244.99   16.33
   1 -12  -3  279.36   18.02
  -1  12  -2   63.34   11.26
   1 -12  -2   90.18   11.79
  -1  12  -1  112.27   13.67
   1 -12  -1  108.89   12.48
  -1  12   0   13.26    8.33
   1 -12   0   36.92    9.49
   1  12   1  119.97   14.51
  -1  12   1   88.46   12.97
   1  12   2   57.01   11.24
  -1  12   2   71.33   11.88
   1  12   3  250.63   19.48
  -1  12   3  263.31   19.91
  -2   0 -19  -17.96   11.45
  -2   0 -18  235.35   21.54
  -2   0 -17  -10.31   10.98
  -2   0 -16  317.25   22.27
   2   0 -16  329.13   15.40
  -2   0 -16  335.74   13.78
   2   0 -16  311.62   23.03
   2   0 -15    1.39    4.55
  -2   0 -15   -2.54    9.96
  -2   0 -15   -3.32    4.13
  -2   0 -14  338.91   20.71
  -2   0 -14  308.63   12.82
   2   0 -14  282.38   20.30
  -2   0 -13   -0.03    3.72
  -2   0 -13   -4.59    8.19
   2   0 -12  754.24   28.34
  -2   0 -12  769.57   18.39
  -2   0 -12  799.17   27.49
  -2   0 -11   -3.28    8.06
   2   0 -11   -2.77    9.00
  -2   0 -11   -0.28    3.23
   2   0 -10  227.52   14.96
  -2   0 -10  252.50    9.50
  -2   0 -10  281.82   16.00
  -2   0  -9   12.79    7.51
  -2   0  -9    0.89    2.62
  -2   0  -8 1690.27   20.24
  -2   0  -8 1604.54   30.02
   2   0  -8 1648.19   32.66
  -2   0  -7    8.36    6.79
  -2   0  -7    1.75    2.46
   2   0  -6  417.61   15.16
  -2   0  -6  433.55    8.63
  -2   0  -6  436.84   14.10
   2   0  -5   -5.49    6.32
  -2   0  -5    5.23    5.36
  -2   0  -5    0.15    1.77
  -2   0  -4 2486.89   15.55
   2   0  -4 2538.91   29.99
  -2   0  -4 2524.73   26.22
  -2   0  -3   -0.59    4.63
   2   0  -3  -26.29    8.10
   2   0   2 7984.25   31.69
   2   0   7   -2.95    5.47
   2   0   8 1642.60   30.16
   2   0   9   -3.24    5.90
   2   0  10  235.66   13.91
  -2   0  11   -1.93    6.72
   2   0  11   -1.28    6.96
   2   0  12  839.54   26.84
  -2   0  12  738.55   26.16
  -2   1 -19   24.48    9.94
   2   1 -18   70.11   14.64
  -2  -1 -18   52.26   12.91
  -2   1 -18   59.88   13.89
   2   1 -17   15.13   10.91
  -2  -1 -17   19.03   10.05
  -2   1 -17   25.31   11.66
  -2  -1 -16   18.26   10.41
   2   1 -16   17.89    9.62
  -2   1 -16   17.24   11.17
  -2   1 -16   36.13    5.48
  -2   1 -15  184.42   17.35
  -2  -1 -15  193.01   11.13
  -2   1 -15  186.07    9.89
  -2  -1 -15  157.31   15.74
   2   1 -15  162.44   16.71
   2  -1 -15  216.23   13.13
   2  -1 -14   51.88    7.67
  -2  -1 -14   27.79    9.90
  -2   1 -14   38.89   11.01
  -2  -1 -14   57.75    6.77
  -2   1 -14   51.89    5.89
   2   1 -14   32.97   11.20
  -2   1 -13   31.03   10.23
  -2  -1 -13   48.12    6.26
   2   1 -13   21.89    9.32
  -2  -1 -13   23.24    8.49
   2  -1 -13   41.25    7.09
  -2   1 -13   42.34    5.46
  -2   1 -12  101.39   12.67
   2  -1 -12   97.30    8.61
  -2  -1 -12   87.38    7.61
   2   1 -12   76.70   11.22
  -2  -1 -12   78.91   11.76
   2   1 -11  676.09   25.55
   2  -1 -11  686.93   19.66
  -2   1 -11  693.94   24.74
  -2  -1 -11  675.77   24.26
  -2  -1 -11  667.18   17.38
   2  -1 -10   75.10   10.12
   2  -1 -10   86.95    7.33
  -2  -1 -10   86.63   10.00
   2   1 -10   93.40   11.20
  -2  -1 -10   87.98    6.65
  -2   1 -10  105.92   11.19
   2  -1  -9  180.62   12.67
  -2  -1  -9  205.05    8.86
  -2  -1  -9  175.77   12.45
  -2   1  -9  195.05   13.22
  -2   1  -8  342.54   15.50
  -2  -1  -8  348.23   10.71
  -2  -1  -8  338.79   14.73
   2   1  -8  343.41   15.57
  -2  -1  -7  747.02   14.35
  -2   1  -7  726.02   20.15
   2   1  -7  725.75   20.41
  -2  -1  -7  724.98   19.22
  -2   1  -6   57.92    7.44
  -2  -1  -6   51.89    4.14
   2   1  -6   47.57    7.00
  -2  -1  -6   58.45    6.96
  -2  -1  -5  345.87   11.19
   2   1  -5  324.74   12.13
  -2   1  -5  331.12   12.16
   2   1  -4  256.77   11.38
  -2  -1  -4  250.21    8.62
  -2   1  -4  240.08   10.20
  -2  -1  -3   13.62    3.95
   2   1  -3   24.00    7.57
   2   1  -2  461.89    9.38
   2   1  -1  287.24    5.71
   2  -1   2  445.74   10.39
   2   1   2  452.49    7.11
   2   1   3    8.45    3.75
   2  -1   3   14.61    5.24
   2   1   3   10.55    2.55
   2   1   4  248.91    6.88
   2   1   4  240.52    8.17
   2   1   5  324.74   10.53
   2   1   5  338.16    8.33
   2   1   6   55.76    6.15
   2   1   7  719.39   18.35
   2   1   8  338.83   14.02
   2   1   9  194.73   11.90
  -2   1   9  163.76   11.41
  -2   1  10  107.89   10.89
   2  -1  10  103.67   10.42
   2   1  10   92.95    9.51
   2   1  11  700.84   23.80
  -2  -1  11  707.69   24.77
   2  -1  11  694.90   24.22
  -2   1  11  631.89   22.85
  -2  -1  12   98.53   11.18
   2  -1  12   90.84   11.16
   2   1  12   75.45   10.09
  -2   1  12  102.25   11.11
  -2   2 -18   38.31   13.00
   2   2 -18    8.17    9.80
   2   2 -17   43.43   13.28
  -2   2 -17   75.85   15.16
  -2   2 -16   75.52   14.03
   2   2 -16   94.59   14.75
   2  -2 -15  199.94   13.04
  -2   2 -15  217.12   18.85
   2   2 -15  157.03   17.32
   2  -2 -14   46.32    7.31
  -2  -2 -14   43.31    9.62
   2   2 -14   44.36   10.77
  -2   2 -14   48.92   12.37
   2   2 -13  370.84   21.84
   2  -2 -13  392.02   16.92
  -2  -2 -13  355.15   20.22
  -2   2 -13  387.48   21.52
   2   2 -12  294.05   18.40
  -2  -2 -12  275.98   17.21
  -2   2 -12  289.19   16.68
   2  -2 -12  301.31   14.54
  -2   2 -12  291.32   18.23
  -2   2 -11  154.77   12.42
  -2  -2 -11  145.18   12.65
  -2   2 -11  153.39   13.85
   2  -2 -11  151.88   10.56
   2   2 -11  145.34   13.92
   2  -2 -10  123.97    9.17
  -2   2 -10  133.63   11.18
  -2  -2 -10   99.76   10.42
  -2   2 -10  143.10   12.77
   2   2 -10  125.55   12.65
   2  -2  -9  248.91   11.65
  -2   2  -9  264.62   14.86
  -2  -2  -9  235.96   13.64
   2   2  -9  264.62   15.10
   2  -2  -8  649.88   17.25
  -2  -2  -8  624.02   19.69
  -2   2  -8  652.43   21.08
   2   2  -8  655.46   20.97
  -2  -2  -7  930.46   21.97
   2   2  -7  962.60   23.50
  -2   2  -7  953.49   23.69
   2  -2  -7  934.51   19.35
   2  -2  -6 1492.58   23.26
   2   2  -6 1492.87   26.79
  -2   2  -6 1486.10   27.52
  -2  -2  -6 1518.17   25.21
   2  -2  -5 1718.07   23.64
  -2  -2  -5 1761.76   24.41
  -2   2  -5 1786.98   27.91
   2   2  -5 1661.31   26.11
  -2   2  -4   13.38    5.59
   2  -2  -4   23.70    3.70
  -2  -2  -4   14.76    3.71
   2   2  -4   28.29    5.50
   2   2  -3 2720.82   26.54
   2  -2  -3 2719.74   26.70
   2  -2  -2  193.31    8.00
   2   2  -2  181.43    7.28
   2  -2  -2  165.45    6.77
   2  -2  -1  325.84    8.66
   2   2  -1  320.72    8.18
   2   2  -1  336.97    7.07
   2  -2  -1  327.70    9.46
  -2  -2  -1  323.08    5.66
   2   2   0 2109.47   17.11
   2  -2   0 2199.63   24.11
   2   2   1  311.88    5.61
   2  -2   1  321.24   10.19
   2   2   2  152.71    4.43
   2  -2   2  170.25    8.26
   2  -2   3 2677.33   30.73
   2   2   3 2671.54   21.03
   2   2   4   26.71    3.79
   2   2   4   21.62    3.56
   2   2   5 1664.17   22.28
   2   2   5 1741.84   22.26
  -2   2   5 1762.51   27.49
  -2   2   6 1500.34   27.11
   2   2   6 1503.60   23.61
   2   2   6 1488.63   21.61
   2   2   7  959.66   20.73
  -2   2   7  950.53   22.97
  -2   2   8  657.88   20.40
   2   2   8  631.31   18.31
   2   2   9  262.90   13.32
  -2   2   9  264.14   14.12
   2   2  10  129.16   10.71
  -2   2  10  120.55   10.69
  -2  -2  11  155.78   12.99
  -2   2  11  158.77   12.90
   2   2  11  141.36   11.67
  -2   2  12  326.96   17.78
   2   2  12  316.25   16.91
   2   2  13  366.97   18.59
   2   3 -18  116.33   17.46
  -2   3 -18  134.70   17.02
  -2   3 -17   25.05   11.18
   2   3 -17   70.05   14.95
   2   3 -16   42.98   13.15
  -2   3 -16   68.84   13.59
   2   3 -15  -11.92   10.84
  -2   3 -15   23.12   11.11
  -2   3 -14  297.46   20.58
   2   3 -14  260.83   19.45
  -2   3 -13  113.45   14.10
   2   3 -13  101.15   14.00
   2  -3 -13   95.28    9.53
   2   3 -12  187.48   16.22
  -2   3 -12  196.72   16.53
   2  -3 -12  198.88   12.50
  -2   3 -11  137.01   13.26
   2  -3 -11  130.30   10.30
  -2   3 -11  121.62   11.55
   2   3 -11  137.10   13.66
   2   3 -10  373.30   18.54
  -2   3 -10  362.50   18.09
  -2   3 -10  374.31   19.11
   2  -3 -10  388.37   15.88
   2  -3  -9  180.24   10.86
   2   3  -9  170.19   12.80
  -2   3  -9  176.60   13.50
   2   3  -8  648.40   21.35
   2  -3  -8  652.69   18.75
  -2   3  -8  645.14   21.68
   2   3  -7  196.73   12.37
  -2   3  -7  188.19   12.14
   2  -3  -7  190.62   10.11
   2   3  -6  302.10   13.54
  -2   3  -6  303.62   14.40
   2  -3  -6  298.21   11.97
   2  -3  -5   65.76    6.21
  -2   3  -5   61.92    8.35
   2   3  -5   87.12    8.47
   2   3  -4  391.86   12.74
   2  -3  -4  420.51   12.74
   2   3  -3  527.82   14.41
  -2  -3  -3  539.84    9.99
   2   3  -3  533.22   13.30
   2  -3  -3  555.03   14.67
  -2  -3  -2 3336.97   23.76
   2   3  -2 3294.41   32.62
   2   3  -2 3367.19   28.40
   2  -3  -2 3341.07   34.26
  -2  -3  -1    1.30    2.36
   2  -3  -1    1.05    3.66
   2   3  -1    3.11    2.97
  -2  -3   0  285.60    8.25
   2   3   0  264.60    8.20
  -2   3   0  272.73   10.24
   2  -3   0  274.76   10.61
  -2   3   1    1.63    3.16
   2  -3   1   -1.19    4.11
   2   3   1    2.15    2.21
  -2   3   2 3340.10   33.91
   2  -3   2 3431.91   37.63
   2   3   2 3369.59   23.70
   2  -3   3  556.28   16.18
   2   3   4  388.34   10.32
   2  -3   4  396.69   14.45
   2   3   5   76.87    7.05
   2   3   5   64.58    5.75
   2   3   6  306.47   11.93
   2   3   6  282.37   10.98
  -2   3   6  276.49   12.23
   2   3   7  189.68   10.07
  -2   3   7  194.88   11.45
   2   3   7  191.98    9.83
  -2   3   8  623.40   20.22
   2   3   8  663.61   17.67
   2   3   8  625.51   18.10
   2   3   9  175.48   11.14
  -2   3   9  177.42   12.44
  -2  -3  10  368.09   18.34
   2   3  10  367.08   16.24
  -2   3  10  353.70   17.09
  -2  -3  11  143.09   12.41
  -2   3  11  141.42   12.11
   2   3  11  128.38   10.97
  -2   3  12  182.42   13.68
   2   3  12  200.09   13.60
   2   3  13  103.88   10.87
  -2   4 -17   57.34   12.91
   2   4 -17   56.35   13.59
  -2   4 -16   59.25   13.32
   2   4 -16   45.26   12.86
  -2   4 -15   51.30   12.91
   2   4 -15   55.69   13.67
   2   4 -14   59.78   12.79
  -2   4 -14   72.93   12.98
  -2   4 -13  115.25   14.58
   2   4 -13  106.42   14.37
   2  -4 -12   12.51    5.85
   2   4 -12   14.57    8.66
  -2   4 -12   31.02   10.43
   2  -4 -11  180.58   12.35
   2   4 -11  184.35   14.87
  -2   4 -11  183.29   15.69
   2   4 -10   64.58   10.19
   2   4 -10   58.93    8.71
  -2   4 -10   51.95    8.71
  -2   4 -10   62.47   11.10
   2  -4 -10   66.69    8.00
  -2   4  -9  443.26   20.22
  -2   4  -9  461.25   20.57
   2   4  -9  386.59   18.45
   2   4  -9  430.62   19.46
   2  -4  -9  427.50   16.98
  -2   4  -8   79.63    9.89
   2   4  -8   96.61   10.74
  -2   4  -7    0.82    6.82
   2   4  -7   12.33    5.77
   2   4  -7   12.37    6.72
   2   4  -6   11.07    5.26
   2   4  -6   12.77    6.86
  -2   4  -6    2.26    6.22
  -2  -4  -5 1017.92   17.65
   2  -4  -5  958.25   22.30
   2   4  -5  998.38   22.27
   2   4  -5  970.32   23.82
   2  -4  -4  672.40   18.45
   2   4  -4  684.01   17.51
  -2  -4  -4  680.65   13.79
   2   4  -4  645.18   18.62
  -2  -4  -3  412.80   10.68
   2   4  -3  414.10   14.71
   2   4  -3  411.78   12.79
   2  -4  -3  419.65   14.43
  -2  -4  -2  262.76    8.66
   2   4  -2  271.70   11.39
  -2   4  -2  268.38   12.37
   2   4  -2  284.05    9.94
   2  -4  -2  273.81   11.81
  -2  -4  -1   50.55    4.85
   2   4  -1   72.35    6.19
  -2   4  -1   58.85    6.64
   2  -4  -1   57.79    6.66
   2  -4   0  274.74   11.89
   2   4   0  270.27    9.79
  -2  -4   0  271.24    9.70
  -2   4   0  266.07   11.32
   2   4   1   57.73    4.80
  -2   4   1   58.87    6.13
  -2  -4   1   57.86    6.01
   2  -4   1   56.22    6.95
   2  -4   2  278.84   12.81
  -2   4   2  274.30   11.34
   2   4   2  280.26    8.83
   2  -4   3  416.61   16.05
   2  -4   4  675.90   20.32
   2   4   5  964.50   18.46
   2   4   5  975.03   21.65
  -2   4   6   28.47    6.70
   2   4   6    7.66    4.65
   2   4   6   13.28    4.36
   2   4   7    6.71    4.47
  -2   4   7   -5.66    6.10
   2   4   7    8.80    5.02
  -2   4   8   67.78    8.03
   2   4   8   78.01    7.99
   2   4   8   70.77    7.41
   2   4   9  435.52   16.02
   2   4   9  416.88   16.17
  -2   4   9  462.79   19.06
   2   4  10   49.85    7.86
  -2   4  10   62.51    9.09
  -2   4  11  188.02   13.34
   2   4  11  168.29   11.99
   2   4  12   24.36    7.19
  -2   4  12   22.59    7.25
   2   4  13  114.09   11.03
  -2   5 -17  111.19   16.92
   2   5 -17   88.16   15.74
   2   5 -16   -6.40   11.48
  -2   5 -16    4.06    9.61
  -2   5 -15  169.12   18.04
   2   5 -15  190.09   19.03
  -2   5 -14   26.98   11.79
   2   5 -14   13.45   10.09
  -2   5 -13  467.38   24.96
   2   5 -13  471.05   24.82
  -2   5 -12   28.07   11.05
   2   5 -12   22.27    9.58
   2   5 -11  413.91   21.93
  -2   5 -11  383.07   21.31
  -2   5 -10   72.74   11.60
   2   5 -10   92.52   12.22
   2   5  -9  616.62   23.18
   2   5  -9  610.41   23.59
  -2   5  -9  596.64   24.23
  -2   5  -9  599.13   24.16
  -2   5  -8   87.14   10.65
  -2   5  -8   77.79   10.06
  -2  -5  -8   87.30    7.41
   2   5  -8   95.15   10.45
   2   5  -8  104.28   10.98
  -2   5  -7 1355.39   32.14
   2   5  -7 1350.22   33.02
  -2   5  -7 1368.93   35.12
   2   5  -7 1343.04   30.36
   2  -5  -7 1351.94   29.97
  -2  -5  -7 1353.48   24.41
   2  -5  -6   30.66    6.11
  -2   5  -6   27.17    6.94
  -2  -5  -6   34.24    4.60
   2   5  -6   30.33    7.51
  -2   5  -6   36.01    7.84
   2   5  -6   37.68    7.61
  -2  -5  -5  994.30   19.04
  -2   5  -5  954.56   27.70
   2   5  -5  982.99   23.31
   2   5  -5  948.62   25.74
   2  -5  -5  955.76   23.60
   2   5  -4  144.14    9.46
   2   5  -4  155.49   10.83
  -2   5  -4  150.74   11.38
  -2  -5  -4  153.20    7.82
   2  -5  -4  149.72    9.98
   2   5  -3 1222.00   22.76
  -2   5  -3 1211.02   28.59
   2   5  -3 1241.88   27.13
  -2  -5  -3 1197.15   20.21
   2  -5  -3 1232.54   26.26
   2   5  -2  356.84   14.11
  -2  -5  -2  375.16   12.00
  -2   5  -2  374.11   15.72
   2  -5  -2  400.83   15.27
  -2   5  -1  850.06   22.71
   2   5  -1  880.60   20.76
  -2  -5  -1  896.46   18.65
   2  -5  -1  878.88   22.26
  -2   5   0  107.34    8.65
   2   5   0  118.05    7.89
  -2  -5   0  125.48    8.10
   2  -5   0  117.68    9.31
   2   5   1  895.45   18.69
   2  -5   1  919.51   23.53
  -2   5   1  861.23   21.56
  -2  -5   1  904.84   20.23
   2   5   2  390.74   12.04
   2  -5   2  394.44   16.29
  -2   5   2  408.85   15.09
   2  -5   3 1256.93   28.47
   2  -5   4  153.48   11.51
   2  -5   5  983.74   26.90
   2   5   5  979.73   19.18
   2   5   5  912.68   22.88
   2   5   6   30.47    5.05
  -2   5   6   41.07    7.08
   2   5   6   28.13    6.21
   2   5   7 1357.64   28.70
   2   5   7 1294.77   24.98
  -2   5   7 1385.04   29.75
   2   5   8   86.10    8.90
  -2   5   8   82.97    9.14
   2   5   8   96.03    8.58
   2   5   9  590.74   19.10
   2   5   9  563.67   19.77
  -2   5   9  597.87   21.65
  -2   5  10   82.19    9.91
   2   5  10   79.28    9.11
   2   5  10   69.18    8.44
   2   5  11  380.68   17.09
  -2   5  11  434.07   19.10
   2   5  12   11.77    6.50
   2   5  13  431.34   19.01
  -2   6 -16   72.39   15.17
   2   6 -16   78.16   14.84
  -2   6 -15   42.92   13.23
   2   6 -15   45.08   12.44
   2   6 -14   85.70   14.66
  -2   6 -14   81.50   14.32
   2   6 -13   10.49    9.76
  -2   6 -13   33.43   11.70
  -2   6 -12  151.96   15.94
   2   6 -12  169.34   16.25
  -2  -6 -11  129.08   10.59
   2   6 -11  135.99   14.42
  -2   6 -11  123.63   14.72
   2  -6 -11  114.67   11.96
   2  -6 -10  126.83   12.07
  -2  -6 -10  136.02   10.03
   2   6 -10  151.74   14.28
  -2   6 -10  139.62   14.64
   2   6  -9   19.77    9.01
   2  -6  -9   -0.20    5.08
  -2   6  -9    9.16    8.74
  -2  -6  -9    0.79    3.89
  -2  -6  -8  325.22   13.34
   2  -6  -8  305.41   15.82
   2   6  -8  297.06   17.30
   2   6  -8  317.73   17.34
  -2   6  -8  313.76   17.96
  -2   6  -7  321.21   17.61
  -2  -6  -7  321.61   12.73
   2   6  -7  318.88   16.47
  -2   6  -7  326.54   18.62
   2  -6  -7  299.35   15.21
   2   6  -7  328.87   17.94
   2   6  -6   90.93   10.41
   2  -6  -6   84.09    8.64
  -2  -6  -6   79.91    6.94
   2   6  -6   86.92    9.34
  -2   6  -6   79.57    9.80
  -2   6  -6   65.75    9.37
   2  -6  -5  372.35   16.03
   2   6  -5  347.96   17.64
  -2  -6  -5  357.16   12.81
   2   6  -5  354.01   15.45
  -2   6  -5  347.79   18.59
   2   6  -4   89.61    8.52
  -2   6  -4   85.38    9.90
  -2  -6  -4   76.76    6.51
   2  -6  -4   91.24    8.73
   2   6  -4   88.64    9.29
  -2  -6  -3   27.16    4.80
   2  -6  -3   42.67    7.10
  -2   6  -3   38.24    7.31
   2   6  -3   29.83    6.20
   2   6  -3   29.06    5.50
   2  -6  -2   15.87    5.43
  -2   6  -2    9.99    5.41
  -2  -6  -2   14.25    4.50
   2   6  -2   13.35    5.45
  -2  -6  -1    4.91    4.21
   2   6  -1    5.41    4.28
   2  -6  -1    9.93    5.35
  -2   6  -1    2.42    4.84
  -2   6   0  938.90   25.18
   2   6   0  930.53   22.75
  -2  -6   0  960.48   22.08
   2  -6   0  917.37   25.16
   2   6   1    7.12    3.64
   2  -6   1    4.01    5.33
  -2   6   1    9.45    4.68
  -2  -6   1    8.90    4.62
   2  -6   2   10.27    5.71
   2   6   2   17.30    4.40
  -2   6   2   14.29    4.59
   2   6   3   38.34    5.17
   2  -6   3   34.77    7.47
   2  -6   4   81.79    9.44
   2   6   5  327.43   15.13
  -2   6   5  371.66   16.37
   2  -6   5  347.75   17.61
   2   6   6   86.65    9.17
   2   6   6   77.38    6.83
  -2   6   6   90.89    9.58
  -2   6   7  304.18   15.43
   2   6   7  315.26   13.22
   2   6   7  297.54   15.21
  -2   6   8  315.16   16.09
  -2   6   8  294.52   15.42
   2   6   8  320.27   15.93
   2   6   8  327.92   14.09
   2   6   9    3.42    6.04
   2   6   9    8.97    5.38
  -2   6   9   -6.00    6.91
  -2   6  10  136.24   11.51
   2   6  10  136.13   10.30
   2   6  10  127.62   11.56
  -2   6  11  130.63   11.68
   2   6  11  129.36   11.54
   2   6  11  136.94   11.05
   2   6  12  140.95   11.39
   2   6  13   24.68    6.98
   2   7 -16   89.76   15.48
   2  -7 -16   77.43   11.28
   2  -7 -15   63.66   10.03
  -2   7 -15   89.73   15.01
   2   7 -15   99.61   15.74
  -2  -7 -14   60.51    8.42
   2   7 -14   92.24   15.06
  -2   7 -14   75.08   14.73
   2  -7 -14   70.06   10.84
   2   7 -13   91.55   14.39
  -2   7 -13  108.13   14.80
   2  -7 -13   96.36   11.85
  -2  -7 -13   73.06    8.54
  -2   7 -12  229.03   19.72
   2  -7 -12  191.38   15.20
   2   7 -12  210.15   18.12
  -2  -7 -12  195.83   12.79
  -2  -7 -11  164.00   11.56
   2  -7 -11  170.65   14.24
   2   7 -11  165.76   15.91
  -2   7 -11  166.23   16.51
   2  -7 -10  190.76   14.46
   2   7 -10  203.37   16.48
  -2  -7 -10  186.16   11.72
  -2   7 -10  200.19   16.95
  -2   7  -9   98.78   12.56
   2   7  -9   86.96   11.95
  -2  -7  -9  105.30    8.82
   2  -7  -9   93.00   10.42
   2   7  -8  246.86   16.73
   2  -7  -8  288.69   15.97
  -2   7  -8  272.62   17.86
  -2  -7  -8  255.72   12.76
   2   7  -7  131.69   12.57
   2   7  -7  145.16   12.60
   2  -7  -7  150.99   11.84
  -2  -7  -7  137.31    9.49
  -2   7  -7  131.51   13.13
  -2  -7  -6  111.55    8.50
  -2   7  -6  110.18   11.79
   2   7  -6  120.90   12.29
   2   7  -6  105.54   10.76
  -2   7  -6   90.76   11.04
   2  -7  -6  110.54   10.37
   2  -7  -5  422.80   18.41
  -2  -7  -5  461.38   15.64
   2   7  -5  428.01   17.90
  -2   7  -5  460.24   21.55
   2   7  -5  435.10   20.75
   2  -7  -4  375.28   17.41
   2   7  -4  368.31   15.89
   2   7  -4  388.35   18.70
  -2   7  -4  405.99   20.45
  -2  -7  -4  385.98   14.50
  -2  -7  -3  358.57   14.30
   2   7  -3  344.19   17.22
   2   7  -3  362.15   14.77
   2  -7  -3  355.01   16.80
  -2   7  -3  371.09   18.88
  -2   7  -2  733.72   25.58
   2  -7  -2  703.68   23.36
   2   7  -2  697.00   23.38
  -2  -7  -2  714.16   19.84
   2   7  -1  375.44   17.02
  -2   7  -1  365.73   18.15
   2  -7  -1  364.69   17.54
  -2  -7  -1  389.51   15.27
  -2   7   0 1881.07   38.20
  -2  -7   0 1929.42   33.80
   2  -7   0 1955.78   39.09
   2   7   0 1922.51   35.90
   2   7   1  366.27   15.55
   2  -7   1  359.15   17.70
  -2  -7   1  374.35   16.07
  -2   7   1  377.45   17.60
   2  -7   2  716.41   24.80
  -2   7   2  693.35   22.55
  -2   7   2  718.10   23.41
   2   7   2  695.48   20.53
   2   7   3  379.29   14.96
   2  -7   3  354.20   18.01
  -2   7   3  357.64   16.88
  -2   7   3  347.76   16.50
  -2   7   4  375.43   17.38
   2  -7   4  384.36   19.28
  -2   7   5  446.06   19.13
   2  -7   5  439.97   20.85
   2   7   5  417.49   18.49
   2   7   6   94.25   10.30
  -2   7   6  111.68   10.97
   2   7   6   93.57    7.76
   2   7   7  121.86   11.65
  -2   7   7  135.73   12.04
   2   7   7  121.22    9.04
  -2   7   8  268.81   16.15
   2   7   8  263.46   15.84
   2   7   8  269.80   12.95
   2   7   9   93.13    8.74
  -2   7   9   97.63   10.70
  -2   7   9   86.44    9.39
   2   7   9   95.69   10.75
   2   7  10  183.37   11.58
   2   7  10  168.76   13.68
  -2   7  10  183.58   13.09
   2   7  11  195.82   14.54
   2   7  11  174.73   11.51
  -2   7  11  182.22   13.10
   2   7  12  181.06   12.24
   2   8 -15  124.38   16.35
   2  -8 -14   12.53    6.80
   2   8 -14   27.09   11.42
  -2   8 -14   13.17   10.10
   2  -8 -13  125.20   12.48
  -2   8 -13  143.90   17.17
   2   8 -13  109.90   15.06
   2   8 -12   -2.06    8.62
   2  -8 -12    2.24    5.55
  -2   8 -12   -4.57    9.35
  -2  -8 -12    1.82    4.27
  -2  -8 -11  220.61   12.82
  -2   8 -11  201.15   18.44
   2   8 -11  221.85   18.41
   2  -8 -11  209.28   15.49
  -2  -8 -10    8.06    4.82
   2  -8 -10   14.94    6.83
  -2   8 -10    7.39    9.30
   2   8 -10   16.89    9.59
  -2   8  -9  335.97   20.77
   2  -8  -9  326.72   18.19
  -2  -8  -9  307.78   14.60
   2   8  -9  321.41   19.53
   2   8  -8   60.56   10.58
  -2  -8  -8   52.69    7.30
   2  -8  -8   45.61    8.27
  -2   8  -8   59.45   11.33
  -2   8  -7  255.26   17.50
  -2  -8  -7  268.45   13.31
   2   8  -7  263.95   16.87
   2  -8  -7  258.13   16.26
  -2  -8  -6    5.13    4.95
  -2   8  -6   -0.72    8.21
   2  -8  -6   -0.06    5.76
   2   8  -6    1.71    7.15
   2   8  -5  502.34   22.26
   2  -8  -5  489.84   20.88
  -2  -8  -5  485.79   17.60
   2   8  -5  498.13   20.15
  -2  -8  -4   22.18    6.39
   2  -8  -4   23.48    8.23
   2   8  -4   30.05    7.92
   2   8  -4   23.85    7.19
  -2   8  -4   22.97    7.35
   2  -8  -3  282.65   16.54
  -2  -8  -3  239.90   13.35
   2   8  -3  255.41   15.78
  -2   8  -3  277.55   16.98
   2   8  -3  254.61   13.50
   2   8  -2  323.34   14.40
  -2  -8  -2  327.29   15.13
   2  -8  -2  304.88   17.28
   2   8  -2  327.92   17.82
  -2   8  -2  350.41   18.93
  -2   8  -1  410.66   19.59
   2  -8  -1  409.82   19.72
  -2  -8  -1  420.35   17.33
   2   8  -1  403.69   18.58
  -2  -8   0   26.17    6.70
   2   8   0   30.91    6.86
   2  -8   0   21.76    7.80
  -2   8   0   25.30    6.98
  -2   8   1  408.37   18.60
   2  -8   1  401.02   19.93
   2   8   1  400.87   17.46
  -2   8   1  394.48   18.88
  -2   8   2  310.87   16.64
   2   8   2  329.77   15.77
   2  -8   2  333.76   18.71
  -2   8   2  316.92   16.94
  -2   8   3  259.79   15.59
   2   8   3  234.75   13.19
  -2   8   3  236.81   14.55
   2  -8   3  246.03   16.61
   2  -8   4   14.90    8.27
  -2   8   4   27.39    8.14
   2   8   5  486.14   21.46
  -2   8   5  508.69   21.70
   2   8   6   -5.80    6.85
   2   8   6   -1.78    4.68
  -2   8   6    2.62    6.55
   2   8   7  267.31   16.83
  -2   8   7  267.13   16.88
   2   8   7  261.10   12.31
   2   8   8   58.81    7.23
  -2   8   8   62.69   10.11
   2   8   8   53.26    9.43
   2   8   9  315.70   14.01
  -2   8   9  326.74   16.46
  -2   8   9  334.14   18.90
   2   8   9  325.39   18.73
   2   8  10   12.13    7.47
  -2   8  10    3.71    5.87
   2   8  10   15.79    5.97
   2   8  11  239.35   16.70
   2   8  12    2.33    6.24
   2   9 -14   81.80   13.88
  -2   9 -13   49.09   13.22
   2   9 -13   36.06   11.51
   2  -9 -12  100.06   11.19
   2   9 -12  122.39   15.04
  -2   9 -12  117.47   16.22
  -2   9 -11   13.05   10.55
   2  -9 -11    3.00    5.60
   2   9 -11   13.25    9.38
  -2   9 -10  132.74   15.30
   2   9 -10  139.17   15.41
   2  -9 -10  143.00   13.00
   2  -9  -9    7.75    6.43
  -2   9  -9   12.60    9.68
  -2  -9  -9    6.75    4.53
   2   9  -9    8.86    8.82
  -2  -9  -8  250.29   13.22
   2   9  -8  241.53   17.45
  -2   9  -8  230.19   18.01
   2  -9  -8  233.67   16.15
  -2   9  -7   21.60    8.73
  -2  -9  -7   27.55    6.25
   2  -9  -7   29.06    7.86
   2   9  -7   23.98    8.27
  -2   9  -6  339.66   20.19
  -2  -9  -6  341.92   15.88
   2   9  -6  338.64   18.40
   2  -9  -6  326.75   18.56
   2  -9  -5  166.56   13.93
   2   9  -5  162.43   13.25
  -2   9  -5  179.59   14.95
  -2  -9  -5  158.52   11.57
   2   9  -4  326.96   16.99
   2  -9  -4  305.74   18.00
  -2  -9  -4  323.27   15.75
   2   9  -3   -0.50    6.51
   2  -9  -3   -4.70    7.48
  -2  -9  -3    7.91    5.86
   2   9  -3    5.47    6.35
  -2  -9  -2   78.65    9.08
   2   9  -2   76.73    8.89
   2   9  -2   77.06    9.71
   2  -9  -2   79.61   10.85
   2   9  -1   95.57   10.31
  -2  -9  -1  100.97   10.19
  -2   9  -1  103.23   11.14
   2  -9  -1   90.63   11.36
   2   9   0  577.35   22.13
  -2   9   0  607.24   24.16
  -2  -9   0  583.91   21.99
   2  -9   0  575.00   24.57
  -2   9   1   94.80   10.39
   2   9   1   91.31    9.64
  -2   9   1   96.60   11.18
   2  -9   1  101.11   12.15
  -2   9   2   95.37   11.47
   2  -9   2   83.52   11.38
  -2   9   2   80.18    9.80
   2   9   2   79.84    8.66
  -2   9   3   -1.94    7.26
   2  -9   3    3.67    7.32
   2   9   3   -1.07    4.90
   2  -9   4  328.45   20.19
   2   9   4  311.82   18.41
  -2   9   4  330.17   18.64
   2   9   5  141.29   13.37
  -2   9   5  170.09   14.49
   2   9   6  334.65   19.25
  -2   9   6  356.60   19.73
   2   9   7   17.12    5.07
   2   9   7   16.60    8.01
  -2   9   7   23.45    8.83
   2   9   8  217.12   16.41
  -2   9   8  231.63   16.84
   2   9   9   14.36    7.53
  -2   9   9   17.30    8.41
   2   9  10  137.57   14.05
   2   9  11    4.00    7.10
   2   9  12  110.12   12.67
   2  10 -13   -5.35    9.01
  -2  10 -12  106.53   15.12
   2  10 -12  131.36   15.24
   2  10 -11   15.31    9.80
  -2  10 -11   17.15   10.19
   2 -10 -10  254.19   16.62
   2  10 -10  270.04   19.48
  -2  10 -10  283.43   20.76
   2  10  -9   19.21    9.50
   2 -10  -9   20.26    7.01
  -2  10  -9   10.30    9.31
   2  10  -8  343.58   20.38
   2 -10  -8  358.26   19.54
  -2  10  -8  357.23   22.22
  -2  10  -7   15.91    9.44
  -2 -10  -7   12.47    5.07
   2 -10  -7   23.07    8.39
   2  10  -7   16.02    8.41
   2  10  -6  266.30   17.04
  -2  10  -6  223.76   17.39
   2 -10  -6  284.09   18.04
  -2 -10  -6  247.49   13.86
   2  10  -5   26.07    8.11
   2 -10  -5   25.34    8.19
  -2  10  -5   22.60    8.40
  -2 -10  -5   28.31    6.61
   2 -10  -4  397.64   21.37
  -2 -10  -4  391.12   17.74
   2  10  -4  369.52   18.47
   2 -10  -3    9.21    7.26
   2  10  -3    4.43    6.09
  -2 -10  -3    5.66    5.87
   2  10  -2  728.00   23.53
  -2 -10  -2  699.16   24.32
   2 -10  -2  710.23   28.36
   2  10  -1  250.38   16.02
   2  10  -1  274.59   14.50
   2 -10  -1  252.49   17.89
  -2 -10  -1  259.24   16.01
   2 -10   0  292.09   19.27
   2  10   0  294.10   16.87
  -2  10   0  310.86   18.72
   2  10   1  251.60   15.36
   2 -10   1  258.93   18.41
  -2  10   1  271.08   17.83
   2  10   2  684.43   23.79
  -2  10   2  684.67   27.43
  -2  10   2  760.41   27.31
   2 -10   2  688.77   28.83
   2 -10   3    9.96    8.00
  -2  10   3    3.05    7.29
  -2  10   4  383.70   21.18
   2  10   4  371.81   21.01
   2  10   5   21.74    8.71
  -2  10   5   26.41    8.39
  -2  10   6  259.51   18.58
   2  10   6  233.04   17.38
  -2  10   7   28.36    9.71
   2  10   7    8.19    8.08
  -2  10   8  360.03   21.28
   2  10   8  341.38   21.24
   2  10   9   13.85    8.79
  -2  10   9   33.41   10.32
   2  10  10  297.07   19.52
  -2  10  10  327.87   20.90
   2  10  11    7.88    7.77
   2  11 -12   12.02    9.84
  -2  11 -11   64.10   12.84
   2  11 -11   41.10   11.07
   2  11 -10   16.24    9.31
  -2  11 -10    7.68    9.18
   2  11  -9  122.79   13.68
  -2  11  -9  124.02   14.97
  -2  11  -8   -0.54    8.22
   2  11  -8    3.78    7.22
   2 -11  -7   40.68    8.53
   2  11  -7   51.70   10.03
  -2  11  -7   41.42   10.15
   2  11  -6   10.23    6.97
  -2  11  -6   -0.43    7.82
   2 -11  -6   -2.03    6.85
   2 -11  -5  193.11   15.34
  -2  11  -5  192.88   16.03
   2  11  -5  195.38   14.67
   2  11  -4    8.92    6.83
  -2  11  -4   -6.66    8.31
   2 -11  -4   11.53    7.73
  -2 -11  -4   15.13    6.64
   2 -11  -3  111.29   12.93
  -2 -11  -3  104.00   10.40
   2  11  -3   92.87   10.11
  -2  11  -2   30.65    8.47
   2 -11  -2   29.72    8.61
   2  11  -2   20.83    6.47
  -2  11  -1   49.97    9.67
   2 -11  -1   43.42    9.81
   2  11  -1   37.90    7.12
   2 -11   0   10.27    8.17
  -2  11   0   12.32    7.83
   2  11   0   11.79    5.34
  -2  11   1   42.82    9.51
   2 -11   1   61.10   11.19
   2 -11   2   33.44   10.07
  -2  11   2   27.81    9.05
  -2  11   3  114.86   13.51
   2  11   3   87.08   12.51
  -2  11   4   10.42    7.89
   2  11   4    1.88    7.54
  -2  11   5  206.67   17.21
   2  11   5  183.83   16.69
  -2  11   6   12.10    8.24
   2  11   6   -3.28    7.27
  -2  11   7   49.19   10.51
   2  11   7   32.77    9.66
   2  11   8   -2.09    7.59
  -2  12  -9   62.56   12.45
  -2  12  -8  122.97   14.47
  -2  12  -7   97.97   13.11
  -2  12  -6  136.72   14.25
  -2  12  -5  174.41   14.96
  -2  12  -4  178.62   14.93
   2 -12  -4  180.56   15.50
  -2  12  -3   92.67   11.68
  -2  12  -3   69.61   11.48
   2 -12  -3   84.29   11.84
   2 -12  -2  215.64   17.05
  -2  12  -2  208.74   17.18
   2 -12  -1   78.51   11.94
  -2  12  -1   56.98   10.62
  -2  12   0  112.35   13.64
   2 -12   0  114.31   13.41
   2 -12   1   48.36   10.59
  -2  12   1   55.95   11.30
   2  12   2  235.49   19.07
  -2  12   2  237.41   18.62
  -2  12   3   86.96   12.82
  -3   0 -19   43.07   13.27
  -3   0 -18  -10.17   10.67
  -3   0 -17  210.66   19.90
   3   0 -16   -0.78    4.53
  -3   0 -16  -10.42   11.29
  -3   0 -16   -2.32    4.06
  -3   0 -15  340.13   12.94
  -3   0 -15  342.72   21.80
  -3   0 -14   -8.60    8.99
  -3   0 -14   -2.72    3.79
  -3   0 -13  208.27    9.97
   3   0 -13  165.10   15.97
  -3   0 -13  197.85   16.08
  -3   0 -12    2.13    7.82
  -3   0 -12   -1.94    3.51
   3   0 -11 1191.08   33.61
  -3   0 -11 1121.46   30.11
  -3   0 -11 1136.29   20.05
  -3   0 -10   19.47    8.65
  -3   0 -10   -1.41    2.91
   3   0 -10   37.18    9.93
   3   0  -9  297.15   16.36
  -3   0  -9  329.89   15.65
  -3   0  -9  325.09    9.36
  -3   0  -8   -1.10    2.32
   3   0  -8  -14.46    8.77
  -3   0  -7 4032.62   43.53
   3   0  -7 4086.10   48.73
  -3   0  -7 4017.15   26.73
  -3   0  -6   -0.03    1.76
  -3   0  -6    2.80    5.33
   3   0  -5  260.20   11.63
  -3   0  -5  279.94   10.76
  -3   0  -5  277.80    5.78
  -3   0  -5  269.16    9.52
  -3   0  -4    3.11    5.01
  -3   0  -3 1616.32   19.52
   3   0   1 4500.33   24.15
   3   0   2    0.51    2.22
   3   0   6   -1.44    4.34
   3   0   7 3987.73   43.61
   3   0   8    1.28    5.27
   3   0   9  316.84   14.84
   3   0  10    3.41    6.06
  -3   0  11 1132.44   30.79
   3   0  11 1187.65   30.98
   3   0  12  -13.75    8.19
  -3   0  12    2.75    7.04
  -3  -1 -19   33.07   11.50
  -3   1 -19   43.60   13.98
  -3  -1 -18   24.88   10.82
  -3   1 -18   31.53   12.55
   3   1 -17    4.84   12.48
  -3   1 -17   48.53   12.31
  -3  -1 -17   40.49   11.78
   3   1 -16   94.39   13.57
  -3   1 -16  112.87   15.31
  -3  -1 -16   90.55   14.46
  -3   1 -15   13.57    9.59
  -3   1 -15   12.96    4.00
   3   1 -15    4.66    9.23
   3  -1 -15   13.42    5.65
  -3  -1 -15   10.82    8.80
   3  -1 -14   79.32    8.62
  -3   1 -14   56.13   11.94
  -3   1 -14   77.00    6.43
   3   1 -14   46.88   11.10
  -3  -1 -14   54.48   11.46
   3   1 -13   44.30   11.22
   3  -1 -13   78.86    8.42
  -3   1 -13   73.99   12.28
  -3   1 -13   76.08    9.82
  -3  -1 -13   67.52   10.55
  -3   1 -13   85.57    6.55
  -3   1 -12  227.91   16.51
  -3  -1 -12  259.64   16.86
  -3   1 -12  203.14   13.87
   3   1 -12  176.38   15.59
   3  -1 -12  219.76   12.45
  -3   1 -12  235.29    9.36
  -3  -1 -11   78.79    6.48
   3   1 -11   67.50   11.40
  -3   1 -11  105.87   10.36
  -3  -1 -11   80.22   10.65
  -3   1 -11   90.03    5.77
  -3   1 -11   85.03   10.88
  -3   1 -10  131.56   10.63
  -3   1 -10  140.08   12.42
  -3  -1 -10  132.66    7.51
   3   1 -10   95.66   11.65
  -3  -1 -10  133.99   11.51
   3   1  -9  266.88   15.38
  -3  -1  -9  292.98   10.07
  -3   1  -9  291.99   15.34
  -3  -1  -9  300.46   14.74
  -3   1  -8  733.23   20.33
  -3   1  -8  746.66   21.67
   3   1  -8  762.12   22.78
  -3  -1  -8  757.58   20.68
   3   1  -7   23.00    7.22
  -3   1  -7   31.86    8.00
  -3  -1  -7   28.79    6.81
  -3   1  -6  700.44   18.59
  -3  -1  -6  704.27   16.89
   3   1  -6  742.22   19.93
   3   1  -5   86.81    7.53
  -3   1  -5   82.72    7.21
  -3  -1  -5   82.41    6.58
   3   1  -4   -1.36    6.95
  -3   1  -4   17.13    5.38
  -3  -1  -4   22.91    4.37
  -3  -1  -3 1511.37   16.26
   3   1  -3 1531.18   20.38
   3   1  -2  187.50    6.79
  -3  -1  -2  214.80    5.31
   3  -1   1  444.79    6.12
   3  -1   1  436.45   10.15
   3  -1   2  198.57    7.96
   3  -1   3 1567.60   21.74
   3   1   3 1521.08   16.34
   3   1   4   18.58    3.79
   3   1   4   17.81    2.71
   3   1   5   80.02    4.36
   3   1   5   75.08    5.95
   3   1   6  723.46   16.79
   3   1   7   32.73    6.05
   3   1   8  767.53   20.39
  -3   1   9  288.08   14.86
   3   1   9  293.02   14.12
   3   1  10  148.76   11.34
  -3   1  10  124.13   11.27
  -3   1  11  100.74   11.11
  -3  -1  11   78.88   10.05
   3   1  11   82.75    9.47
   3   1  12  210.75   14.42
  -3  -1  12  237.10   15.89
  -3   1  12  215.09   15.09
   3   2 -18   88.26   15.51
  -3   2 -18   97.84   15.52
  -3   2 -17   12.06   10.59
   3   2 -17    0.89   12.05
   3   2 -16   83.39   13.62
  -3  -2 -16   78.76   13.27
  -3   2 -16  124.26   16.37
  -3   2 -15  137.49   16.20
  -3   2 -15  128.75    7.58
  -3  -2 -15  112.09   13.84
   3   2 -15  108.74   15.11
  -3  -2 -14  325.17   21.13
   3  -2 -14  330.91   16.25
  -3   2 -14  311.45   20.68
   3   2 -14  312.57   21.37
  -3   2 -14  336.10   11.41
   3  -2 -13   21.58    6.32
  -3  -2 -13   -2.20    9.69
  -3   2 -13   23.36    9.40
   3   2 -13   -0.61    9.67
  -3   2 -12  353.87   19.96
  -3   2 -12  314.98   17.43
  -3  -2 -12  295.40   17.72
   3   2 -12  286.32   19.01
   3  -2 -12  328.33   15.44
  -3  -2 -11  409.65   19.31
   3  -2 -11  427.44   16.72
  -3   2 -11  407.74   19.03
  -3   2 -11  415.54   20.12
   3   2 -11  412.47   20.77
  -3  -2 -10  268.00   15.11
  -3   2 -10  279.98   15.38
   3   2 -10  313.73   17.24
  -3   2 -10  290.52   16.32
   3  -2 -10  290.08   13.33
  -3   2  -9  347.30   16.11
   3  -2  -9  355.50   13.97
  -3  -2  -9  349.76   15.83
  -3   2  -9  341.40   16.82
   3   2  -9  369.46   17.77
  -3  -2  -8  239.91   12.43
  -3   2  -8  256.98   14.32
   3  -2  -8  251.51   11.32
   3   2  -8  257.14   14.46
   3   2  -7  920.81   23.40
  -3   2  -7  908.12   23.61
  -3  -2  -7  906.63   21.01
   3  -2  -7  907.93   19.58
   3   2  -6  803.22   20.56
  -3  -2  -6  797.85   18.07
  -3   2  -6  805.02   21.06
   3  -2  -6  769.96   17.18
   3   2  -5  545.75   15.68
  -3   2  -5  533.12   16.36
  -3  -2  -5  543.77   14.47
   3  -2  -5  542.03   13.58
  -3  -2  -4 2742.81   25.58
   3   2  -4 2752.81   30.42
   3  -2  -4 2732.50   28.76
   3   2  -3  615.04   13.20
  -3  -2  -3  621.37   10.14
   3  -2  -3  596.90   12.89
   3  -2  -2 4413.75   37.66
   3  -2  -2 4432.70   32.94
   3   2  -2 4372.98   29.08
   3   2  -1   16.58    3.29
   3  -2  -1    3.47    2.82
   3  -2  -1    9.83    4.02
   3  -2   0  970.90   13.76
   3  -2   0  985.68   17.83
   3  -2   1    6.07    4.14
  -3  -2   1    7.11    2.81
   3  -2   2 4497.22   39.60
   3  -2   3  600.47   15.51
   3   2   3  617.04    9.53
   3  -2   4 2747.08   33.60
   3   2   4 2707.59   24.04
   3   2   5  554.72   12.85
   3   2   5  531.93   12.55
  -3   2   6  818.25   20.74
   3   2   6  786.57   15.85
   3   2   6  787.91   17.02
   3   2   7  914.45   17.58
   3   2   7  918.87   20.15
  -3   2   7  972.56   24.21
   3   2   8  248.35   11.97
  -3   2   8  274.83   13.81
   3   2   9  365.70   15.29
  -3   2   9  353.39   16.56
   3   2  10  298.56   14.93
  -3   2  10  307.73   16.08
   3   2  11  433.97   18.36
  -3   2  11  440.25   19.70
  -3  -2  11  417.67   19.73
   3   2  12  372.50   18.06
  -3   2  12  335.94   17.80
   3   2  13   12.86    6.93
  -3   3 -18   -1.74   11.12
   3   3 -18   -5.55   12.64
  -3   3 -17  195.83   19.67
   3   3 -17  129.98   17.31
   3   3 -16  -10.70   12.85
  -3   3 -16    7.63    9.69
   3   3 -15   83.59   13.41
  -3   3 -15   96.20   13.91
   3   3 -14  119.34   15.92
  -3   3 -14  132.58   15.47
  -3   3 -13  270.05   18.61
   3  -3 -13  287.82   15.33
   3   3 -13  267.03   19.23
   3   3 -12   73.78   12.24
   3  -3 -12   65.59    8.31
  -3   3 -12   84.13   12.88
   3   3 -11  207.57   15.89
  -3   3 -11  183.44   13.81
  -3   3 -11  212.16   16.16
   3  -3 -11  207.15   12.65
   3   3 -10   43.49    9.23
  -3   3 -10   61.28   10.83
   3  -3 -10   46.68    6.90
  -3   3 -10   48.48    8.53
   3  -3  -9  462.13   16.81
   3   3  -9  457.65   19.53
  -3   3  -9  456.28   19.99
  -3   3  -8  442.85   18.82
   3  -3  -8  452.98   15.89
   3   3  -8  464.14   18.38
  -3   3  -7  350.91   16.14
   3  -3  -7  337.33   13.32
   3   3  -7  354.53   15.34
   3  -3  -6  199.56   10.19
   3   3  -6  216.36   11.81
  -3   3  -6  210.50   12.36
   3   3  -5  610.55   17.01
   3  -3  -5  608.80   16.18
  -3  -3  -4  182.26    5.71
   3   3  -4  189.44    9.48
   3  -3  -4  185.40    8.97
   3   3  -3  776.42   15.28
   3  -3  -3  752.77   16.64
   3  -3  -3  758.75   18.25
  -3  -3  -3  766.04   10.01
   3  -3  -2  985.85   19.97
   3   3  -2  969.86   17.63
  -3  -3  -2  996.96   11.14
   3   3  -2  996.30   15.04
   3   3  -1 2163.77   18.79
   3   3  -1 2172.60   23.80
  -3  -3  -1 2238.86   18.15
   3  -3  -1 2221.63   29.69
   3   3   0  361.74    6.44
   3   3   0  345.70    9.00
   3  -3   0  355.77   12.89
   3  -3   1 2180.59   30.18
   3   3   1 2216.68   18.96
  -3   3   1 2190.56   29.08
   3   3   2  988.83   11.19
   3  -3   2  989.36   21.25
  -3  -3   3  735.43   14.76
   3  -3   3  777.52   19.77
   3   3   3  779.87   10.98
  -3  -3   4  163.52    8.53
   3  -3   4  193.69   11.11
   3   3   4  189.64    6.76
  -3  -3   5  583.16   16.33
   3  -3   5  618.17   19.07
   3   3   5  634.67   13.48
   3   3   5  614.01   15.52
   3   3   6  206.28    9.18
   3   3   6  194.94    9.79
  -3  -3   6  197.74   10.87
  -3   3   7  350.67   14.99
   3   3   7  340.78   12.37
   3   3   7  348.39   12.62
  -3   3   8  441.11   17.66
   3   3   8  434.22   15.08
   3   3   8  458.45   14.43
  -3  -3   8  448.37   17.84
   3   3   9  442.75   16.52
  -3  -3   9  466.65   19.46
  -3   3   9  477.23   19.41
  -3   3  10   47.36    7.98
  -3  -3  10   45.96    8.10
   3   3  10   44.42    7.25
   3   3  11  204.91   12.93
  -3  -3  11  200.24   14.67
  -3   3  11  250.65   15.53
   3   3  12   66.32    9.25
  -3   3  12   91.04   11.25
   3   3  13  284.27   16.09
  -3   4 -17   61.15   14.16
   3   4 -17   39.38   12.38
  -3   4 -16   27.17   11.12
   3   4 -16   -5.90   11.53
   3   4 -15   16.14   11.36
  -3   4 -15   29.14   11.32
  -3   4 -14  380.59   23.08
   3   4 -14  345.50   22.17
   3   4 -13  226.74   18.42
  -3   4 -13  243.21   19.15
  -3   4 -12    4.22    8.44
   3   4 -12    6.06    9.29
   3   4 -11    7.29    8.29
  -3   4 -11   13.66    8.95
   3  -4 -11    5.48    5.00
  -3   4 -10  221.49   15.43
  -3   4 -10  199.55   15.37
   3   4 -10  215.10   15.19
   3  -4 -10  209.82   12.83
  -3   4  -9   45.35    9.23
   3   4  -9   34.77    8.41
  -3   4  -9   30.40    7.60
   3  -4  -9   34.39    6.44
   3   4  -8  201.26   13.30
  -3   4  -8  184.99   13.51
   3  -4  -8  186.26   11.45
  -3   4  -7  175.87   12.56
   3   4  -7  177.23   11.98
   3  -4  -7  160.74   10.60
   3  -4  -6  394.35   14.96
  -3   4  -6  389.55   17.04
   3   4  -6  367.99   15.10
   3   4  -6  386.69   16.10
   3   4  -5    7.53    4.91
  -3  -4  -5    5.94    2.56
   3   4  -5   14.78    6.58
   3  -4  -5   10.05    5.08
   3  -4  -4  258.20   12.56
   3   4  -4  256.08   12.22
   3   4  -4  270.78   11.57
  -3  -4  -4  264.09    7.85
   3  -4  -3  450.84   15.58
   3   4  -3  444.73   12.80
   3   4  -3  410.33   14.40
  -3  -4  -3  430.69    9.53
   3  -4  -2  878.24   21.19
   3   4  -2  888.46   19.45
  -3  -4  -2  909.28   14.08
   3   4  -2  906.67   16.17
   3  -4  -1   33.02    5.98
  -3  -4  -1   46.45    4.45
   3   4  -1   38.97    4.19
   3   4  -1   44.95    5.49
  -3   4  -1   37.75    5.86
   3  -4   0  477.72   15.99
  -3   4   0  486.05   15.60
   3   4   0  484.05   12.40
  -3   4   1   36.58    5.61
   3  -4   1   33.74    6.38
   3   4   1   37.49    4.04
   3  -4   2  905.33   22.77
   3   4   2  917.90   14.37
  -3   4   2  895.23   20.80
   3  -4   3  455.00   17.03
   3  -4   4  268.81   14.08
   3   4   4  252.48    8.35
   3   4   5    9.78    3.82
   3  -4   5   14.23    6.74
   3   4   6  380.62   11.86
   3   4   6  383.35   14.02
   3   4   7  159.15    9.86
   3   4   7  169.31    9.09
   3   4   8  187.88   10.44
   3   4   8  185.58   10.96
  -3   4   8  242.74   15.49
  -3  -4   8  193.31   12.50
  -3   4   9   19.95    7.00
   3   4   9   31.67    5.94
  -3  -4   9   29.26    6.82
   3   4   9   28.52    6.30
   3   4  10  219.90   12.58
   3   4  10  231.93   12.13
  -3  -4  10  229.05   14.80
  -3   4  10  234.43   14.75
   3   4  11   12.38    6.11
  -3   4  11    8.62    7.11
   3   4  12    2.86    5.95
   3   4  13  246.23   14.99
  -3   5 -17   17.77   12.01
   3   5 -17    1.16   11.09
  -3   5 -16  216.14   20.63
   3   5 -16  219.06   21.13
   3   5 -15    5.39    9.81
  -3   5 -15    7.44    9.95
  -3   5 -14  234.51   19.83
   3   5 -14  221.37   18.79
  -3   5 -13   82.73   13.41
   3   5 -13  111.74   15.52
   3   5 -12  645.87   27.71
  -3   5 -12  640.99   28.01
   3   5 -11   34.69   10.93
  -3   5 -11    9.19    9.61
  -3   5 -10  529.75   23.93
   3   5 -10  537.32   22.77
   3   5  -9    9.24    8.01
  -3   5  -9    8.07    6.27
   3   5  -9   10.64    6.39
  -3   5  -9   -0.17    7.23
   3   5  -8  535.39   21.65
   3   5  -8  564.65   21.15
  -3  -5  -8  559.01   15.66
  -3   5  -8  532.90   23.31
  -3   5  -8  574.10   22.96
  -3  -5  -7   25.22    4.39
   3   5  -7   29.70    7.18
   3  -5  -7   29.50    6.59
  -3   5  -7   24.57    7.48
  -3   5  -7   26.72    8.44
   3   5  -7   29.09    7.49
   3  -5  -6 1020.44   26.40
  -3  -5  -6 1029.58   18.52
   3   5  -6 1004.14   27.43
   3   5  -6 1025.80   24.86
  -3   5  -6 1031.07   27.45
   3   5  -5  297.96   14.77
  -3  -5  -5  307.61    9.95
   3   5  -5  298.66   13.41
   3  -5  -5  308.82   14.53
   3   5  -4 2306.33   32.40
  -3  -5  -4 2285.62   25.47
   3  -5  -4 2295.89   37.29
   3   5  -4 2282.94   37.65
  -3   5  -4 2225.53   40.67
   3   5  -3    7.28    4.48
  -3  -5  -3    7.64    2.89
   3   5  -3    8.87    4.65
  -3   5  -3   12.98    5.64
   3  -5  -3   17.09    5.42
  -3  -5  -2 1082.91   18.30
   3   5  -2 1097.66   23.72
  -3   5  -2 1011.79   25.91
   3   5  -2 1060.54   18.97
   3  -5  -2 1095.89   25.75
  -3  -5  -1  531.63   13.61
  -3   5  -1  530.40   18.61
   3   5  -1  556.85   12.67
   3   5  -1  508.54   15.68
   3  -5  -1  549.62   18.54
  -3   5   0 1006.37   24.42
   3   5   0  998.17   20.36
   3  -5   0 1029.73   25.26
  -3  -5   0 1083.30   20.17
   3  -5   1  537.30   18.96
  -3   5   1  546.47   18.17
   3   5   1  566.33   14.45
   3   5   2 1092.72   18.63
   3  -5   2 1106.57   26.92
  -3   5   2 1098.35   25.23
   3  -5   3    7.91    6.21
   3  -5   4 2225.11   39.91
   3   5   5  289.72   10.06
   3  -5   5  288.03   15.52
   3   5   6 1029.70   24.52
   3   5   6  959.26   19.29
   3   5   7   24.91    4.94
   3   5   7   24.32    5.93
   3   5   8  580.89   19.30
   3   5   8  536.91   16.65
  -3   5   8  564.49   20.84
  -3   5   9   -5.76    7.00
   3   5   9    4.17    5.03
   3   5   9    1.09    4.40
   3   5  10  526.06   18.40
   3   5  10  527.48   19.33
  -3   5  10  581.72   22.21
  -3   5  11   16.58    7.11
   3   5  11    8.04    6.10
   3   5  12  662.43   21.98
   3   5  13   70.20    9.25
   3   6 -16   17.25   10.75
  -3   6 -16   43.85   12.77
   3   6 -15   85.42   15.16
  -3   6 -15   80.42   14.48
   3   6 -14   13.98   10.94
  -3   6 -14    4.25   10.07
  -3   6 -13   63.71   12.87
   3   6 -13   64.53   12.79
  -3   6 -12  108.22   14.12
   3   6 -12   99.71   13.29
  -3   6 -11  344.13   21.40
   3  -6 -11  338.59   19.65
   3   6 -11  363.45   21.04
  -3  -6 -11  322.15   15.10
   3  -6 -10    1.16    6.43
   3   6 -10    7.27    8.21
  -3   6 -10   -2.50    8.45
  -3  -6 -10    3.65    4.01
  -3   6  -9  235.45   17.18
   3   6  -9  261.20   16.40
  -3  -6  -9  247.12   11.79
   3  -6  -9  231.28   14.87
   3   6  -8  377.29   18.37
   3  -6  -8  343.75   17.38
  -3  -6  -8  357.07   13.04
   3   6  -8  337.71   18.12
  -3   6  -8  323.67   18.85
   3  -6  -7  132.56   11.01
   3   6  -7  131.29   11.86
   3   6  -7  132.16   11.62
  -3   6  -7  138.30   12.73
  -3  -6  -7  126.42    7.77
  -3   6  -7  138.14   13.03
  -3  -6  -6  123.00    7.57
   3   6  -6  117.25   11.05
  -3   6  -6  120.44   12.07
   3   6  -6  122.65   10.47
   3  -6  -6  141.12   11.11
   3  -6  -5  110.19    9.97
  -3   6  -5  118.93   11.67
  -3  -6  -5  121.85    7.21
   3   6  -5  117.89    9.65
   3   6  -5  127.10   10.86
   3   6  -4  210.18   13.21
   3  -6  -4  214.17   12.84
  -3  -6  -4  208.82    9.24
   3   6  -4  214.11   11.61
  -3   6  -4  230.51   14.86
   3   6  -3  273.27   14.50
  -3  -6  -3  288.23   10.96
   3   6  -3  289.12   12.30
   3  -6  -3  278.54   14.60
  -3   6  -3  266.12   15.69
  -3   6  -2    4.37    4.95
  -3  -6  -2    6.52    3.55
   3  -6  -2    6.70    5.30
   3   6  -2    1.63    3.95
   3   6  -2    1.09    4.57
   3   6  -1   46.24    6.31
  -3  -6  -1   41.80    5.38
  -3   6  -1   42.87    6.90
   3  -6  -1   43.06    7.41
  -3   6   0   11.46    5.44
  -3  -6   0   16.48    4.84
   3   6   0   12.10    4.83
   3  -6   0   10.53    5.90
  -3   6   1   46.99    6.73
   3   6   1   44.94    5.29
   3  -6   1   45.30    7.81
  -3   6   2    0.07    4.33
   3   6   2    6.63    3.34
   3  -6   2    2.44    5.62
   3  -6   3  289.26   15.84
   3   6   3  280.73   10.89
   3  -6   4  218.32   14.42
   3  -6   5  119.46   11.97
  -3   6   5  116.18   10.25
   3   6   5  113.28    6.97
  -3   6   6  124.72   11.09
   3   6   6  117.23   10.11
   3   6   6  113.25    7.64
  -3   6   7  141.44   11.25
   3   6   7  118.83   10.43
   3   6   7  114.27    8.14
   3   6   8  327.01   16.09
   3   6   8  340.28   13.55
   3   6   9  235.93   14.31
   3   6   9  242.82   12.52
  -3   6   9  232.09   14.30
   3   6  10    5.78    5.65
   3   6  10    1.32    5.66
  -3   6  10  -11.66    7.58
   3   6  11  326.46   15.12
  -3   6  11  356.41   17.75
   3   6  11  378.22   17.90
   3   6  12   92.01    9.47
   3   6  13   67.55    8.75
   3   7 -16  105.48   16.98
   3  -7 -16   54.33   10.49
   3  -7 -15   56.52    9.71
   3   7 -15   96.85   15.46
  -3   7 -15   84.62   14.37
  -3   7 -14   54.24   13.41
   3   7 -14   77.85   14.11
   3  -7 -14   72.17   11.53
  -3   7 -13   67.97   13.30
  -3  -7 -13   68.11    7.77
   3   7 -13   54.08   12.39
   3  -7 -13   64.28   10.52
  -3   7 -12  167.09   17.54
  -3  -7 -12  138.52   10.31
   3   7 -12  147.20   15.71
   3  -7 -12  153.61   14.38
  -3   7 -11  144.49   15.78
   3  -7 -11  143.87   13.64
   3   7 -11  156.95   15.53
  -3  -7 -11  137.59    9.90
  -3  -7 -10  207.54   11.48
   3   7 -10  202.43   16.02
   3  -7 -10  199.88   15.36
  -3   7 -10  196.08   17.33
   3  -7  -9  357.09   19.10
   3   7  -9  354.13   19.45
  -3   7  -9  359.02   21.21
  -3  -7  -9  351.44   14.28
  -3   7  -8  258.77   17.65
   3  -7  -8  255.23   15.69
   3   7  -8  260.90   16.16
  -3  -7  -8  256.46   11.97
   3  -7  -7  374.92   18.35
  -3   7  -7  371.27   19.80
   3   7  -7  367.46   19.45
   3   7  -7  362.11   18.03
  -3  -7  -7  359.44   13.48
   3   7  -6  123.56   11.99
  -3  -7  -6  122.76    8.14
  -3   7  -6  121.73   12.69
   3   7  -6  124.07   11.07
   3  -7  -6  117.48   11.06
   3   7  -5  137.22   10.73
  -3  -7  -5  133.47    8.54
   3   7  -5  139.76   12.23
  -3   7  -5  140.20   12.86
   3  -7  -5  118.85   11.04
   3   7  -4  629.13   19.57
   3  -7  -4  639.05   23.07
   3   7  -4  641.52   23.51
  -3  -7  -4  632.03   17.09
  -3   7  -4  678.11   26.08
   3   7  -3  242.67   14.51
  -3  -7  -3  239.73   11.16
  -3   7  -3  232.48   15.64
   3  -7  -3  233.47   14.51
   3   7  -3  242.14   12.06
   3   7  -2  161.32    9.49
   3   7  -2  162.12   11.68
   3  -7  -2  171.32   12.70
  -3  -7  -2  158.92    9.37
  -3   7  -2  168.90   13.21
   3  -7  -1  979.59   28.46
   3   7  -1 1034.69   26.95
  -3  -7  -1  990.11   22.64
  -3   7  -1 1022.01   29.84
  -3   7   0  632.39   23.33
  -3  -7   0  590.66   18.54
   3   7   0  570.72   19.80
   3  -7   0  586.47   22.60
  -3   7   0  602.96   20.44
   3   7   1 1018.12   24.72
  -3   7   1 1032.64   26.88
  -3   7   1  990.58   28.45
   3  -7   1 1018.67   29.71
  -3   7   2  152.27   11.73
  -3   7   2  163.30   11.87
   3   7   2  157.09    9.82
   3  -7   2  129.50   12.01
   3  -7   3  231.45   15.53
  -3   7   3  231.11   13.90
   3   7   3  237.71   11.36
  -3   7   4  636.27   22.33
   3  -7   4  649.58   24.91
   3  -7   5  134.06   12.88
  -3   7   5  121.45   10.98
   3   7   6  120.30   11.38
  -3   7   6  130.73   11.54
   3   7   6  112.72    7.74
   3   7   7  345.52   17.53
  -3   7   7  332.60   17.47
   3   7   7  350.70   13.34
   3   7   8  249.99   11.78
  -3   7   8  263.86   15.99
   3   7   8  269.05   16.01
   3   7   9  350.74   14.30
   3   7   9  316.04   17.41
  -3   7   9  337.63   17.09
   3   7  10  178.93   11.13
  -3   7  10  190.72   13.53
   3   7  10  202.76   14.46
   3   7  11  140.18   12.98
   3   7  11  135.21   10.21
   3   7  12  143.23   12.79
   3   7  12  145.48   10.87
   3   8 -15   -4.71    9.42
   3   8 -14  104.28   14.86
  -3   8 -14  114.75   16.35
   3  -8 -14  101.46   12.13
  -3   8 -13   13.55   10.78
   3   8 -13   17.79   10.23
   3  -8 -13    4.52    6.06
   3  -8 -12  125.04   12.87
  -3   8 -12  122.38   15.69
   3   8 -12  120.40   14.87
  -3   8 -11   -3.27    9.47
   3  -8 -11    1.41    6.22
  -3  -8 -11   -1.25    4.11
   3   8 -11    4.81    9.25
   3  -8 -10  225.78   16.09
   3   8 -10  236.49   17.68
  -3  -8 -10  241.22   12.18
  -3   8 -10  212.04   18.44
   3  -8  -9   32.70    8.11
  -3   8  -9   31.17   10.83
  -3  -8  -9   30.91    5.53
   3   8  -9   31.05    9.59
   3   8  -8  239.93   16.58
  -3  -8  -8  262.78   12.35
   3  -8  -8  240.27   16.24
  -3   8  -8  242.24   18.04
   3  -8  -7    0.37    6.72
  -3  -8  -7    3.71    4.04
  -3   8  -7   -2.57    8.12
   3   8  -7   14.56    7.62
  -3   8  -6  587.17   24.71
  -3  -8  -6  600.13   18.12
   3  -8  -6  604.82   24.04
   3   8  -6  594.27   22.32
  -3  -8  -5   13.54    5.33
   3   8  -5   16.23    7.62
   3  -8  -5    8.57    7.08
   3   8  -5    7.81    6.14
   3   8  -4  386.81   16.67
  -3  -8  -4  398.25   15.38
   3   8  -4  407.44   19.77
   3  -8  -4  399.23   19.67
  -3   8  -3  101.18   11.51
   3   8  -3  103.93   10.83
  -3  -8  -3  107.52    9.20
   3   8  -3  101.08    9.27
   3  -8  -3  119.11   12.14
   3   8  -2   71.23    7.73
  -3   8  -2   81.83   10.27
   3   8  -2   82.21    9.87
  -3  -8  -2   80.68    8.72
   3  -8  -2   63.09   10.22
   3   8  -1  170.00    9.93
  -3   8  -1  149.00   12.80
  -3  -8  -1  163.07   11.16
   3  -8  -1  149.28   13.24
   3   8  -1  161.84   12.16
   3  -8   0  889.53   29.47
   3   8   0  913.68   26.10
  -3   8   0  876.95   26.36
  -3   8   0  939.54   29.16
  -3   8   1  167.58   13.14
   3  -8   1  147.07   13.54
   3   8   1  172.11   11.80
  -3   8   1  146.93   12.18
   3   8   2   72.26    8.35
  -3   8   2   77.70    9.63
   3  -8   2   84.84   11.37
  -3   8   2   59.95    8.44
   3  -8   3  107.80   12.73
  -3   8   3   95.56   10.75
   3   8   3   95.66    8.74
   3  -8   4  378.30   20.55
  -3   8   4  383.55   18.70
  -3   8   5    5.00    7.14
   3  -8   5   16.55    9.05
   3   8   6  633.49   17.14
  -3   8   6  592.61   23.72
   3   8   6  619.04   24.31
   3   8   7    2.87    4.27
  -3   8   7   -0.70    6.91
   3   8   7   -1.29    6.78
   3   8   8  264.07   12.01
   3   8   8  257.11   16.40
  -3   8   8  264.47   16.99
   3   8   9   39.86    6.24
  -3   8   9   18.52    5.97
   3   8   9   35.60    8.33
   3   8  10  226.41   12.04
   3   8  10  249.46   16.89
   3   8  11    1.84    6.40
   3   8  12  119.40   12.63
   3   9 -14   55.00   12.42
   3   9 -13   77.74   13.05
  -3   9 -13   85.88   14.90
   3  -9 -12   20.03    7.44
   3   9 -12   14.57    9.32
  -3   9 -12   29.33   11.95
  -3   9 -11  110.33   15.26
   3   9 -11   98.60   13.66
   3  -9 -11  106.46   12.37
   3  -9 -10    1.29    6.17
  -3   9 -10   10.05    9.17
   3   9 -10   16.72    9.37
   3   9  -9  187.07   16.36
  -3  -9  -9  211.03   11.07
  -3   9  -9  209.61   18.35
   3  -9  -9  179.67   14.87
   3   9  -8   20.00    9.16
  -3   9  -8    4.18    8.53
  -3  -9  -8   13.17    4.78
   3  -9  -8   13.12    6.90
  -3   9  -7  167.97   15.69
   3   9  -7  175.02   14.38
  -3  -9  -7  167.26   10.39
   3  -9  -7  155.86   14.00
  -3  -9  -6    1.99    4.34
  -3   9  -6   -0.02    8.27
   3   9  -6    1.52    6.68
   3  -9  -6    5.83    6.40
   3   9  -5  427.12   19.15
   3  -9  -5  445.81   22.05
  -3  -9  -5  451.62   16.99
  -3  -9  -4  167.42   11.19
   3   9  -4  141.99   11.78
   3  -9  -4  183.72   14.77
   3   9  -4  158.69   13.61
   3  -9  -3  116.41   12.41
  -3  -9  -3  142.69   10.54
   3   9  -3  123.01   11.75
   3   9  -3  135.30   11.00
   3   9  -2   38.39    6.90
   3   9  -2   35.67    7.73
   3  -9  -2   34.24    8.79
  -3  -9  -2   52.52    7.91
  -3   9  -1  235.49   16.27
   3   9  -1  227.58   14.70
   3  -9  -1  202.39   16.13
  -3   9  -1  199.02   14.32
   3   9  -1  224.40   12.16
   3   9   0   70.30    8.95
  -3   9   0   57.72    9.58
  -3   9   0   63.20    9.10
   3  -9   0   71.08   11.20
   3   9   1  228.65   13.50
   3  -9   1  199.10   15.94
  -3   9   1  218.80   15.18
  -3   9   1  218.49   15.16
   3   9   2   37.24    6.53
   3  -9   2   35.76    9.17
  -3   9   2   36.96    8.49
  -3   9   2   41.70    8.30
   3   9   3  115.79    9.46
   3  -9   3  144.06   14.79
  -3   9   3  132.23   12.72
   3  -9   4  187.31   16.39
  -3   9   4  146.54   13.35
   3   9   5  430.58   21.77
  -3   9   5  475.53   22.32
   3  -9   5  470.04   24.31
  -3   9   6    1.23    6.67
   3   9   6   -1.63    7.20
   3   9   6   -5.28    4.66
  -3   9   7  168.03   14.89
   3   9   7  163.34   14.47
  -3   9   8   12.12    7.65
   3   9   8    4.01    6.91
  -3   9   9  213.77   16.70
   3   9   9  215.31   16.70
   3   9  10    1.25    6.89
   3   9  11  100.85   12.38
   3   9  12    9.30    7.32
   3  10 -13  160.09   16.87
   3  10 -12    6.51    9.15
  -3  10 -12   10.97    9.90
   3  10 -11  129.19   14.71
  -3  10 -11  147.04   16.73
   3  10 -10   15.66    8.84
   3 -10 -10   15.03    6.86
  -3  10 -10   18.29   10.46
   3  10  -9  321.40   19.68
   3 -10  -9  309.67   18.99
  -3  10  -9  323.15   21.87
  -3  10  -8   30.66   10.02
   3 -10  -8   40.28    8.37
   3  10  -8   37.42    9.47
   3 -10  -7  174.91   15.12
   3  10  -7  200.78   15.20
  -3  10  -7  175.24   16.73
   3  10  -6   12.76    8.14
  -3  10  -6    6.06    8.18
  -3 -10  -6    2.98    4.39
   3 -10  -6    1.31    6.65
   3 -10  -5  401.27   21.91
   3  10  -5  415.10   19.43
  -3 -10  -5  417.57   16.78
   3  10  -4  113.49   11.11
   3 -10  -4  105.65   12.56
  -3 -10  -4   99.97    9.24
   3  10  -3  331.92   16.32
   3 -10  -3  334.81   20.50
  -3 -10  -3  339.55   16.32
   3  10  -2   18.52    6.70
   3  10  -2    9.86    5.95
  -3  10  -2   -2.20    7.17
   3 -10  -2   12.51    7.94
   3  10  -1  665.14   24.68
   3  10  -1  646.61   20.34
  -3  10  -1  616.72   25.25
   3 -10  -1  630.83   27.98
   3  10   0  299.69   13.62
   3 -10   0  277.67   19.56
  -3  10   0  291.10   18.51
   3  10   0  261.86   15.36
  -3  10   1  659.13   26.51
   3 -10   1  629.36   28.33
   3  10   1  645.70   23.11
   3 -10   2    8.42    8.06
  -3  10   2   10.66    7.25
   3  10   2   13.04    5.16
  -3  10   3  326.00   19.44
   3 -10   3  324.58   21.29
   3 -10   4   96.19   13.47
  -3  10   4  112.24   12.84
   3  10   5  412.92   22.61
  -3  10   5  426.44   22.77
  -3  10   6    7.16    8.36
   3  10   6   -2.67    7.65
  -3  10   7  199.01   16.71
   3  10   7  185.75   16.24
  -3  10   8   44.83   10.31
   3  10   8   39.80   10.28
   3  10   9  329.76   20.99
  -3  10   9  336.64   21.25
   3  10  10   11.51    8.22
   3  10  11  147.53   14.70
   3  11 -12   46.67   11.29
   3  11 -11   20.19    9.15
  -3  11 -11   10.43    9.76
  -3  11 -10   98.74   14.47
   3  11 -10  103.33   13.00
  -3  11  -9    6.84    9.29
   3  11  -9    9.25    8.05
   3 -11  -8   46.92    8.82
   3  11  -8   53.56    9.95
  -3  11  -8   52.65   11.56
   3  11  -7   23.53    8.46
   3 -11  -7    2.85    6.82
  -3  11  -7   -1.30    8.59
   3 -11  -6  167.68   14.83
   3  11  -6  205.28   14.82
  -3  11  -6  155.36   15.44
   3  11  -5    5.48    6.44
   3 -11  -5    7.95    7.53
  -3  11  -5   -1.22    8.43
   3 -11  -4   66.02   11.12
   3  11  -4   76.81    9.53
  -3  11  -3   14.18    7.40
   3  11  -3   22.91    6.84
   3 -11  -3   16.92    7.75
   3  11  -2  120.09   10.16
  -3  11  -2  119.78   13.20
   3 -11  -2  108.49   13.29
  -3  11  -1    6.96    6.71
   3 -11  -1   18.01    8.69
   3 -11   0   79.13   12.11
  -3  11   0   80.31   11.87
  -3  11   1   13.93    7.81
   3 -11   1   22.27    9.45
  -3  11   2  125.47   13.88
   3 -11   2  123.70   14.28
  -3  11   3   11.86    7.73
   3 -11   3   22.28    9.46
  -3  11   4   69.65   11.39
   3  11   4   68.21   11.14
  -3  11   5    2.53    7.73
   3  11   5   -4.64    8.36
  -3  11   6  169.73   15.52
   3  11   6  182.06   16.89
   3  11   7   -4.74    7.65
  -3  11   7   15.11    9.41
   3  11   8   49.64   11.14
  -3  12  -9   79.98   13.33
  -3  12  -8   75.54   12.61
  -3  12  -7  101.16   13.77
  -3  12  -6  152.24   14.98
  -3  12  -6  134.62   13.54
   3 -12  -5  132.98   13.85
  -3  12  -5  107.03   13.06
  -3  12  -5  115.26   13.27
  -3  12  -4  171.37   15.37
   3 -12  -4  169.98   15.49
  -3  12  -4  198.40   15.86
   3 -12  -3  201.81   17.08
  -3  12  -3  185.48   16.16
  -3  12  -2   63.53   11.29
   3 -12  -2   54.63   10.68
   3 -12  -1  219.71   17.92
  -3  12  -1  217.59   17.56
  -3  12   0   75.71   12.15
   3 -12   0   71.66   12.32
   3 -12   1  214.05   18.21
  -3  12   1  201.54   17.04
   3 -12   2   68.43   12.45
  -3  12   2   78.09   12.32
  -3  12   3  188.51   16.78
   3 -13  -1   96.65   13.09
   3 -13   0    9.13    8.35
   3 -13   1   71.81   12.10
  -4   0 -19  -17.71   12.81
  -4   0 -18  152.74   18.21
  -4   0 -17   -7.41   11.02
  -4   0 -16  179.19   17.76
  -4   0 -15   -2.78    9.05
  -4   0 -14   61.43    9.33
  -4   0 -14   39.02   10.54
  -4   0 -13    3.86    5.77
  -4   0 -13    2.47    8.59
  -4   0 -12  450.27   19.08
  -4   0 -12  478.72   21.42
  -4   0 -12  449.97   12.71
  -4   0 -11    0.35    4.84
  -4   0 -11    9.12    8.38
  -4   0 -11   -0.21    2.86
  -4   0 -10 1903.36   36.51
   4   0 -10 1900.29   41.23
  -4   0 -10 1864.86   22.12
   4   0  -9  -11.69    8.78
  -4   0  -9    3.06    4.25
  -4   0  -9    2.03    2.32
  -4   0  -9    3.87    6.71
  -4   0  -8  391.63   15.74
  -4   0  -8  353.86   13.54
  -4   0  -7    5.00    6.66
  -4   0  -7    0.53    3.87
  -4   0  -6 2945.16   35.03
  -4   0  -6 2911.79   32.87
  -4   0  -5   -0.08    4.50
  -4   0  -5   -1.17    3.23
  -4   0  -4  700.66   14.26
  -4   0  -4  733.35   15.36
   4   0   0 2508.13   21.28
   4   0   1   -2.07    2.52
   4   0   2  797.85   12.53
   4   0   3    0.49    4.41
   4   0   4  653.61    6.91
   4   0   8  354.71   14.59
   4   0   9   -0.13    5.39
   4   0  10 1905.29   36.92
   4   0  11   -1.87    6.27
  -4   0  11    9.65    7.16
  -4   0  12  471.38   21.40
   4   0  12  448.10   20.21
  -4   1 -19    3.97   10.31
  -4  -1 -19  -17.23   11.77
  -4   1 -18   23.59   11.34
  -4  -1 -18   13.03   10.15
  -4   1 -17   57.56   13.18
  -4  -1 -17   34.76   11.84
  -4   1 -16   95.94   13.85
  -4  -1 -16   73.45   12.68
  -4   1 -15  146.38    7.82
   4   1 -15  136.87   15.66
  -4  -1 -15  134.82   14.80
  -4   1 -15  149.79   15.58
  -4  -1 -14   23.63    9.76
  -4   1 -14   27.23    4.18
  -4   1 -14   39.39   11.10
   4  -1 -14   37.67    6.88
   4   1 -14   19.71    8.79
  -4  -1 -13   51.70   10.76
   4   1 -13   26.36    8.59
  -4   1 -13   38.95   10.64
   4  -1 -13   47.29    7.26
  -4   1 -13   43.98    4.74
  -4   1 -13   49.98    8.82
  -4   1 -12  174.41   12.93
  -4   1 -12  162.64    7.32
  -4  -1 -12  142.84   13.06
   4   1 -12  136.54   13.71
  -4   1 -12  153.53   13.78
  -4   1 -11   54.52    8.14
  -4   1 -11   55.58   10.23
  -4   1 -11   58.12    4.46
  -4  -1 -11   48.42    9.02
   4   1 -11   42.92    9.70
  -4   1 -10   98.97    5.05
  -4   1 -10   98.80    9.55
  -4  -1 -10  102.13   10.53
  -4   1 -10  107.53   11.46
   4   1 -10   86.45   11.14
  -4   1  -9  222.60    6.47
  -4  -1  -9  231.48   13.17
   4   1  -9  229.77   14.56
  -4   1  -9  252.16   14.54
   4   1  -8  409.05   18.09
  -4   1  -8  400.91   15.50
  -4  -1  -8  407.64   15.42
  -4   1  -8  381.98   16.23
  -4   1  -8  395.80    7.56
  -4   1  -7  727.93    8.77
  -4   1  -7  759.61   20.82
   4   1  -7  811.72   22.98
  -4   1  -7  785.39   20.35
  -4  -1  -7  768.32   19.38
  -4   1  -6   17.31    6.21
   4   1  -6    6.66    7.43
  -4  -1  -6   23.70    6.15
  -4  -1  -5   65.20    4.70
   4   1  -5   51.81    6.80
  -4   1  -5   65.51    7.11
  -4  -1  -5   68.48    6.08
   4   1  -4 1231.05   22.13
  -4  -1  -4 1233.53   15.24
  -4  -1  -4 1233.72   17.35
  -4  -1  -3 2493.70   18.36
  -4  -1  -3 2538.45   21.16
   4  -1  -1   46.90    4.63
   4  -1   0  255.26    8.82
   4  -1   1   45.96    5.19
   4  -1   2  163.13    8.26
   4  -1   3 2522.40   28.45
   4  -1   4 1237.44   20.80
   4   1   5   57.30    5.29
   4   1   5   67.83    4.15
   4   1   6   16.55    4.58
   4   1   6   16.71    2.95
   4   1   7  781.10   19.08
   4   1   8  381.75   14.66
   4   1   9  226.45   12.62
  -4   1  10   95.59    9.87
   4   1  10   95.68    9.52
  -4   1  11   69.24    9.60
  -4  -1  11   52.61    9.01
   4   1  11   60.31    8.61
   4   1  12  165.80   12.73
  -4   1  12  198.50   14.66
   4   2 -18  -17.17   13.09
  -4   2 -18    7.36   10.63
  -4   2 -17   75.76   14.49
   4   2 -17   61.57   14.50
  -4  -2 -17   76.64   12.53
  -4   2 -16  104.20   14.72
  -4  -2 -16   74.38   12.64
   4   2 -16   80.54   13.71
  -4  -2 -15  128.45   14.83
   4   2 -15  155.17   17.17
  -4   2 -15  181.78   17.79
  -4   2 -15  163.09    7.62
   4   2 -14  -17.03   12.56
  -4  -2 -14  -11.14    9.93
  -4   2 -14    2.32    2.86
  -4   2 -14   10.61   10.17
  -4   2 -13  455.59   22.91
  -4  -2 -13  452.89   22.27
  -4   2 -13  460.51   11.72
   4  -2 -13  510.69   19.34
   4   2 -13  472.88   24.74
  -4   2 -12  161.80   13.17
  -4  -2 -12  155.27   13.49
  -4   2 -12  175.01   15.31
   4  -2 -12  179.09   12.18
   4   2 -12  157.95   14.90
   4  -2 -11  248.18   13.26
  -4   2 -11  241.87   15.27
  -4  -2 -11  228.57   14.98
   4   2 -11  232.88   16.48
  -4   2 -11  256.36   16.77
  -4   2 -10  114.29   10.78
  -4  -2 -10  113.27   10.73
   4  -2 -10  123.27    9.47
   4   2 -10  115.19   12.11
  -4   2 -10  128.62   12.70
   4  -2  -9  406.56   15.23
  -4   2  -9  424.46   18.35
   4   2  -9  440.39   19.43
  -4  -2  -9  437.89   16.95
  -4   2  -9  431.88   18.56
  -4   2  -8  573.82   20.41
   4  -2  -8  578.66   17.02
  -4  -2  -8  607.70   18.58
   4   2  -8  596.89   20.86
   4  -2  -7  479.12   14.77
   4   2  -7  461.59   17.68
  -4   2  -7  474.15   17.64
  -4  -2  -7  497.05   15.58
   4  -2  -6  161.60    8.68
  -4   2  -6  165.90   10.90
   4   2  -6  161.01   11.03
  -4  -2  -6  160.89    9.23
   4  -2  -5  479.49   13.32
  -4  -2  -5  469.36   12.24
   4   2  -5  458.34   14.98
   4   2  -4 1712.52   25.01
   4  -2  -4 1675.80   22.96
  -4  -2  -4 1692.81   18.87
   4  -2  -3 1361.03   19.78
  -4   2  -3 1434.92   13.11
   4   2  -3 1427.00   20.26
  -4  -2  -3 1394.80   14.17
   4  -2  -2  466.27   11.19
   4  -2  -2  486.61   13.67
  -4   2  -2  467.88    8.46
   4   2  -2  469.66   10.50
   4  -2  -1 3138.93   33.02
   4   2  -1 3094.28   21.67
   4  -2  -1 3114.94   26.41
   4  -2   0 1482.07   23.21
   4  -2   0 1489.07   17.23
   4  -2   1 3122.03   33.67
  -4  -2   1 3132.10   19.99
  -4  -2   2  433.64    9.68
   4  -2   2  451.05   13.70
   4   2   3 1393.50   13.84
   4  -2   3 1409.29   24.31
   4  -2   4 1656.16   27.28
   4   2   4 1700.07   18.65
   4  -2   5  472.80   15.75
   4   2   5  462.62   11.62
   4   2   6  155.81    7.53
   4   2   6  161.65    8.49
   4   2   7  467.28   14.46
   4   2   7  487.92   12.72
  -4   2   7  470.85   17.28
   4   2   8  592.64   14.31
   4   2   8  590.82   17.40
  -4   2   8  608.72   20.44
   4   2   9  432.59   16.50
  -4   2   9  449.98   18.68
  -4   2  10  119.96   11.38
  -4  -2  10  125.22   11.64
   4   2  10  122.52   10.36
  -4  -2  11  265.41   16.11
   4   2  11  234.63   14.02
  -4   2  11  253.55   15.76
  -4   2  12  197.37   14.68
   4   2  12  168.43   12.70
   4   2  13  493.50   20.74
  -4   3 -18  125.29   16.58
   4   3 -18  104.11   16.72
   4   3 -17   -0.47   10.65
  -4   3 -17   27.80   12.62
  -4   3 -16  131.86   16.68
   4   3 -16  110.83   16.75
  -4   3 -15   42.41   11.28
   4   3 -15   22.55   10.16
   4   3 -14  319.59   22.02
  -4   3 -14  360.67   22.37
  -4   3 -13  281.74   19.30
   4   3 -13  242.37   18.94
  -4  -3 -12  132.97   12.76
  -4   3 -12  136.74   14.89
   4   3 -12  137.30   14.06
   4  -3 -12  158.04   11.55
  -4   3 -11   12.87    9.36
   4   3 -11   -0.03    9.08
  -4   3 -11    6.85    5.84
  -4  -3 -11   -7.66    8.18
   4  -3 -11    7.30    5.21
   4   3 -10  768.84   26.30
  -4   3 -10  743.83   25.83
  -4  -3 -10  765.11   23.78
  -4   3 -10  756.94   26.30
   4  -3 -10  763.77   22.56
   4  -3  -9  165.62   10.81
  -4   3  -9  160.50   12.67
  -4  -3  -9  156.66   10.94
  -4   3  -9  164.27   13.54
   4   3  -9  159.48   12.81
   4  -3  -8   46.45    6.20
   4   3  -8   48.09    8.61
  -4  -3  -8   35.98    6.07
  -4   3  -8   54.47    8.82
   4   3  -7   39.49    8.03
   4  -3  -7   30.35    5.48
  -4   3  -7   19.51    7.47
   4   3  -6 1575.40   28.68
   4  -3  -6 1564.27   26.97
  -4   3  -6 1604.20   31.06
   4  -3  -5 1344.40   23.91
   4   3  -5 1339.73   24.29
   4   3  -4  362.10   12.25
   4  -3  -4  343.94   11.95
  -4  -3  -4  325.38    6.22
   4  -3  -3  371.49   11.95
   4   3  -3  388.50   10.99
   4  -3  -3  379.41   13.68
   4   3  -2 1519.86   18.33
   4  -3  -2 1435.95   25.53
  -4   3  -2 1477.26   18.69
   4  -3  -2 1460.92   22.20
   4   3  -1  228.54    6.27
   4  -3  -1  221.52   10.53
   4  -3  -1  224.27    8.64
  -4   3  -1  222.32    8.01
   4   3   0  352.81    8.49
   4  -3   0  318.39   12.67
   4   3   0  321.74    5.23
   4  -3   1  204.37   10.33
   4   3   1  211.48    5.71
  -4  -3   2 1339.87   17.42
   4  -3   2 1427.41   26.39
   4   3   3  378.60    6.78
   4  -3   3  383.78   14.87
  -4  -3   3  380.66   10.89
   4  -3   4  358.73   14.88
  -4  -3   4  366.27   11.92
   4   3   4  370.32    8.54
   4  -3   5 1355.12   28.06
  -4  -3   5 1346.07   24.34
   4   3   5 1343.61   18.52
   4   3   6 1566.45   24.87
  -4  -3   6 1591.09   28.33
   4   3   6 1547.22   22.34
  -4   3   7   21.95    5.35
   4   3   7   38.99    5.66
   4   3   7   26.13    4.99
  -4   3   8   44.64    7.16
   4   3   8   45.15    5.73
  -4  -3   8   45.38    7.04
   4   3   8   44.27    6.02
   4   3   9  161.30    9.40
   4   3   9  162.49   10.60
  -4   3   9  152.53   12.34
  -4  -3   9  162.14   12.23
   4   3  10  751.66   22.33
  -4  -3  10  777.54   25.74
  -4   3  10  807.08   26.00
  -4  -3  11    0.91    6.31
  -4   3  11    7.88    6.50
   4   3  11   -1.03    5.65
   4   3  12  148.41   11.92
   4   3  13  258.33   15.31
  -4   4 -17   83.41   15.38
   4   4 -17   55.60   13.06
  -4   4 -16   65.37   14.10
   4   4 -16   36.79   12.78
   4   4 -15   51.85   12.28
  -4   4 -15   73.26   13.38
   4   4 -14    2.85   10.35
  -4   4 -14   28.74   11.30
  -4   4 -13  592.31   27.58
   4   4 -13  566.22   26.90
  -4   4 -12  267.74   18.62
   4   4 -12  272.39   19.09
  -4   4 -11    5.16    7.72
   4  -4 -11   -2.20    5.27
   4   4 -11    0.33    8.61
   4   4 -10   42.50    9.50
  -4   4 -10   37.06    8.47
   4  -4 -10   58.41    7.70
  -4   4 -10   51.32   10.82
   4   4  -9  307.98   16.98
  -4   4  -9  285.67   17.54
   4  -4  -9  324.38   15.26
  -4   4  -9  306.30   17.49
  -4   4  -8   99.79   11.51
   4   4  -8  115.98   10.89
   4  -4  -8  109.83    9.28
   4  -4  -7  159.08   10.44
   4   4  -7  155.84   11.32
  -4   4  -7  137.26   11.85
  -4  -4  -6   53.92    4.09
   4   4  -6   65.86    8.02
   4  -4  -6   65.72    7.14
   4  -4  -5  784.51   19.97
   4   4  -5  759.52   19.45
   4  -4  -5  746.72   21.74
  -4  -4  -5  729.57   11.75
   4  -4  -4    6.11    4.45
   4  -4  -4   14.39    6.07
  -4  -4  -4    6.62    2.01
   4   4  -4   12.37    5.30
   4   4  -4    8.26    4.92
   4  -4  -3  417.67   15.55
   4   4  -3  379.39   13.51
   4   4  -3  402.31   12.14
  -4  -4  -3  374.51    7.59
  -4  -4  -2  103.58    4.62
   4  -4  -2  128.66    9.71
   4   4  -2  112.62    6.46
   4   4  -2  112.93    7.63
  -4   4  -1  665.03   15.76
   4  -4  -1  698.53   19.88
   4   4  -1  697.92   15.68
   4   4  -1  686.94   11.54
  -4   4   0 1093.21   23.97
   4   4   0 1113.88   12.37
   4   4   0 1154.85   18.54
   4  -4   0 1115.78   25.19
   4  -4   1  675.45   19.94
   4   4   1  679.25   12.71
  -4   4   1  663.11   18.88
   4  -4   2  103.96    9.69
   4   4   2  110.01    4.84
  -4   4   2   89.10    8.03
   4   4   3  379.04    7.31
   4  -4   3  378.54   16.01
   4   4   4    8.72    3.11
   4  -4   4   11.91    6.26
   4  -4   5  722.65   22.52
   4   4   5  751.45   13.76
  -4  -4   5  747.04   18.68
   4  -4   6   57.87    8.82
   4   4   6   63.06    5.57
   4   4   6   45.72    6.02
  -4  -4   6   56.42    6.92
   4   4   7  151.39    9.66
   4   4   7  147.53    8.26
  -4  -4   8  108.05   10.14
  -4   4   8  111.59   11.19
   4   4   8  103.50    8.49
   4   4   8  123.09    8.52
   4   4   9  304.87   13.51
  -4  -4   9  308.66   16.30
  -4   4   9  279.08   15.55
   4   4   9  293.79   13.39
  -4   4  10   39.36    8.09
   4   4  10   47.32    6.94
  -4  -4  10   56.53    9.13
   4   4  10   33.97    6.35
  -4   4  11   10.68    6.70
   4   4  11    2.07    5.26
   4   4  12  286.27   15.19
   4   4  13  562.19   21.26
  -4   5 -17   87.09   15.04
   4   5 -17   66.04   14.55
  -4   5 -16   28.74   12.61
   4   5 -16  -10.53   11.99
  -4   5 -15  402.25   25.69
   4   5 -15  391.94   25.46
   4   5 -14   37.26   12.08
  -4   5 -14   50.63   13.19
  -4   5 -13  323.05   21.67
   4   5 -13  313.13   21.16
   4   5 -12   29.74   10.13
  -4   5 -12   30.85   11.35
   4   5 -11  543.72   24.33
  -4   5 -11  508.05   24.79
  -4   5 -10   20.25    8.60
   4   5 -10   30.81    9.71
   4   5  -9  459.44   20.37
  -4   5  -9  431.59   21.39
  -4   5  -9  461.14   22.37
   4   5  -9  458.59   20.26
  -4  -5  -8   -1.32    2.91
   4   5  -8    3.42    7.12
   4  -5  -8   -4.25    5.51
  -4   5  -8   -3.34    6.41
   4   5  -8    2.40    5.47
  -4   5  -8   -8.16    8.24
  -4   5  -7  848.77   26.34
  -4  -5  -7  842.92   16.21
   4  -5  -7  868.57   26.12
  -4   5  -7  863.62   28.53
   4   5  -7  838.56   23.68
   4   5  -7  840.49   25.61
  -4  -5  -6    0.82    2.34
   4   5  -6    7.41    5.64
   4  -5  -6    5.86    5.32
   4   5  -6    7.32    6.45
   4  -5  -5 1141.36   27.90
   4   5  -5 1073.44   23.68
   4   5  -5 1142.03   27.48
  -4  -5  -5 1131.63   16.26
   4   5  -4    5.12    4.77
   4  -5  -4    4.17    5.34
  -4  -5  -4   -0.59    2.44
   4   5  -4    3.62    5.07
   4  -5  -3 3011.43   43.89
   4   5  -3 2933.52   39.83
  -4  -5  -3 3023.33   26.26
  -4   5  -3 2964.86   46.46
   4   5  -3 3017.91   33.09
  -4   5  -2   44.72    7.40
   4  -5  -2   37.54    6.98
   4   5  -2   36.60    4.91
  -4  -5  -2   51.48    4.45
   4   5  -2   41.40    6.03
   4   5  -1  998.84   21.12
   4   5  -1  990.92   15.92
  -4   5  -1 1005.26   25.68
   4  -5  -1 1030.17   26.06
  -4   5  -1  988.03   21.23
  -4   5   0  857.86   23.49
   4   5   0  850.12   13.03
  -4   5   0  826.26   20.13
   4   5   0  850.91   18.06
   4  -5   0  847.60   23.71
   4  -5   1  987.17   25.76
  -4   5   1 1026.62   25.41
   4   5   1 1008.03   18.21
   4  -5   2   42.64    7.44
  -4   5   2   40.26    6.49
   4   5   2   40.75    4.07
   4  -5   3 2992.25   46.11
   4   5   4    0.99    2.54
   4  -5   4    4.54    6.60
   4   5   5 1090.58   16.99
   4  -5   5 1063.10   28.92
   4  -5   6    1.31    6.46
   4   5   6    6.26    3.73
   4   5   7  806.08   17.83
   4   5   7  844.55   22.71
   4   5   8    2.40    4.55
   4   5   8   -5.75    5.44
   4   5   9  431.60   17.05
   4   5   9  413.55   15.34
  -4   5   9  462.84   19.93
   4   5  10   11.88    5.39
   4   5  10   16.55    5.72
  -4   5  10    1.03    7.02
   4   5  11  511.88   19.41
  -4   5  11  507.76   21.38
   4   5  11  528.79   19.08
   4   5  12   28.00    7.12
   4   5  13  306.04   15.73
   4   6 -16   55.59   13.71
  -4   6 -16  100.88   16.37
   4   6 -15    9.19   11.03
  -4   6 -15   10.52   10.64
  -4   6 -14   60.96   13.85
   4   6 -14   44.23   11.91
  -4   6 -13   10.77    9.22
   4   6 -13    7.57    9.48
   4   6 -12  211.11   17.80
  -4  -6 -12  218.68   12.50
  -4   6 -12  232.43   18.83
   4   6 -11   47.03   11.15
  -4  -6 -11   28.99    5.47
   4  -6 -11   29.83    8.06
  -4   6 -11   34.04   10.91
   4  -6 -10  171.55   14.47
   4   6 -10  212.86   16.09
  -4   6 -10  188.49   16.27
  -4  -6 -10  182.40   10.11
   4   6  -9  106.32   12.21
   4  -6  -9   93.00   10.96
  -4   6  -9   84.82   12.26
  -4  -6  -9   94.26    7.11
  -4  -6  -8  186.38    8.80
   4  -6  -8  184.49   13.65
  -4   6  -8  169.07   14.69
   4   6  -8  178.42   13.70
   4   6  -8  180.50   13.57
   4  -6  -7  101.30   10.57
  -4   6  -7   82.31   10.91
  -4   6  -7  102.70   11.24
   4   6  -7   91.37   10.10
   4   6  -7   93.86   10.28
  -4  -6  -7   96.94    6.25
   4   6  -6  254.99   14.88
   4  -6  -6  221.93   14.06
   4   6  -6  230.14   13.03
  -4   6  -6  239.32   16.07
  -4  -6  -6  239.50    8.87
   4   6  -5  111.25   10.39
   4  -6  -5  102.07    9.89
   4   6  -5  110.71    9.31
  -4   6  -5   99.94   11.08
  -4  -6  -5   97.26    5.88
   4  -6  -4  171.00   12.30
   4   6  -4  171.72   11.88
  -4  -6  -4  172.13    7.64
  -4   6  -4  192.94   13.85
   4   6  -4  173.02   10.18
   4   6  -3   55.15    6.41
   4  -6  -3   48.97    7.92
  -4  -6  -3   46.24    4.74
   4   6  -3   50.60    7.28
  -4   6  -3   55.60    8.49
   4   6  -2  113.61    7.36
   4  -6  -2  121.05   10.57
  -4  -6  -2  127.77    7.26
  -4   6  -2  124.04   11.03
   4   6  -2  125.26    9.44
   4   6  -1   17.17    3.86
  -4   6  -1   12.43    5.59
   4   6  -1   21.55    5.03
   4  -6  -1   20.23    6.40
   4  -6   0  100.90    9.89
   4   6   0   92.82    7.57
  -4   6   0   88.53    9.17
   4   6   0   95.13    5.47
   4   6   1   17.47    3.96
  -4   6   1   12.20    5.38
   4  -6   1   16.25    6.38
  -4   6   1   20.98    5.49
  -4   6   2  119.22   10.01
   4   6   2  110.95    6.96
   4  -6   2  123.29   11.20
   4  -6   3   53.81    8.64
   4   6   3   50.92    4.76
   4  -6   4  172.73   13.43
   4   6   4  172.12    7.03
   4   6   5  107.10    6.28
  -4   6   5   84.19    9.17
   4  -6   5  112.79   11.45
   4   6   6  217.73    9.36
  -4   6   6  234.39   13.76
   4  -6   6  241.67   15.89
   4   6   7   99.94    9.70
   4   6   7  101.92    7.34
   4   6   8  171.19   12.26
   4   6   8  173.52    9.71
   4   6   9   78.80    9.50
  -4   6   9   75.41    9.34
   4   6   9   92.20    8.13
   4   6  10  172.81   12.83
   4   6  10  186.58   11.23
  -4   6  10  184.43   13.63
   4   6  11   35.20    6.69
   4   6  11   47.18    8.33
   4   6  12  218.40   12.84
   4   6  12  237.59   14.74
   4   6  13    8.06    5.48
   4   7 -16   91.33   15.94
   4  -7 -16   71.21   11.60
   4   7 -15   61.09   14.02
   4  -7 -15   53.03   10.18
  -4   7 -15   89.31   15.73
  -4   7 -14   35.67   11.66
   4  -7 -14   15.24    8.43
   4   7 -14   15.74   10.10
   4   7 -13   67.40   13.03
  -4   7 -13   72.29   13.69
   4  -7 -13   70.37   11.18
  -4  -7 -12   83.74    7.73
  -4   7 -12   70.15   13.72
   4   7 -12   99.35   14.19
   4  -7 -12   75.49   11.20
   4  -7 -11  164.81   15.03
  -4  -7 -11  183.34   10.26
   4   7 -11  191.84   16.83
  -4   7 -11  176.49   17.57
  -4   7 -10  345.67   21.76
   4  -7 -10  367.02   20.43
   4   7 -10  349.81   19.91
  -4  -7 -10  318.65   12.78
  -4  -7  -9  317.29   12.25
   4   7  -9  306.18   17.98
   4  -7  -9  298.77   18.11
  -4   7  -9  281.15   19.19
   4   7  -8  335.68   17.86
   4  -7  -8  334.89   18.33
  -4  -7  -8  341.32   12.22
  -4   7  -8  333.22   20.15
   4  -7  -7  262.76   16.26
  -4   7  -7  238.81   16.93
  -4  -7  -7  261.24   10.33
   4   7  -7  259.01   15.23
   4   7  -7  279.08   16.86
   4  -7  -6  259.92   16.04
   4   7  -6  269.32   14.58
   4   7  -6  266.26   16.40
  -4  -7  -6  259.08   10.19
  -4   7  -5  172.65   14.17
  -4  -7  -5  179.20    8.57
   4   7  -5  187.21   13.53
   4   7  -5  176.10   11.77
   4  -7  -5  166.42   13.33
  -4  -7  -4  181.10    8.82
   4   7  -4  188.14   13.18
   4   7  -4  178.30   11.02
  -4   7  -4  170.94   13.95
   4  -7  -4  177.81   13.37
   4   7  -3  409.04   18.44
  -4  -7  -3  402.01   13.13
   4   7  -3  401.70   14.77
   4  -7  -3  389.01   18.97
  -4   7  -3  421.03   20.53
   4   7  -2  302.98   11.96
  -4  -7  -2  297.34   11.70
   4   7  -2  289.84   15.10
   4  -7  -2  283.24   16.37
  -4   7  -2  302.70   17.58
  -4   7  -1  525.99   18.99
   4  -7  -1  527.92   21.64
   4   7  -1  515.86   18.89
   4   7  -1  538.31   14.44
  -4   7  -1  535.63   22.22
  -4   7   0  544.46   19.62
  -4   7   0  588.81   22.89
   4  -7   0  559.02   22.70
   4   7   0  560.96   18.92
   4   7   0  550.35   13.74
  -4   7   1  519.65   21.55
  -4   7   1  533.63   19.56
   4  -7   1  538.10   22.70
   4   7   1  529.83   17.41
   4   7   2  277.27   12.15
   4  -7   2  296.17   17.13
  -4   7   2  297.07   16.33
  -4   7   2  289.13   14.85
  -4   7   3  422.08   18.13
   4  -7   3  390.94   19.90
   4   7   3  424.87   14.22
   4  -7   4  165.65   14.05
  -4   7   4  178.94   12.76
   4   7   5  169.14    8.07
   4  -7   5  181.86   14.77
  -4   7   5  196.87   13.33
   4   7   6  279.94   10.57
   4  -7   6  275.98   17.98
  -4   7   6  289.59   16.04
  -4   7   7  287.37   16.45
   4   7   7  249.25   10.60
   4   7   7  268.52   15.94
   4   7   8  325.76   12.67
   4   7   8  329.01   17.57
   4   7   9  303.72   12.67
   4   7   9  288.54   16.59
   4   7  10  336.60   17.80
   4   7  10  313.70   13.56
   4   7  11  161.06   13.70
   4   7  11  182.62   11.23
   4   7  12   90.30   10.87
   4   7  12   78.33    8.51
   4  -8 -15  101.39   12.67
   4   8 -15  152.43   17.53
  -4   8 -14   25.68   12.47
   4   8 -14    9.20   10.43
   4  -8 -14    2.31    6.52
   4  -8 -13   80.69   11.28
  -4   8 -13   78.11   13.84
   4   8 -13   87.60   13.86
  -4   8 -12    1.06   10.26
   4  -8 -12    5.38    6.28
   4   8 -12   28.09   10.38
  -4   8 -11  153.35   17.24
   4   8 -11  162.89   15.93
   4  -8 -11  176.50   15.35
   4   8 -10   32.77   10.12
  -4   8 -10   25.30   10.38
  -4  -8 -10   28.65    4.88
   4  -8 -10   33.53    8.67
   4  -8  -9  209.42   16.04
   4   8  -9  216.80   16.16
  -4   8  -9  212.74   18.09
  -4  -8  -9  215.04   10.03
   4  -8  -8   45.06    9.30
   4   8  -8   43.29    9.78
  -4  -8  -8   46.10    5.66
  -4   8  -8   37.36   10.43
  -4   8  -7  430.94   22.12
  -4  -8  -7  464.71   14.44
   4   8  -7  427.75   20.07
   4  -8  -7  448.52   21.92
   4  -8  -6    4.00    6.84
   4   8  -6   10.94    7.04
  -4  -8  -6    6.33    3.83
   4  -8  -5  434.29   21.25
  -4  -8  -5  439.30   14.33
   4   8  -5  429.29   20.70
   4   8  -5  437.62   18.01
  -4  -8  -4    8.61    4.56
   4   8  -4   13.39    6.22
   4   8  -4    1.66    5.69
   4  -8  -4   10.76    7.27
   4   8  -3  382.25   18.51
  -4  -8  -3  404.19   14.43
   4   8  -3  390.80   15.38
   4  -8  -3  386.98   19.78
  -4   8  -3  432.29   21.49
   4   8  -2   10.87    5.19
   4   8  -2   12.50    6.78
  -4   8  -2   10.30    6.52
   4  -8  -2   30.97    8.68
  -4   8  -1  191.49   14.45
  -4   8  -1  179.83   12.75
   4  -8  -1  165.34   14.03
   4   8  -1  185.91   12.75
   4   8  -1  182.39   10.02
   4   8   0  447.67   13.77
  -4   8   0  445.33   21.03
   4  -8   0  454.06   21.86
  -4   8   0  461.17   19.31
   4   8   0  474.56   18.75
   4  -8   1  185.69   15.40
  -4   8   1  193.47   13.59
  -4   8   1  200.25   14.66
   4   8   1  179.02   11.93
  -4   8   2    7.19    5.21
   4   8   2    8.60    5.49
   4  -8   2    7.70    8.04
  -4   8   2    4.27    5.93
   4  -8   3  371.33   20.71
   4   8   3  380.40   14.83
  -4   8   3  393.32   18.79
   4  -8   4    6.27    8.02
  -4   8   4   -0.88    6.71
  -4   8   5  439.19   20.21
   4   8   5  423.08   12.41
   4  -8   5  381.91   21.77
  -4   8   6    5.45    6.96
   4  -8   6   13.00    9.00
   4   8   6    8.67    6.60
   4   8   6    6.50    3.74
   4   8   7  454.10   13.86
  -4   8   7  401.69   20.14
   4   8   7  423.45   20.47
   4   8   8   39.77    5.68
   4   8   8   28.43    8.22
  -4   8   8   53.57   10.03
   4   8   9  212.60   10.66
   4   8   9  215.54   15.41
   4   8  10   23.45    8.17
   4   8  11  167.95   14.40
   4   8  12    8.99    6.63
   4   9 -14   34.18   11.43
  -4   9 -13   67.63   13.47
   4  -9 -13   80.77   11.52
   4   9 -13   75.34   13.45
  -4   9 -12   64.70   13.54
   4   9 -12   74.80   12.89
   4  -9 -12   73.80   11.10
   4  -9 -11   -1.26    6.62
   4   9 -11    7.91    8.85
  -4   9 -11   -0.14    9.48
  -4   9 -10  124.92   15.57
   4   9 -10  145.43   15.06
   4  -9 -10  139.14   13.88
   4  -9  -9   14.82    7.49
  -4   9  -9   17.05    9.95
   4   9  -9   20.10    9.28
  -4   9  -8  243.52   19.10
  -4  -9  -8  230.53   10.45
   4  -9  -8  225.23   16.97
   4   9  -8  244.27   16.89
  -4  -9  -7    2.33    3.50
  -4   9  -7   -0.61    9.15
   4  -9  -7    6.78    6.87
   4   9  -7    8.18    7.81
  -4  -9  -6  137.17    8.72
   4   9  -6  131.85   12.38
   4  -9  -6  143.96   13.88
   4   9  -5   30.60    7.72
  -4  -9  -5   35.46    5.67
   4  -9  -5   32.80    9.07
  -4  -9  -4  323.97   13.49
   4   9  -4  311.83   15.67
   4  -9  -4  320.04   19.24
   4   9  -4  330.11   18.14
   4   9  -3   75.37    8.68
   4   9  -3   79.50   10.12
   4  -9  -3   78.28   11.17
  -4   9  -2   48.08    8.54
   4   9  -2   71.85    9.25
   4   9  -2   54.55    7.25
   4  -9  -2   50.00    9.98
   4   9  -1   46.79    7.58
   4  -9  -1   40.39    9.18
  -4   9  -1   40.13    7.87
   4   9  -1   40.52    6.34
   4   9   0  405.65   18.02
   4   9   0  411.58   14.24
  -4   9   0  411.28   19.67
   4  -9   0  430.63   22.59
  -4   9   1   33.01    7.82
   4   9   1   38.46    6.54
  -4   9   1   41.68    7.98
   4  -9   1   45.64   10.23
  -4   9   2   56.68    9.47
   4  -9   2   51.32   10.72
  -4   9   2   50.97    8.74
   4   9   2   65.66    7.55
  -4   9   3   83.80   11.09
   4  -9   3   75.36   11.69
   4  -9   4  286.97   19.84
  -4   9   4  324.53   18.59
   4  -9   5   38.45   10.57
  -4   9   5   45.82    9.20
   4   9   5   24.68    3.91
   4   9   6  132.70   12.97
  -4   9   6  146.96   13.66
   4   9   6  122.85    7.38
  -4   9   7    6.76    7.16
   4   9   7   -3.07    6.97
   4   9   8  226.51   16.59
  -4   9   8  260.24   17.80
   4   9   9   17.34    7.87
   4   9  10  161.98   14.79
   4   9  11    0.20    6.83
   4   9  12   82.93   11.70
   4   9  13   65.08   10.43
   4  10 -13    1.89    8.86
   4  10 -12  129.84   15.11
  -4  10 -12   99.84   15.19
   4 -10 -11    7.15    6.75
   4  10 -11   -1.01    7.83
  -4  10 -11   -4.13    9.52
  -4  10 -10  265.45   20.67
   4  10 -10  246.41   17.73
   4 -10 -10  231.94   17.02
   4  10  -9   55.48   10.26
  -4  10  -9   39.05   10.64
   4 -10  -9   40.86    9.61
  -4  10  -8  157.58   16.41
   4  10  -8  152.65   14.04
   4 -10  -8  154.74   14.51
  -4  10  -7   13.37    8.62
   4 -10  -7   10.60    8.15
   4  10  -7   19.53    8.23
  -4 -10  -6  464.03   15.34
   4  10  -6  457.72   20.62
   4 -10  -6  404.75   22.33
  -4  10  -6  452.95   24.31
  -4 -10  -5   22.96    5.21
   4 -10  -5   21.23    8.14
   4  10  -5    6.07    6.14
   4 -10  -4  224.40   17.85
   4  10  -4  241.21   14.26
  -4  10  -3   17.59    7.47
   4  10  -3   14.65    6.01
   4 -10  -3   18.32    8.14
   4  10  -2  520.53   18.23
   4 -10  -2  530.15   26.16
  -4  10  -2  473.28   22.37
   4  10  -2  537.64   22.70
   4  10  -1   37.04    6.56
  -4  10  -1   44.58    8.73
   4  10  -1   28.87    7.32
   4 -10  -1   31.87    9.21
   4  10   0  605.48   22.51
  -4  10   0  597.06   25.11
   4  10   0  649.79   18.08
   4 -10   0  592.89   27.82
  -4  10   1   28.92    8.16
   4  10   1   36.15    6.82
   4 -10   1   44.37   10.80
   4  10   1   29.85    5.23
  -4  10   2  506.14   23.67
   4 -10   2  524.18   26.71
   4  10   2  527.24   19.75
  -4  10   3   13.74    8.16
   4 -10   3   20.05    9.10
  -4  10   4  260.39   18.20
   4 -10   4  252.35   19.85
  -4  10   5   23.94    8.26
   4 -10   5   19.37    9.50
   4  10   5   13.34    7.81
   4  10   6  462.48   24.16
  -4  10   6  443.98   23.33
   4  10   7    4.85    7.73
  -4  10   7   33.04    9.91
   4  10   8  169.54   15.71
  -4  10   8  194.61   16.66
   4  10   9   41.48    9.96
   4  10  10  261.00   18.87
   4  10  11    2.05    6.78
   4  11 -11   46.44   10.55
  -4  11 -10   -2.37    8.76
   4  11 -10   11.04    8.41
   4  11  -9   72.87   11.13
  -4  11  -9   62.41   12.59
   4  11  -8   31.04    8.80
   4 -11  -8   23.54    8.23
  -4  11  -8   11.15    8.76
  -4  11  -7   87.10   12.80
   4 -11  -7  124.81   13.24
   4  11  -7  125.94   12.73
  -4  11  -6   -3.53    8.66
   4 -11  -6   -3.33    7.67
   4  11  -6    7.29    7.05
  -4  11  -6   -5.28    7.19
   4  11  -5   85.29    9.96
  -4  11  -5   45.68    9.16
   4 -11  -5   94.08   12.67
  -4  11  -4    9.28    7.14
   4 -11  -4   13.56    7.72
   4  11  -4   26.07    7.17
  -4  11  -3  107.17   12.16
   4 -11  -3  113.17   13.66
  -4  11  -2   12.83    7.53
   4 -11  -2   14.65    9.06
  -4  11  -1  141.78   14.13
   4 -11  -1  122.12   14.39
  -4  11   0   43.31    9.76
   4 -11   0   46.26   10.45
  -4  11   1  118.06   13.47
   4 -11   1  119.58   14.76
  -4  11   2   10.29    7.22
   4 -11   2   12.15    8.16
   4 -11   3   99.99   13.76
  -4  11   3  107.54   12.94
   4  11   4   11.79    7.62
  -4  11   4   15.80    8.38
   4 -11   4   20.46    9.78
   4  11   5   69.88   11.96
  -4  11   5   74.03   11.43
   4  11   6    1.74    7.43
  -4  11   6    2.33    7.37
  -4  11   7  112.15   14.08
   4  11   7  118.36   13.99
  -4  12  -9   35.72   10.97
  -4  12  -8   59.45    9.39
  -4  12  -8   73.58   12.84
  -4  12  -7  137.78   15.30
  -4  12  -7  115.04   12.10
  -4  12  -6   81.57   11.20
  -4  12  -6   81.96   12.63
  -4  12  -5  139.77   14.08
   4 -12  -5  168.90   15.62
  -4  12  -5  139.23   14.56
  -4  12  -4  185.13   15.71
   4 -12  -4  159.46   15.36
  -4  12  -3  217.08   16.94
   4 -12  -3  225.12   17.93
   4 -12  -2  195.52   17.31
  -4  12  -2  199.76   16.81
  -4  12  -1   53.83   10.48
   4 -12  -1   74.85   12.53
   4 -12   0  294.31   21.58
  -4  12   0  268.46   19.25
  -4  12   1   78.10   12.21
   4 -12   1   79.73   13.27
   4 -12   2  196.79   18.25
  -4  12   2  199.08   17.29
  -4  12   3  230.61   18.70
   4 -12   3  251.49   20.62
   4 -13  -2  124.97   14.59
   4 -13  -1    4.91    7.78
   4 -13   0  109.05   13.98
   4 -13   1   -0.58    7.69
  -5   0 -19   93.10   14.89
  -5   0 -18  -21.32   11.23
  -5   0 -17  157.35   17.50
  -5   0 -16   -5.68    9.03
  -5   0 -15  196.97   17.20
  -5   0 -14    4.56    6.08
  -5   0 -14   13.78    9.42
  -5   0 -13    5.76    8.29
  -5   0 -13    7.92    5.65
  -5   0 -12    7.42    5.55
  -5   0 -12    4.45    7.82
  -5   0 -11 1111.28   29.59
  -5   0 -11 1086.97   28.10
  -5   0 -10    4.42    6.84
  -5   0  -9 2103.74   34.45
  -5   0  -9 2088.07   36.38
  -5   0  -8   10.39    6.96
  -5   0  -8   -0.01    4.08
  -5   0  -7  547.39   17.34
  -5   0  -7  516.15   15.45
  -5   0  -6   -1.03    3.98
  -5   0  -6    0.37    5.70
  -5   0  -5  794.86   17.57
  -5   0  -5  806.95   16.83
  -5   0  -4    0.01    3.15
   5   0   0    9.39    3.76
   5   0   1 1591.91   18.42
   5   0   2    1.03    4.18
   5   0   3 4317.09   32.65
   5   0   4    0.24    3.29
   5   0   5  758.15    7.86
  -5   0  11 1127.90   31.08
  -5   1 -19   36.19   15.48
  -5  -1 -19    3.07   10.54
  -5   1 -18   20.04   11.69
  -5  -1 -18   -2.10   10.10
  -5   1 -17   42.24   13.02
  -5  -1 -17   30.33   10.44
  -5  -1 -16   82.22   13.55
  -5   1 -16  116.89   15.73
  -5  -1 -15   31.37   10.60
  -5   1 -15   45.08   11.55
  -5   1 -14   48.78   11.49
   5  -1 -14   62.78    8.12
  -5  -1 -14   47.45    7.99
  -5  -1 -14   43.83   10.98
  -5  -1 -13  115.09   12.77
  -5  -1 -13  122.66   10.84
  -5   1 -13  105.13   11.13
  -5   1 -13  121.31   13.53
   5   1 -13   61.12   12.20
  -5   1 -12   31.43    3.48
  -5  -1 -12   30.07    6.44
  -5   1 -12   38.03    7.66
  -5  -1 -12   38.16    9.64
  -5   1 -12   43.51   10.44
   5   1 -12   20.50    8.67
  -5  -1 -11  219.98   14.37
  -5   1 -11  250.01   15.09
  -5   1 -11  205.12    6.67
   5   1 -11  182.48   14.96
  -5   1 -11  226.90   15.38
  -5   1 -10   15.73    5.95
  -5  -1 -10   15.36    4.92
  -5   1 -10   14.36    7.68
  -5  -1 -10   24.74    7.32
  -5   1 -10   15.11    2.30
  -5  -1  -9  208.99   10.89
  -5   1  -9  172.80    4.97
   5   1  -9  158.53   13.10
  -5  -1  -9  188.11   11.86
  -5   1  -9  202.33   13.58
  -5   1  -8  133.64    9.89
  -5  -1  -8  132.61   10.16
   5   1  -8  116.97   11.03
  -5  -1  -8  135.60    8.46
  -5   1  -8  134.65   11.08
  -5  -1  -7  412.67   14.63
  -5   1  -7  408.04   16.25
  -5   1  -7  422.17   15.36
  -5  -1  -7  423.43   12.80
   5   1  -7  427.39   17.21
  -5  -1  -6   12.06    3.71
  -5   1  -6   15.73    4.88
  -5  -1  -6   25.06    6.78
   5   1  -6    4.39    7.57
  -5   1  -6   12.41    6.06
  -5  -1  -5 1130.79   17.02
  -5  -1  -5 1133.71   19.03
  -5  -1  -4 1787.38   19.15
  -5  -1  -4 1803.82   21.27
  -5  -1  -3  433.37    8.39
  -5  -1  -2  498.62    8.12
   5  -1  -1  586.79   14.44
   5  -1   0  830.33   16.44
   5   1   1  592.03    9.16
   5  -1   1  586.80   14.73
   5   1   2  484.50    7.99
   5  -1   2  514.07   14.26
   5   1   3  437.30    8.20
   5  -1   3  417.27   12.81
   5  -1   4 1795.40   26.22
   5  -1   5 1133.19   21.71
   5   1   6   13.98    2.86
   5   1   7  430.28    9.84
   5   1   8  124.27    9.05
   5   1   9  189.49   11.37
  -5   1  10   21.78    7.49
   5   1  10   13.37    5.77
  -5   1  11  241.04   15.47
  -5  -1  11  222.13   14.72
   5   1  11  206.80   13.41
   5   1  12   29.17    7.41
  -5   2 -18   70.77   14.29
  -5  -2 -18   70.43   13.13
  -5   2 -17  100.90   16.66
  -5  -2 -17   97.60   14.02
  -5   2 -16  127.55   16.41
   5   2 -16   85.66   13.83
  -5  -2 -16   86.41   13.19
  -5   2 -15   20.04    2.99
  -5   2 -15   42.11   10.88
  -5  -2 -15   29.24    7.58
   5   2 -15    6.21    9.41
  -5  -2 -14  532.80   20.32
  -5   2 -14  455.47   10.60
  -5   2 -14  530.36   25.51
   5   2 -14  497.79   26.29
  -5  -2 -14  436.75   22.87
   5  -2 -13   18.31    6.03
  -5   2 -13   14.38    2.69
   5   2 -13   -7.50   10.17
  -5   2 -13   14.18    9.12
  -5  -2 -13   -4.74    9.06
   5  -2 -12  172.75   11.86
  -5   2 -12  171.30    6.10
  -5   2 -12  156.68   13.07
  -5  -2 -12  159.18   13.66
  -5   2 -12  175.97   14.86
   5   2 -12  180.57   15.67
  -5  -2 -11   50.18    8.98
   5  -2 -11   58.19    7.53
  -5   2 -11   47.09    9.54
  -5   2 -11   52.04    8.90
   5   2 -11   25.91    8.53
  -5   2 -11   48.25    3.31
  -5   2 -10  325.23   17.07
   5  -2 -10  317.12   14.55
  -5   2 -10  299.59    6.63
   5   2 -10  305.82   17.75
  -5  -2 -10  331.72   15.79
  -5   2 -10  329.77   17.67
  -5   2  -9  175.63   13.28
  -5   2  -9  157.46   12.03
   5  -2  -9  177.88   10.65
   5   2  -9  159.51   12.88
  -5  -2  -9  165.98   11.35
  -5   2  -8  519.81   19.69
   5   2  -8  497.27   19.46
  -5  -2  -8  531.66   16.97
  -5  -2  -7  268.89   11.63
  -5   2  -7  258.89   13.75
   5   2  -7  268.16   13.98
   5   2  -6  736.32   20.87
  -5   2  -6  743.28   21.14
  -5  -2  -6  740.72   13.38
  -5  -2  -6  714.78   16.27
  -5  -2  -5  445.11   11.80
  -5  -2  -5  449.67    9.01
   5   2  -5  396.40   14.51
  -5  -2  -4  300.68    6.13
   5   2  -4  323.36   12.03
  -5  -2  -4  326.50    8.61
  -5   2  -4  329.93    5.60
  -5   2  -3  178.14    4.77
  -5  -2  -3  169.34    5.34
   5   2  -3  169.03    8.10
   5  -2  -2  851.20   15.32
   5  -2  -2  890.31   19.49
  -5  -2  -2  835.64    8.18
   5  -2  -1  318.06    9.00
   5  -2  -1  333.98   11.99
   5  -2   0 3863.94   38.91
  -5  -2   0 3888.37   18.99
   5  -2   0 3806.36   28.33
   5  -2   1  306.80    7.76
   5  -2   1  298.68   11.76
  -5  -2   1  316.16    7.21
   5  -2   2  889.96   19.49
  -5  -2   2  814.96   13.58
   5  -2   3  161.83    9.68
  -5  -2   3  167.17    7.55
  -5  -2   4  330.30   11.37
   5  -2   4  328.57   13.12
   5   2   5  429.01   11.23
   5  -2   5  418.73   15.23
   5   2   6  746.78   15.02
   5   2   6  747.40   16.23
   5  -2   6  744.24   20.67
   5   2   7  263.36   10.99
   5   2   7  272.36    9.84
  -5   2   8  534.29   19.77
   5   2   8  541.49   13.49
   5   2   8  511.79   16.22
   5   2   9  163.43   10.34
  -5   2   9  187.29   13.04
   5   2  10  330.36   15.27
  -5   2  10  323.08   17.05
  -5  -2  10  365.11   17.99
   5   2  11   39.87    7.31
  -5  -2  11   52.62    9.23
  -5   2  11   53.39    9.35
   5   2  12  173.36   12.71
   5   2  13    9.57    6.27
  -5   3 -18   36.42   13.69
   5   3 -18    2.49   11.22
  -5   3 -17  136.69   17.14
   5   3 -17  100.63   15.52
  -5   3 -16   30.45   12.05
   5   3 -16   13.03   11.40
  -5   3 -15  154.93   16.85
   5   3 -15  125.05   16.13
  -5   3 -14   60.69    4.07
  -5  -3 -14   36.87    9.13
  -5   3 -14   73.54   13.25
   5   3 -14   48.51   11.20
   5   3 -13  424.24   23.78
  -5   3 -13  423.88   22.86
  -5  -3 -13  394.92   20.78
   5  -3 -12  189.05   12.72
  -5  -3 -12  133.70   12.52
   5   3 -12  169.80   15.84
  -5   3 -12  173.79   15.75
   5  -3 -11  542.33   19.82
  -5   3 -11  500.60   22.21
  -5  -3 -11  458.02   19.70
   5   3 -11  487.01   23.00
  -5   3 -11  468.40   22.08
   5   3 -10  106.99   12.54
  -5   3 -10  114.44   12.71
  -5   3 -10  121.87   11.98
  -5  -3 -10  111.18   10.64
   5  -3 -10  121.45   10.16
  -5  -3  -9  412.25   16.65
  -5   3  -9  397.41   19.08
  -5   3  -9  378.06   18.65
   5  -3  -9  424.45   16.75
   5   3  -9  435.91   20.07
   5  -3  -8    6.47    4.55
  -5   3  -8    0.79    7.05
   5   3  -8    7.21    7.26
  -5  -3  -8   -0.77    5.97
  -5  -3  -7  537.93   15.84
   5  -3  -7  552.98   17.21
  -5   3  -7  542.72   20.09
   5   3  -7  538.46   18.92
   5  -3  -6  330.34   12.94
  -5  -3  -6  305.18   10.99
   5   3  -6  325.44   14.15
   5   3  -5 1295.68   24.64
   5  -3  -5 1266.76   23.63
  -5  -3  -5 1331.44   19.61
   5  -3  -4 1314.23   23.18
   5   3  -4 1352.28   23.07
  -5   3  -3  347.76    8.84
   5  -3  -3  354.77   13.98
   5  -3  -3  340.37   11.52
   5   3  -3  360.45   11.04
   5  -3  -2   47.90    4.92
   5  -3  -2   49.30    6.41
   5   3  -2   57.15    4.74
  -5   3  -2   45.13    4.03
   5  -3  -1  586.27   17.18
   5  -3  -1  562.70   13.74
  -5   3  -1  603.23   12.69
   5   3  -1  600.58   10.10
   5  -3   0  160.85    7.21
   5  -3   0  160.78    9.68
   5   3   1  597.12    8.86
   5  -3   1  580.85   17.42
  -5  -3   1  574.23    9.38
  -5  -3   2   50.20    4.29
   5  -3   2   60.21    7.21
   5  -3   3  342.16   14.27
  -5  -3   3  333.38   10.53
   5  -3   4 1358.57   28.26
   5   3   4 1339.18   15.09
  -5  -3   4 1341.78   22.65
  -5  -3   5 1265.41   23.69
   5  -3   5 1235.61   27.72
   5   3   5 1236.77   17.29
  -5  -3   6  328.81   13.61
   5  -3   6  327.66   15.12
   5   3   6  316.28   10.27
   5   3   7  537.88   14.67
   5   3   7  552.74   15.23
   5   3   8    7.11    4.04
  -5  -3   8   12.59    5.60
  -5   3   8    2.36    5.92
   5   3   8    9.24    4.46
  -5  -3   9  407.96   18.18
   5   3   9  381.69   13.50
  -5   3   9  401.74   18.55
   5   3   9  389.80   15.16
  -5  -3  10  107.06   11.03
  -5   3  10  112.57   11.15
   5   3  10  118.30    9.59
  -5  -3  11  494.84   21.33
   5   3  11  483.79   18.74
  -5   3  11  498.36   21.42
   5   3  12  156.06   11.93
   5   3  13  439.10   19.23
   5   4 -17   32.89   12.26
  -5   4 -17   66.75   14.11
  -5   4 -16  101.79   16.10
   5   4 -16   44.62   12.81
  -5   4 -15   85.66   14.43
   5   4 -15   62.66   12.58
   5   4 -14  158.28   17.99
  -5   4 -14  172.67   17.66
   5   4 -13    4.87   10.35
  -5   4 -13   12.42    9.59
   5   4 -12  404.72   22.22
  -5   4 -12  435.96   23.08
   5   4 -11  320.39   19.52
  -5   4 -11  331.67   19.96
   5   4 -10   84.41   11.27
  -5   4 -10   93.30   12.39
  -5   4 -10  110.89   11.93
   5  -4 -10   95.79    9.43
  -5   4  -9  219.22   15.33
  -5   4  -9  270.01   16.83
   5   4  -9  257.42   15.54
   5  -4  -9  221.57   13.30
   5  -4  -8  275.33   14.03
  -5   4  -8  297.65   16.98
   5   4  -8  269.45   14.98
   5  -4  -7   13.11    5.24
   5   4  -7   10.97    6.64
  -5   4  -7   -0.36    7.50
   5   4  -6  263.77   12.84
   5  -4  -6  258.20   12.65
  -5  -4  -6  246.36    6.97
   5   4  -5  356.13   13.48
   5  -4  -5  339.76   15.61
  -5  -4  -5  299.37    6.00
   5  -4  -5  346.85   13.69
   5   4  -4 1050.00   20.43
   5  -4  -4 1037.34   22.62
   5  -4  -4 1040.59   25.69
  -5   4  -3   12.73    3.53
   5  -4  -3   14.80    4.33
   5   4  -3   19.42    4.96
   5  -4  -3   17.72    6.11
   5  -4  -2  398.55   15.84
   5   4  -2  384.24   12.58
   5   4  -2  408.98   10.58
  -5   4  -2  405.06   11.97
   5   4  -1  450.50    9.07
   5   4  -1  425.38   12.34
  -5   4  -1  426.81   12.49
   5  -4  -1  449.36   16.74
   5   4   0  416.01   11.09
  -5   4   0  431.72   13.17
   5  -4   0  412.73   16.45
   5   4   0  418.34    6.81
  -5   4   1  418.66   15.74
   5  -4   1  439.34   16.68
   5   4   1  426.76    9.73
   5   4   2  381.03    7.66
   5  -4   2  351.91   15.87
  -5   4   2  394.30   15.21
   5  -4   3   14.25    6.32
   5  -4   4 1042.22   26.79
  -5  -4   4 1030.54   20.06
   5   4   4 1015.83   12.28
  -5  -4   5  337.91   12.95
   5  -4   5  318.26   15.91
   5   4   5  337.66    8.84
   5   4   6  258.14    9.00
  -5  -4   6  256.74   12.37
   5  -4   6  270.38   15.17
   5   4   7    5.38    4.38
   5   4   7    8.74    3.90
  -5  -4   8  289.19   15.06
   5   4   8  271.28   11.57
   5   4   8  288.76   12.81
   5   4   9  239.73   11.93
   5   4   9  239.49   11.75
  -5   4   9  235.96   15.04
  -5  -4   9  249.73   15.07
   5   4  10  107.19    8.65
  -5  -4  10   99.17   10.70
   5   4  10  110.14    9.23
  -5   4  10   99.38   10.58
   5   4  11  320.48   15.04
  -5   4  11  305.14   17.50
   5   4  12  431.71   17.93
   5   4  13    2.86    6.08
   5   5 -17    8.87   10.51
  -5   5 -16  151.88   18.28
   5   5 -16  118.49   17.24
   5   5 -15   -6.57   10.82
  -5   5 -15   15.39   12.11
  -5   5 -14  546.22   28.37
   5   5 -14  535.05   28.39
   5   5 -13   58.74   12.29
  -5   5 -13   92.88   14.64
   5   5 -12  346.04   21.44
  -5   5 -12  337.73   21.70
  -5   5 -11   21.90   10.55
   5   5 -11   14.95    9.43
  -5   5 -10  273.65   18.35
   5   5 -10  276.30   17.29
   5   5  -9   36.16    8.90
  -5   5  -9   23.43    9.51
   5  -5  -9   43.22    7.22
   5   5  -8  510.29   20.03
  -5  -5  -8  495.80   12.44
   5  -5  -8  509.62   21.74
  -5   5  -8  519.80   23.06
  -5   5  -8  505.23   22.23
   5   5  -8  519.58   20.99
   5  -5  -8  514.36   19.47
   5   5  -7   18.13    6.80
  -5  -5  -7   15.47    2.69
   5   5  -7   20.37    6.35
   5  -5  -7   18.90    6.60
   5  -5  -7    6.88    4.95
  -5   5  -7    9.41    5.21
   5   5  -6 1513.13   29.47
   5   5  -6 1514.23   32.87
   5  -5  -6 1577.26   35.10
  -5  -5  -6 1528.40   16.83
   5   5  -5    2.82    5.12
   5  -5  -5    8.94    5.95
  -5  -5  -5    0.33    1.47
   5   5  -5    6.58    5.50
   5  -5  -4  865.59   24.79
   5   5  -4  815.65   18.91
   5   5  -4  836.68   22.29
  -5  -5  -4  797.09   10.98
   5  -5  -3   78.90    8.97
   5   5  -3   92.38    8.16
   5   5  -3  132.82    8.32
   5   5  -2 3531.92   40.97
   5   5  -2 3349.62   31.06
  -5   5  -2 3509.37   49.86
   5  -5  -2 3555.82   48.77
  -5   5  -2 3529.06   38.41
  -5   5  -1   48.16    7.30
  -5   5  -1   43.18    5.93
   5   5  -1   56.06    4.41
   5   5  -1   57.60    5.91
   5  -5  -1   47.40    8.02
   5  -5   0 1072.88   27.57
   5   5   0 1051.10   19.85
   5   5   0 1055.98   12.84
  -5   5   0 1042.22   26.59
   5   5   1   43.66    2.50
  -5   5   1   53.24    7.44
   5  -5   1   46.76    8.34
   5   5   1   52.21    4.65
   5   5   2 3521.62   29.42
   5  -5   2 3571.26   50.96
  -5   5   2 3525.65   47.94
   5   5   3   75.35    3.05
   5  -5   3   74.62    9.28
   5   5   4  814.62   11.14
   5  -5   4  796.25   25.29
   5  -5   5   -2.92    7.08
   5   5   5    3.09    2.60
   5  -5   6 1564.06   36.13
   5   5   6 1525.55   20.77
   5   5   7   10.26    5.19
   5  -5   7   18.15    7.81
   5   5   7   12.80    4.13
   5   5   8  521.94   18.26
   5   5   8  508.02   15.20
   5   5   9   25.35    6.11
  -5   5   9   27.29    6.64
   5   5   9   44.32    6.30
   5   5  10  253.41   13.60
  -5   5  10  253.81   15.88
   5   5  10  267.14   12.94
   5   5  11   24.76    6.92
   5   5  11   19.66    5.92
   5   5  12  322.51   15.37
   5   5  13   77.19    9.23
   5   6 -16   12.98   11.09
  -5   6 -16   44.78   12.73
  -5   6 -15   89.53   15.71
   5   6 -15   64.15   13.23
   5   6 -14   -3.13   10.36
  -5   6 -14    7.83    9.59
   5   6 -13   70.39   13.25
  -5   6 -13   72.79   13.46
   5   6 -12    7.44    8.96
  -5  -6 -12   10.63    4.14
  -5   6 -12    4.86    9.48
  -5  -6 -11  174.07    9.71
   5  -6 -11  194.12   15.96
  -5   6 -11  197.77   17.80
   5   6 -11  193.32   16.41
   5  -6 -10   26.36    8.14
  -5  -6 -10   45.63    5.30
   5   6 -10   43.46   10.19
  -5   6 -10   44.29   10.66
   5   6  -9  137.01   12.89
  -5   6  -9  126.33   14.07
   5  -6  -9  122.22   12.49
  -5  -6  -9  136.71    7.49
  -5  -6  -8    2.45    2.47
   5   6  -8   12.07    6.45
  -5   6  -8    1.34    7.71
   5   6  -8   15.35    7.48
   5  -6  -8   10.27    5.79
   5  -6  -7  249.29   15.60
   5   6  -7  278.33   15.93
  -5   6  -7  295.80   18.38
   5   6  -7  272.52   15.03
  -5  -6  -7  259.11    8.20
   5   6  -6   20.50    6.69
  -5  -6  -6   10.40    2.42
   5   6  -6   11.53    5.62
  -5   6  -6   12.68    6.35
   5  -6  -6   10.08    5.88
   5   6  -5  184.20   10.90
   5   6  -5  168.53   12.19
   5  -6  -5  187.34   13.14
  -5  -6  -5  170.81    6.22
  -5   6  -5  175.94   13.81
   5  -6  -4  391.98   18.06
  -5  -6  -4  365.72    9.18
   5   6  -4  377.96   16.81
   5   6  -4  389.37   14.06
  -5   6  -4  401.32   20.08
   5   6  -3  157.97   10.97
  -5   6  -3  133.07   12.17
   5   6  -3  149.00    8.73
   5  -6  -3  152.55   11.92
   5   6  -2   16.30    4.40
  -5   6  -2   15.92    5.96
   5   6  -2   10.67    4.48
   5  -6  -2   14.78    6.42
  -5   6  -1  256.36   15.06
   5  -6  -1  258.52   15.27
   5   6  -1  257.12   12.19
   5   6  -1  276.71    8.96
   5   6   0  371.76    9.06
   5  -6   0  366.39   17.61
   5   6   0  375.38   13.63
  -5   6   0  377.16   17.67
  -5   6   1  296.64   15.72
   5  -6   1  268.46   15.66
  -5   6   1  269.30   13.35
   5   6   1  261.87   10.51
   5   6   1  258.26    6.82
   5   6   2   12.80    3.22
  -5   6   2   15.44    5.29
  -5   6   2   25.17    6.24
   5  -6   2   13.87    6.46
   5  -6   3  134.45   12.36
   5   6   3  130.77    4.67
   5  -6   4  373.99   19.05
   5   6   4  374.21    8.31
   5   6   5  181.60    6.73
  -5   6   5  185.43   12.30
   5  -6   5  189.19   14.65
   5  -6   6   15.11    8.05
   5   6   6   19.36    3.74
   5  -6   7  270.05   17.59
   5   6   7  250.57   14.13
   5   6   7  283.64   10.39
   5   6   8    7.82    5.86
   5   6   8   10.33    4.43
   5   6   9  131.49   11.23
   5   6   9  154.38    9.52
  -5   6  10   24.26    7.27
   5   6  10   36.75    7.66
   5   6  10   41.60    6.48
   5   6  11  175.38   11.00
   5   6  11  180.85   12.94
   5   6  12    0.72    5.27
   5   6  12   15.93    6.80
   5   6  13   53.73    7.95
   5  -7 -17   31.79    8.65
   5   7 -16   39.06   13.40
   5  -7 -16   35.17    9.24
  -5   7 -15   89.94   15.40
   5   7 -15   65.01   13.74
   5  -7 -15   57.18   11.02
   5  -7 -14   14.24    7.56
  -5   7 -14   20.54   11.28
   5   7 -14   11.97   10.27
   5  -7 -13    5.15    7.20
  -5   7 -13   12.73   11.02
   5   7 -13   -2.57   10.11
   5  -7 -12  192.79   17.14
  -5  -7 -12  182.78    9.67
  -5   7 -12  216.64   19.51
   5   7 -12  212.74   18.15
  -5  -7 -11  316.25   11.88
   5   7 -11  298.17   19.82
  -5   7 -11  310.56   21.67
   5  -7 -11  278.49   19.68
   5  -7 -10   79.90   11.42
   5   7 -10   79.17   11.80
  -5  -7 -10   83.64    6.35
  -5   7 -10   81.83   13.15
   5   7  -9  340.72   19.13
   5  -7  -9  319.99   19.43
  -5  -7  -9  333.46   10.96
  -5   7  -9  326.89   20.97
   5  -7  -8  490.45   22.64
   5   7  -8  492.50   20.81
  -5  -7  -8  476.68   12.21
  -5   7  -8  515.43   24.34
   5  -7  -7  292.38   17.55
   5   7  -7  279.95   15.61
   5   7  -7  302.68   17.47
  -5  -7  -7  245.25    8.69
   5  -7  -6  203.52   14.67
   5   7  -6  201.12   12.84
  -5  -7  -6  198.99    7.68
   5   7  -6  209.95   14.49
   5   7  -5  175.82   13.18
   5   7  -5  177.74   11.42
  -5   7  -5  150.46   13.40
  -5  -7  -5  170.64    7.16
   5  -7  -5  150.76   12.97
   5  -7  -4  360.02   18.88
   5   7  -4  375.17   17.99
  -5  -7  -4  346.88   10.35
   5   7  -4  320.37   13.75
  -5   7  -4  338.24   19.17
   5   7  -3  332.80   13.10
   5  -7  -3  339.31   18.13
  -5   7  -3  342.63   18.94
  -5   7  -3  300.11   14.10
   5   7  -3  309.43   16.21
  -5   7  -2  514.17   18.48
   5   7  -2  492.85   18.93
   5  -7  -2  523.24   22.19
   5   7  -2  508.38   14.65
  -5   7  -2  538.64   23.00
   5   7  -1  204.28    8.75
  -5   7  -1  201.25   14.44
  -5   7  -1  204.22   12.28
   5  -7  -1  229.69   15.21
   5   7  -1  206.07   12.05
  -5   7   0  644.21   24.43
   5   7   0  622.40   13.07
   5  -7   0  639.15   24.43
  -5   7   0  611.25   20.69
   5   7   0  604.58   19.15
   5   7   1  191.36    7.02
  -5   7   1  213.08   13.13
   5  -7   1  199.33   14.65
  -5   7   1  202.96   14.39
   5   7   1  210.04   11.01
   5  -7   2  515.04   22.95
  -5   7   2  515.75   19.68
   5   7   2  538.51   15.89
  -5   7   2  530.78   21.96
  -5   7   3  354.71   16.83
   5  -7   3  332.94   18.95
   5   7   3  337.17   12.06
   5  -7   4  345.48   19.29
   5   7   4  351.03    8.90
  -5   7   4  345.09   16.99
   5   7   5  161.86    6.72
  -5   7   5  173.23   12.81
   5  -7   5  167.12   14.85
   5   7   6  209.56    8.13
   5  -7   6  211.18   16.57
  -5   7   6  204.28   13.93
   5   7   7  268.06   15.94
   5   7   7  258.67    9.90
   5  -7   7  265.15   18.57
   5   7   8  487.42   14.26
   5   7   8  492.00   21.07
   5   7   9  325.15   17.73
   5   7   9  336.88   12.97
   5   7  10   70.52    9.85
   5   7  10   77.23    7.42
   5   7  11  318.90   13.91
   5   7  11  321.09   17.79
   5   7  12  193.17   14.80
   5  -8 -15  -13.81    7.86
   5   8 -15    1.22   10.21
   5   8 -14  120.56   15.72
  -5   8 -14  118.27   16.40
   5  -8 -14  115.86   13.59
   5  -8 -13   15.43    8.49
   5   8 -13   19.30   10.07
  -5   8 -13   24.46   12.11
   5   8 -12   88.98   13.49
   5  -8 -12   64.97   10.76
  -5   8 -12   71.27   14.48
   5  -8 -11   12.89    7.11
   5   8 -11   13.88    9.09
  -5   8 -11    7.77   10.06
   5  -8 -10  234.25   17.84
  -5   8 -10  253.56   19.83
  -5  -8 -10  239.46    9.06
   5   8 -10  229.91   17.49
   5   8  -9  103.21   12.66
   5  -8  -9   91.89   11.92
  -5  -8  -9   91.76    5.85
  -5   8  -9   87.80   13.35
   5  -8  -8  277.79   18.29
  -5  -8  -8  279.51    9.60
  -5   8  -8  275.15   19.55
   5   8  -8  298.72   17.51
   5  -8  -7   91.08   11.62
  -5  -8  -7   80.20    5.62
   5   8  -7   83.73   10.57
  -5  -8  -6  363.07   11.20
   5   8  -6  367.63   17.55
   5  -8  -6  381.36   20.75
  -5  -8  -5    4.66    3.42
   5   8  -5   -0.86    6.12
   5  -8  -5    0.91    6.57
   5   8  -5    4.98    6.68
   5   8  -4  242.28   15.39
   5   8  -4  234.61   12.75
   5  -8  -4  245.03   16.94
   5   8  -3   33.14    6.42
  -5   8  -3   22.07    6.39
   5   8  -3   25.95    6.72
   5  -8  -3   29.54    8.50
  -5   8  -2  861.30   29.55
   5   8  -2  822.78   19.39
   5  -8  -2  838.26   29.25
   5   8  -2  860.37   26.13
  -5   8  -2  814.19   24.62
   5   8  -1   89.68    7.02
  -5   8  -1  101.47   11.12
   5  -8  -1   82.69   11.38
   5   8  -1   86.33    9.07
  -5   8  -1   90.69    9.56
  -5   8   0   26.39    7.27
   5   8   0   15.77    6.03
  -5   8   0   17.70    6.74
   5  -8   0    7.16    8.06
   5   8   0   24.38    4.39
   5  -8   1   88.78   12.31
   5   8   1   89.35    8.71
  -5   8   1   85.42   10.02
  -5   8   1   74.87    9.99
   5   8   1   90.61    5.89
  -5   8   2  822.82   26.18
  -5   8   2  879.53   28.76
   5  -8   2  808.78   29.79
   5   8   2  842.34   21.84
   5   8   3   23.27    4.61
  -5   8   3   31.46    7.81
   5  -8   3   34.79   10.04
  -5   8   4  241.51   15.24
   5  -8   4  229.73   17.76
   5   8   4  235.36    7.93
  -5   8   5    2.60    6.55
   5  -8   5    1.92    7.42
   5   8   5    4.04    2.76
   5  -8   6  351.49   21.24
  -5   8   6  364.88   18.99
   5   8   6  362.96   10.38
  -5   8   7   80.85   10.85
   5   8   7   93.75    6.19
   5   8   7   80.12   10.56
   5   8   8  285.90   17.48
   5   8   8  290.84   10.70
   5   8   9   90.18   11.07
   5   8  10  251.06   16.83
   5   8  11   11.53    6.75
   5   8  12   88.88   11.36
   5   8  13   21.08    7.70
   5   9 -14   36.40   11.91
  -5   9 -13   42.55   13.10
   5  -9 -13   42.93    9.55
   5   9 -13   38.06   11.03
   5  -9 -12   52.02   10.23
   5   9 -12   55.52   11.78
  -5   9 -12   56.51   12.76
   5   9 -11   87.65   12.66
   5  -9 -11   85.67   11.64
  -5   9 -11  103.20   15.10
   5   9 -10   12.59    9.25
   5  -9 -10   -6.43    7.90
  -5   9 -10    2.50    9.45
  -5   9  -9  194.27   18.32
   5   9  -9  191.97   15.47
   5  -9  -9  203.06   16.88
   5  -9  -8   -0.56    6.84
   5   9  -8   10.14    7.62
  -5   9  -8   -0.57    9.58
  -5   9  -7  149.50   15.50
  -5  -9  -7  178.00    7.87
   5   9  -7  179.36   14.17
   5  -9  -7  159.26   14.92
  -5  -9  -6   59.32    5.46
   5   9  -6   58.90    9.61
   5  -9  -6   53.99   10.39
   5   9  -5  135.63   11.56
   5  -9  -5  118.72   12.94
   5   9  -4   27.26    7.40
  -5   9  -4   12.32    6.04
   5   9  -4   21.04    6.64
   5  -9  -4   20.72    8.09
  -5   9  -3  193.14   13.65
   5  -9  -3  176.86   15.70
   5   9  -3  192.81   13.98
   5   9  -3  192.24   11.54
   5   9  -2    3.01    4.91
   5   9  -2    6.15    5.38
   5  -9  -2   -9.64    8.38
  -5   9  -2   -1.50    6.38
   5   9  -1  181.53    9.85
   5  -9  -1  187.98   15.87
  -5   9  -1  180.89   13.54
   5   9  -1  184.99   12.88
  -5   9   0  208.03   14.82
   5  -9   0  239.65   17.85
   5   9   0  217.17   13.22
   5   9   0  204.90    9.55
   5   9   1  169.31   11.24
   5   9   1  187.01    8.45
   5  -9   1  175.67   15.73
  -5   9   1  171.93   13.72
   5   9   2    0.84    4.17
   5  -9   2    2.93    7.71
  -5   9   2    0.37    6.08
   5   9   2    1.56    2.86
   5  -9   3  170.30   16.11
  -5   9   3  200.26   15.03
  -5   9   4   19.14    8.02
   5  -9   4   24.67   10.05
   5   9   4   19.88    3.04
   5  -9   5  135.82   15.21
   5   9   5  124.71    5.95
  -5   9   5  122.86   12.43
   5   9   6   42.35    9.22
   5  -9   6   49.92   11.17
  -5   9   6   56.85    9.98
  -5   9   7  205.33   16.18
   5   9   7  158.42   14.08
   5   9   8    2.58    7.11
   5   9   9  199.09   15.95
   5   9  10   -1.70    6.82
   5   9  11   93.47   12.08
   5   9  12   65.41   10.87
   5   9  13   37.27    9.63
   5  10 -13  209.48   18.14
   5  10 -12   23.98    9.78
   5  10 -11  157.32   15.67
  -5  10 -11  156.26   17.00
   5 -10 -11  164.25   15.26
   5  10 -10   16.78    8.80
  -5  10 -10   15.12    9.60
   5 -10 -10   -5.20    7.72
   5 -10  -9  196.01   16.42
   5  10  -9  187.50   15.36
  -5  10  -9  202.76   18.84
   5  10  -8   64.85   10.67
  -5  10  -8   50.18   11.62
   5 -10  -8   61.86   10.76
   5  10  -7  406.43   19.70
   5 -10  -7  394.53   22.73
  -5  10  -7  418.57   24.34
  -5  10  -6   18.04    7.06
   5  10  -6   29.89    7.90
   5 -10  -6   33.96    9.49
  -5  10  -5  219.87   15.22
   5  10  -5  236.08   14.43
   5 -10  -5  221.66   17.92
  -5  10  -4   -0.66    7.54
   5 -10  -4   -1.56    7.73
   5  10  -4    5.63    6.16
   5  10  -3  448.15   17.02
  -5  10  -3  404.04   20.45
   5 -10  -3  437.05   24.18
   5  10  -2    7.72    6.00
   5  10  -2    7.35    5.20
  -5  10  -2    0.85    6.74
   5 -10  -2   -1.46    8.89
   5 -10  -1  433.70   24.58
  -5  10  -1  466.16   22.12
   5  10  -1  456.91   20.08
   5  10  -1  449.28   15.16
   5  10   0   20.36    6.07
  -5  10   0   14.29    7.11
   5 -10   0   19.25    8.94
   5  10   0   25.75    4.84
   5  10   1  471.80   13.07
   5 -10   1  437.93   25.33
  -5  10   1  460.53   22.39
   5  10   1  457.31   18.50
  -5  10   2    5.40    7.25
   5 -10   2   -1.56    8.68
  -5  10   3  476.46   23.08
   5 -10   3  422.02   24.89
  -5  10   4    1.10    6.68
   5 -10   4    0.16    8.47
  -5  10   5  225.36   17.42
   5 -10   5  215.14   19.16
   5  10   6   17.44    8.12
  -5  10   6   37.13   10.15
  -5  10   7  416.38   22.77
   5  10   7  357.38   21.63
   5  10   8   54.08   10.64
   5  10   9  185.64   16.60
   5  10  10    6.99    7.68
   5  10  11  155.09   15.11
  -5  11 -10   54.47   12.63
  -5  11  -9   13.24    6.05
   5 -11  -9    3.34    7.30
  -5  11  -9   21.98   10.16
  -5  11  -8   64.01   12.15
  -5  11  -8   66.97    9.19
   5 -11  -8   71.99   11.25
  -5  11  -7   11.05    6.73
  -5  11  -7    2.54    8.88
   5 -11  -7    8.82    7.23
  -5  11  -6  108.32   11.84
  -5  11  -6  144.57   15.64
   5 -11  -6  133.00   14.50
  -5  11  -5    5.83    6.71
   5 -11  -5   -8.36    8.82
  -5  11  -4   40.86    9.11
   5 -11  -4   46.72   10.32
   5 -11  -3    0.50    8.12
  -5  11  -3   17.97    7.77
   5 -11  -2  215.16   18.56
  -5  11  -2  198.57   15.89
  -5  11  -1   23.37    8.14
   5 -11  -1   30.19    9.61
   5 -11   0   31.78    9.84
  -5  11   0   43.22    9.44
  -5  11   1   31.45    9.19
   5 -11   1   39.13   10.48
   5 -11   2  182.94   17.92
  -5  11   2  216.94   17.10
  -5  11   3    8.04    7.55
   5 -11   3   20.15    9.76
  -5  11   4   57.13   10.39
   5 -11   4   44.35   11.96
   5  11   5    3.03    7.98
  -5  11   5   10.36    8.11
   5 -11   5   13.85    9.83
  -5  11   6  162.08   16.03
   5  11   6  148.75   15.55
   5  11   7    5.66    7.76
  -5  11   7   24.33    9.33
  -5  12  -8   85.04   13.29
  -5  12  -8   65.65    9.79
  -5  12  -7   40.77    8.53
  -5  12  -7   51.11   11.36
  -5  12  -6   72.28   10.56
  -5  12  -6   71.12   12.55
   5 -12  -6   89.50   12.31
  -5  12  -5  142.34   13.85
   5 -12  -5  129.79   14.34
  -5  12  -5  142.58   14.98
  -5  12  -4  296.43   19.15
   5 -12  -4  296.74   20.55
  -5  12  -3  169.14   15.54
   5 -12  -3  189.00   17.48
  -5  12  -2  165.42   15.32
   5 -12  -2  146.18   15.76
  -5  12  -1  287.50   19.37
   5 -12  -1  320.04   21.85
   5 -12   0  111.86   15.11
  -5  12   0  127.83   14.03
  -5  12   1  303.20   20.32
   5 -12   1  272.81   21.31
  -5  12   2  156.23   15.38
   5 -12   2  156.94   17.19
  -5  12   3  216.40   17.99
   5 -12   3  194.97   18.62
   5 -12   4  298.92   22.54
   5 -13  -3  184.84   16.97
   5 -13  -2    1.11    7.77
   5 -13  -1  158.67   16.21
   5 -13   0    1.37    8.80
   5 -13   1  145.15   16.26
   5 -13   2   15.57   10.31
  -6   0 -19  -13.76   11.76
  -6   0 -18   78.00   14.66
  -6   0 -17   -1.68    9.88
  -6   0 -16  271.76   20.47
  -6   0 -15    6.69    9.43
  -6   0 -14  162.15   14.94
  -6   0 -14  183.18   13.56
  -6   0 -13    7.08    5.79
  -6   0 -13   19.48    9.69
  -6   0 -12  219.88   15.81
  -6   0 -12  216.38   14.03
  -6   0 -11   -1.91    4.80
  -6   0 -11    9.06    7.92
  -6   0 -10 1016.32   27.35
  -6   0  -9    0.16    6.32
  -6   0  -9   -5.54    4.80
  -6   0  -8 2400.32   35.46
  -6   0  -8 2437.66   37.34
  -6   0  -7   -0.11    4.13
  -6   0  -7   -0.18    5.74
  -6   0  -6  573.97   17.02
  -6   0  -6  559.13   15.94
  -6   0  -5   -2.61    5.25
  -6   0  -5   -1.71    3.58
  -6   0  -4 2838.58   29.89
  -6   0  -3   -0.80    3.27
   6   0   0 1838.85   22.68
   6   0   1   10.61    4.76
   6   0   2 1632.26   21.12
   6   0   3    0.65    3.59
   6   0   4 2893.41   29.76
   6   0   5    4.00    3.90
   6   0   5    1.38    1.17
  -6   0  11    0.40    6.12
  -6  -1 -19    9.85   10.30
  -6   1 -18   33.15   12.15
  -6  -1 -18   14.75   10.66
  -6   1 -17   38.06   11.34
  -6  -1 -17    8.81    9.73
  -6  -1 -16   22.77   10.34
  -6   1 -16   31.68   10.98
  -6  -1 -15   95.72   13.39
  -6   1 -15  118.50   14.89
  -6  -1 -14   37.31    7.61
  -6   1 -14   29.03    9.57
  -6  -1 -14   35.14   10.09
  -6   1 -13   26.56    7.51
  -6   1 -13   48.57   10.96
  -6  -1 -13   37.23    9.88
  -6  -1 -13   40.69    7.62
  -6  -1 -12  189.99   14.19
  -6  -1 -12  200.41   12.81
  -6   1 -12  207.80   15.97
  -6   1 -12  180.45   13.52
  -6   1 -11   14.19    8.15
  -6  -1 -11   18.88    7.87
  -6   1 -11    5.12    5.63
  -6  -1 -10  621.51   20.93
  -6  -1 -10  634.80   19.61
  -6   1 -10  630.66   22.30
  -6   1 -10  636.22   22.73
  -6  -1  -9   68.73    8.45
  -6  -1  -9   88.13    7.81
  -6   1  -9   80.98    9.95
  -6  -1  -8  505.86   15.23
  -6  -1  -8  508.25   16.91
  -6   1  -8  521.92   18.94
  -6  -1  -7   10.28    5.76
  -6   1  -7    2.25    6.43
  -6  -1  -7    5.59    3.53
  -6   1  -7    1.58    4.54
  -6  -1  -6  241.10   10.74
  -6   1  -6  228.40   12.30
  -6   1  -6  232.47   11.48
  -6  -1  -6  246.32    9.48
  -6  -1  -5  567.65   14.03
  -6  -1  -5  574.36   12.75
  -6   1  -5  556.31   16.41
  -6  -1  -4  171.20    6.57
  -6  -1  -4  165.64    7.44
  -6  -1  -3  224.97    6.78
  -6  -1  -2  960.60   12.74
   6  -1  -1 1847.20   26.41
   6  -1   0  136.23    8.88
   6   1   1 1832.83   18.16
   6  -1   1 1875.91   26.15
   6  -1   2  960.68   19.25
   6   1   2  959.30   12.94
   6   1   3  227.02    6.64
   6  -1   3  223.88   10.09
   6   1   4  176.80    6.45
   6  -1   4  172.25    9.30
   6  -1   5  573.18   16.46
   6   1   6  240.10    7.17
   6   1   7    7.00    2.65
  -6   1  10  631.30   23.07
  -6  -1  10  602.91   22.48
  -6  -1  11    7.98    6.65
  -6   1  11   10.53    7.23
  -6  -2 -19   -2.59   10.69
  -6   2 -18   22.89   12.02
  -6  -2 -18   -6.11    9.56
  -6   2 -17  160.73   17.50
  -6  -2 -17  114.83   14.97
  -6   2 -16   55.74   13.04
  -6  -2 -16   21.83   10.08
  -6   2 -15  266.87   20.27
  -6  -2 -15  198.81   13.60
  -6  -2 -15  213.13   17.81
  -6  -2 -14   11.28    8.49
   6   2 -14   18.62   10.40
  -6  -2 -14   36.76    7.22
  -6   2 -14   46.64   11.91
  -6  -2 -13  371.95   16.79
  -6   2 -13  382.44   21.42
   6   2 -13  361.76   22.43
  -6  -2 -13  370.17   20.01
  -6  -2 -12   18.49    7.57
   6  -2 -12   30.97    7.12
  -6   2 -12   34.42    7.74
   6   2 -12   12.27    9.55
  -6   2 -12   33.86    9.71
  -6   2 -11  238.84   15.63
   6  -2 -11  235.91   13.44
   6   2 -11  223.19   16.36
  -6  -2 -11  225.10   14.60
  -6   2 -11  241.38   16.22
  -6  -2 -10   45.23    6.15
  -6   2 -10   43.29    7.92
   6   2 -10   25.45    8.88
  -6   2 -10   45.67    9.88
  -6  -2 -10   52.77    8.48
  -6  -2  -9  179.65   11.51
  -6  -2  -9  167.59    9.17
  -6   2  -9  168.71   12.53
   6   2  -9  159.08   12.87
  -6   2  -9  161.12   13.23
  -6  -2  -8  448.14   15.64
  -6  -2  -8  429.63   12.85
   6   2  -8  437.07   18.65
  -6   2  -8  433.54   18.47
  -6  -2  -7  103.73    7.89
  -6  -2  -7  110.12    6.42
  -6   2  -7  102.89    9.93
   6   2  -7   87.70    9.46
  -6  -2  -6   15.52    4.81
   6   2  -6    0.82    7.30
  -6  -2  -6   10.66    3.10
   6   2  -5 2494.25   35.28
  -6  -2  -5 2341.62   25.57
  -6  -2  -5 2340.22   20.64
  -6  -2  -4 1139.16   15.65
  -6  -2  -4 1064.80   11.37
  -6  -2  -3  204.99    5.91
   6  -2  -2  538.12   16.05
   6  -2  -1  716.98   18.03
   6  -2   0   96.99    7.92
   6  -2   0   93.90    5.15
  -6  -2   1  711.69   11.75
   6  -2   1  732.58   18.58
   6  -2   1  726.36   12.09
   6  -2   2  544.33    9.70
   6  -2   2  509.54   15.91
  -6  -2   2  513.90   11.51
  -6  -2   3  191.83    8.40
   6  -2   3  201.83   10.70
   6  -2   4 1139.66   24.49
  -6  -2   4 1116.64   20.34
  -6  -2   5 2311.50   31.67
   6  -2   5 2345.79   35.76
  -6  -2   6   12.66    5.68
   6  -2   6   16.11    5.92
   6   2   7  102.76    6.31
   6   2   8  451.17   12.41
  -6  -2   8  436.08   17.31
   6   2   9  167.61    8.17
  -6  -2   9  172.56   12.54
  -6   2   9  157.29   11.98
  -6   2  10   53.23    8.87
  -6  -2  10   44.53    8.48
   6   2  10   51.22    7.48
   6   2  11  248.63   14.02
  -6  -2  11  230.71   15.21
  -6   2  11  263.60   16.32
  -6   3 -18  133.84   16.79
   6   3 -17  -14.30   12.46
  -6   3 -17    8.26   11.38
  -6   3 -16  159.30   17.50
   6   3 -16  105.88   16.50
  -6  -3 -15   29.47    6.94
  -6   3 -15   27.44   11.68
  -6  -3 -15   -2.43    9.69
  -6   3 -14  128.51   14.67
  -6  -3 -14  148.07   10.91
  -6  -3 -14  107.27   12.95
   6   3 -14  139.51   16.54
  -6   3 -13   65.47    2.83
  -6   3 -13   95.71   13.99
  -6  -3 -13   81.33   11.17
   6   3 -13   81.31   14.32
  -6  -3 -12  528.51   22.35
   6   3 -12  501.89   25.05
  -6   3 -12  554.82   25.48
   6  -3 -11  114.43   10.23
  -6   3 -11  103.68   11.27
  -6  -3 -11   84.30   10.22
  -6   3 -11  111.67   12.91
   6   3 -11   75.18   11.80
   6  -3 -10  656.51   21.47
  -6  -3 -10  673.33   22.08
  -6   3 -10  632.01   24.86
  -6   3 -10  646.44   25.13
   6   3 -10  631.16   25.08
   6  -3  -9   77.31    8.29
  -6   3  -9   54.75    8.87
  -6   3  -9   66.08   10.43
  -6  -3  -9   61.72    7.80
   6   3  -9   59.09    9.24
  -6  -3  -8  587.43   17.66
   6  -3  -8  583.39   18.88
  -6   3  -8  589.27   22.77
  -6  -3  -8  567.75   13.14
  -6   3  -8  565.00   21.59
   6   3  -8  572.03   21.28
   6  -3  -7  155.99    9.94
  -6  -3  -7  144.70    6.14
   6   3  -7  133.85   10.72
  -6  -3  -7  143.07    8.72
  -6   3  -6  909.35   11.33
  -6  -3  -6  874.88   11.99
   6  -3  -6  881.40   20.96
   6   3  -6  917.47   23.13
  -6  -3  -6  923.52   17.99
  -6  -3  -5  343.91    9.87
  -6   3  -5  359.03    7.68
   6   3  -5  335.29   13.69
   6  -3  -5  321.48   12.47
   6  -3  -4  330.84   12.30
  -6   3  -4  346.91    8.07
  -6  -3  -4  341.59    8.18
   6  -3  -4  329.73   14.47
   6   3  -4  339.79   12.97
   6  -3  -3   57.14    5.67
   6  -3  -3   58.02    7.34
  -6   3  -3   61.89    4.33
   6   3  -3   44.65    5.32
   6  -3  -2 1173.58   20.47
  -6   3  -2 1192.66   16.70
   6   3  -2 1212.15   18.12
   6  -3  -2 1178.24   25.09
   6  -3  -1  933.74   22.53
   6  -3  -1  908.49   17.36
  -6   3  -1  967.06   16.06
  -6  -3   0  326.73    5.38
   6  -3   0  329.78   10.45
   6  -3   0  357.10   14.60
   6  -3   1  923.86   22.67
  -6  -3   1  915.40   12.11
   6  -3   2 1153.66   25.50
  -6  -3   2 1140.96   16.36
   6  -3   3   54.44    7.53
  -6  -3   3   58.26    5.61
   6  -3   4  328.44   14.93
  -6  -3   4  335.00   11.91
   6  -3   5  338.13   15.68
  -6  -3   5  354.49   13.13
   6   3   6  915.85   16.82
   6  -3   6  886.60   24.65
  -6  -3   6  871.99   21.71
   6   3   7  136.12    8.29
   6  -3   7  164.62   12.22
   6   3   7  149.83    8.19
  -6  -3   8  597.79   20.81
   6   3   8  562.65   16.28
   6   3   8  583.38   15.88
  -6   3   8  566.56   21.49
   6   3   9   62.87    7.07
   6   3   9   72.26    6.94
  -6   3   9   68.34    8.84
  -6  -3   9   62.39    9.06
  -6  -3  10  665.46   24.23
   6   3  10  678.39   20.52
  -6   3  10  681.50   24.68
   6   3  10  656.05   17.53
   6   3  11  111.68   10.11
  -6  -3  11  111.08   11.77
  -6   3  11  105.16   11.51
   6   3  12  590.17   21.01
   6   3  13   96.57   10.26
  -6   4 -17   67.44   14.44
   6   4 -17   33.90   12.18
  -6   4 -16   47.09   12.87
   6   4 -16   20.19   12.02
  -6   4 -15  166.82   18.07
   6   4 -15  117.86   16.41
  -6  -4 -14  110.30    9.14
   6   4 -14   95.60   14.73
  -6   4 -14  112.42   14.30
  -6   4 -13  227.68   18.51
   6   4 -13  213.79   17.98
  -6   4 -12   29.46    9.69
   6   4 -12   30.96    9.87
  -6   4 -11  219.89   17.03
   6   4 -11  205.23   16.34
   6  -4 -10  204.81   12.96
  -6   4 -10  238.38   16.32
  -6   4 -10  195.21   16.05
   6   4 -10  184.95   14.95
  -6   4  -9  130.04   13.15
   6  -4  -9  146.37   11.07
  -6   4  -9  148.85   13.14
   6   4  -9  138.95   12.69
   6  -4  -8  167.93   11.38
  -6   4  -8  171.35   13.69
  -6   4  -8  169.79   13.78
   6   4  -8  169.46   12.70
   6  -4  -7  873.39   23.58
   6   4  -7  875.64   24.38
   6  -4  -6  228.89   12.05
   6   4  -6  223.01   12.27
   6  -4  -5  232.11   11.72
  -6   4  -5  237.29    8.24
   6  -4  -5  245.35   14.06
   6   4  -5  243.10   11.82
  -6   4  -4  398.02   10.94
   6  -4  -4  400.25   14.53
   6  -4  -4  413.77   17.24
   6   4  -4  401.25   13.65
  -6   4  -3  325.54   10.16
   6  -4  -3  332.90   15.17
   6  -4  -3  322.23   12.70
   6   4  -3  299.66   10.69
   6  -4  -2  182.85   11.60
   6  -4  -2  155.57    9.00
  -6   4  -2  169.81    7.99
   6   4  -2  174.21    7.71
  -6   4  -1  700.73   15.93
   6   4  -1  678.38   14.84
   6   4  -1  704.38   11.53
   6  -4  -1  677.44   21.15
  -6   4   0    9.69    3.99
   6   4   0   10.51    3.36
   6  -4   0    9.33    6.06
   6   4   1  668.86   11.76
  -6   4   1  663.04   20.48
   6  -4   1  679.53   21.48
   6  -4   2  173.06   11.93
   6   4   2  144.79    4.31
  -6  -4   3  317.00   10.45
   6  -4   3  313.81   15.75
   6  -4   4  396.40   17.80
  -6  -4   4  411.07   13.05
   6  -4   5  225.19   13.79
   6   4   5  236.06    7.16
  -6  -4   5  222.66   11.00
   6   4   6  208.97    7.93
   6  -4   6  216.86   13.91
  -6  -4   6  212.39   11.46
   6   4   7  884.78   17.61
   6  -4   7  868.90   26.71
   6   4   8  174.60   10.18
  -6  -4   8  174.79   12.33
   6   4   8  173.27    9.38
   6   4   9  137.54    9.69
  -6  -4   9  141.75   11.94
  -6   4   9  163.01   13.93
   6   4   9  137.77    9.27
   6   4  10  200.04   11.52
   6   4  10  197.06   11.23
  -6   4  10  219.76   14.87
  -6  -4  10  194.64   13.83
   6   4  11  232.91   13.02
   6   4  11  238.53   12.33
   6   4  12   46.99    7.77
   6   4  13  234.87   13.80
   6   5 -17  129.23   17.49
  -6   5 -16   21.07   12.31
   6   5 -16  -17.04   12.54
  -6   5 -15  188.97   18.86
   6   5 -15  173.35   18.95
  -6   5 -14   13.49   11.64
   6   5 -14   23.45   11.42
   6   5 -13  470.55   25.83
  -6   5 -13  490.98   26.40
   6   5 -12  102.53   14.39
  -6   5 -12   87.31   14.03
  -6   5 -11  468.57   24.47
   6   5 -11  438.90   22.39
  -6   5 -10    7.39    8.31
   6   5 -10   -2.47    8.10
  -6   5  -9  153.00   14.62
  -6  -5  -9  151.59    7.05
   6   5  -9  170.84   13.78
   6  -5  -8   32.09    6.79
  -6  -5  -8   27.96    3.08
  -6   5  -8   14.20    8.65
   6  -5  -8   31.85    7.71
   6   5  -8   44.83    8.63
  -6   5  -8   41.68    8.43
   6  -5  -7  588.55   20.43
  -6   5  -7  616.34   24.70
   6  -5  -7  575.69   23.01
   6   5  -7  581.80   20.20
   6   5  -6    8.08    6.12
   6  -5  -6    4.33    4.45
   6  -5  -6    6.70    5.55
   6   5  -5 1913.54   30.96
   6  -5  -5 1941.23   38.88
   6   5  -5 1911.00   35.25
   6  -5  -5 1944.23   34.92
   6  -5  -4   21.80    6.78
   6   5  -4   22.23    5.48
   6   5  -4   27.49    5.94
  -6   5  -4   21.61    4.45
   6  -5  -3  971.80   26.93
   6   5  -3  967.36   18.52
   6   5  -3 1008.26   22.82
  -6   5  -3  978.70   19.94
   6  -5  -2    7.55    5.96
  -6   5  -2    6.47    3.84
   6   5  -2   16.84    4.78
   6   5  -2   11.23    3.99
   6   5  -1 2568.81   22.49
  -6   5  -1 2554.25   42.86
  -6   5  -1 2578.74   33.81
   6   5  -1 2605.61   32.81
   6  -5  -1 2545.60   43.42
   6   5   0    7.36    3.36
   6   5   0    8.38    1.97
  -6   5   0    8.20    5.24
   6  -5   0    6.43    6.44
  -6   5   1 2587.47   42.77
   6  -5   1 2521.34   42.99
   6   5   1 2552.71   26.65
  -6   5   2    9.81    5.06
   6  -5   2    2.37    6.44
   6   5   2   10.05    2.33
   6  -5   3  975.74   28.28
   6   5   4   14.51    1.60
   6  -5   4   18.30    7.61
   6  -5   5 1934.73   40.30
   6   5   5 1895.77   18.27
   6   5   6    8.99    3.04
   6  -5   6    5.49    6.30
   6  -5   7  553.66   23.02
   6   5   7  582.55   14.09
  -6  -5   7  496.33   18.47
   6   5   8   28.81    5.99
   6   5   8   36.47    5.32
  -6  -5   8   42.38    7.75
  -6  -5   9  156.46   12.49
   6   5   9  165.77   11.22
   6   5   9  156.75    9.42
   6   5  10    7.24    4.47
  -6  -5  10   -1.08    7.11
   6   5  10    5.71    5.46
  -6   5  10   -1.47    7.26
   6   5  11  473.66   18.59
   6   5  11  440.67   16.60
   6   5  12  101.45    9.84
   6   5  12   81.89    8.60
   6   5  13  461.66   18.55
   6   6 -16   27.75   12.87
  -6   6 -16   46.21   13.59
  -6   6 -15  115.35   16.13
   6   6 -15   69.16   13.36
   6   6 -14   61.85   12.94
  -6   6 -14   65.59   14.33
   6   6 -13   -4.10    9.91
  -6  -6 -13   -3.18    4.00
  -6   6 -13   -2.02   10.40
  -6   6 -12   62.30   13.07
   6   6 -12   53.29   11.21
  -6  -6 -12   61.32    6.20
   6  -6 -11  -11.88    8.56
   6   6 -11   -1.78    8.58
  -6   6 -11   -7.05   10.25
  -6  -6 -11    0.72    2.80
  -6  -6 -10  350.44   10.97
   6  -6 -10  375.79   21.35
  -6   6 -10  397.16   22.69
   6   6 -10  382.34   20.27
  -6   6  -9   21.78   10.15
  -6  -6  -9   21.38    3.18
   6   6  -9   33.61    9.15
   6  -6  -9   32.75    8.68
   6   6  -8  163.72   13.21
  -6   6  -8  146.93   14.06
   6   6  -8  165.60   13.17
  -6  -6  -8  144.65    5.40
   6  -6  -8  135.46   12.92
   6   6  -7   14.36    6.78
   6  -6  -7   17.59    6.72
   6   6  -7    8.46    5.75
  -6  -6  -7    5.23    1.40
   6  -6  -6  122.23   11.85
   6   6  -6  118.87   10.84
  -6   6  -6  109.66   11.97
   6   6  -6  123.11   10.22
   6  -6  -5  154.80   12.81
   6   6  -5  147.23   10.09
   6   6  -5  131.94   10.71
  -6   6  -5  148.16   13.38
   6  -6  -4  293.87   16.28
   6   6  -4  261.75   11.72
   6   6  -4  280.39   14.63
  -6   6  -4  268.04   16.61
   6   6  -3  180.86   11.52
   6   6  -3  170.91    8.90
  -6   6  -3  164.50   13.38
   6  -6  -3  164.41   12.94
  -6   6  -2  542.55   22.61
   6   6  -2  553.65   13.28
   6   6  -2  538.66   18.08
   6  -6  -2  535.67   21.53
   6   6  -1   88.88    5.35
  -6   6  -1   75.02    9.34
   6   6  -1   74.06    7.19
   6  -6  -1   82.72    9.74
  -6   6   0   45.71    6.85
   6   6   0   46.18    3.49
   6   6   0   41.19    5.47
   6  -6   0   46.82    8.46
  -6   6   0   43.65    7.52
   6   6   1   76.13    2.91
  -6   6   1   87.91    8.54
   6  -6   1   83.54   10.18
  -6   6   1   87.35    9.62
   6   6   1   83.94    6.25
   6   6   2  561.32   13.34
  -6   6   2  573.75   21.72
   6  -6   2  561.56   22.81
  -6   6   2  582.16   19.25
  -6   6   3  175.01   11.56
   6  -6   3  154.16   13.55
  -6   6   4  309.67   15.22
   6  -6   4  267.68   16.82
   6   6   5  140.45    4.98
   6  -6   5  145.23   13.60
   6   6   6  110.55    5.53
   6  -6   6  116.74   12.61
   6  -6   7   15.43    8.61
   6   6   7   13.34    3.58
   6   6   8  161.26   11.92
   6   6   8  161.35    8.43
   6   6   9   30.16    7.57
   6   6   9   25.36    5.28
   6   6  10  370.69   17.51
   6   6  10  384.41   14.44
   6   6  11   -1.94    5.82
   6   6  11   -3.02    4.97
   6   6  12   55.56    7.39
   6   6  12   54.90    8.89
   6   6  13    0.87    5.33
   6  -7 -17   22.30    9.07
   6  -7 -16   37.13   10.24
   6   7 -16   22.45   12.19
   6   7 -15   30.75   11.26
  -6   7 -15   75.03   15.38
   6  -7 -15   45.10   10.41
   6   7 -14   21.64   10.88
  -6   7 -14   43.72   12.76
   6  -7 -14   28.17    8.49
   6   7 -13   70.67   13.07
   6  -7 -13   49.01   10.60
  -6   7 -13   79.59   13.80
  -6   7 -12   92.14   14.00
   6   7 -12   57.14   11.96
   6  -7 -12   83.26   12.32
  -6   7 -11  102.73   14.28
   6  -7 -11  132.76   14.78
   6   7 -11  124.65   14.34
  -6  -7 -11  106.03    6.03
   6  -7 -10  232.31   17.90
  -6  -7 -10  216.23    7.69
  -6   7 -10  259.43   19.52
   6   7 -10  256.73   17.76
   6   7  -9  193.76   14.96
  -6   7  -9  204.47   17.59
  -6  -7  -9  162.91    5.79
   6  -7  -9  214.10   16.52
   6   7  -8  637.47   24.33
   6  -7  -8  569.98   25.14
  -6   7  -8  577.34   25.94
   6  -7  -7  485.81   22.82
   6   7  -7  481.94   19.57
   6   7  -7  454.75   20.94
   6  -7  -6  124.87   12.83
   6   7  -6  143.70   12.41
   6   7  -6  141.22   11.19
  -6   7  -5  235.74   12.24
   6   7  -5  260.91   13.32
   6   7  -5  256.41   15.54
   6  -7  -5  220.11   15.29
   6   7  -4  114.95   10.76
   6   7  -4  130.92    9.18
  -6   7  -4  109.92    9.09
  -6   7  -4  116.63   12.51
   6  -7  -4  113.23   11.75
  -6   7  -3  647.39   20.15
   6   7  -3  689.65   22.84
   6   7  -3  680.08   17.33
   6  -7  -3  626.14   25.15
  -6   7  -3  713.62   27.01
  -6   7  -2  258.68   16.42
   6   7  -2  248.69   13.83
  -6   7  -2  262.00   13.47
   6   7  -2  268.62   10.47
   6  -7  -2  261.57   16.72
  -6   7  -1  239.46   13.27
   6   7  -1  250.16    8.93
   6   7  -1  258.93   13.19
  -6   7  -1  259.77   16.19
   6  -7  -1  266.89   16.98
  -6   7   0  312.96   15.07
  -6   7   0  310.40   17.51
   6  -7   0  307.32   18.15
   6   7   0  296.65    8.21
   6   7   0  308.83   13.56
  -6   7   1  238.74   15.54
   6  -7   1  226.56   15.89
   6   7   1  252.23    6.36
  -6   7   1  257.79   14.27
   6   7   1  257.05   11.62
  -6   7   2  275.94   14.76
  -6   7   2  276.17   16.51
   6  -7   2  274.06   17.80
   6   7   2  259.70   10.71
   6  -7   3  662.58   26.46
   6   7   3  683.25   15.51
  -6   7   3  687.68   22.77
  -6   7   4  129.06   11.11
   6  -7   4  102.16   12.27
   6   7   4   99.07    3.23
  -6   7   5  228.45   14.28
   6  -7   5  223.89   16.95
   6   7   5  224.02    6.01
   6  -7   6  127.24   14.05
   6   7   6  127.60    5.69
   6  -7   7  478.57   24.26
   6   7   7  476.95   11.90
   6   7   8  573.41   14.36
   6   7   8  549.69   22.09
   6   7   9  182.21   13.88
   6   7   9  205.83    9.73
   6   7  10  269.46   11.70
   6   7  10  233.31   15.49
   6   7  11  127.97   12.17
   6   7  12   89.87   10.67
   6   7  13   83.73   10.44
   6   8 -15  120.88   16.58
   6  -8 -15  106.25   14.01
   6   8 -14   -6.79    9.97
  -6   8 -14   -1.55   10.96
   6  -8 -14   -2.35    6.54
   6   8 -13   81.37   13.83
   6  -8 -13   81.35   12.32
  -6   8 -13   88.25   15.21
   6  -8 -12   14.97    7.78
   6   8 -12   13.74    9.22
  -6   8 -12   14.82    9.88
   6  -8 -11  187.86   16.92
  -6   8 -11  183.37   17.97
   6   8 -11  161.62   15.93
   6  -8 -10   70.99   11.47
   6   8 -10   74.25   11.61
  -6   8 -10   58.22   12.15
   6  -8  -9  141.04   14.44
   6   8  -9  152.37   13.90
  -6   8  -9  125.38   14.92
   6  -8  -8  103.25   12.77
  -6  -8  -8   70.10    3.12
  -6   8  -8   77.99   12.72
   6   8  -8   96.88   11.37
   6   8  -7  418.18   19.20
   6  -8  -7  416.55   22.45
  -6   8  -6   99.17    9.31
   6  -8  -6  117.01   13.24
   6   8  -6  126.31   11.14
  -6   8  -5  218.87   12.75
   6   8  -5  205.67   14.37
   6   8  -5  223.69   13.07
   6  -8  -5  205.12   16.31
  -6   8  -4    3.82    5.26
   6   8  -4    5.39    5.73
   6   8  -4   18.89    6.07
   6  -8  -4   21.76    8.23
   6  -8  -3  298.05   18.70
   6   8  -3  309.20   12.94
   6   8  -3  339.14   17.02
  -6   8  -3  290.17   15.26
  -6   8  -2   36.41    7.13
   6   8  -2   53.30    6.26
   6   8  -2   36.16    7.39
   6  -8  -2   45.35   10.03
  -6   8  -1  351.55   19.45
  -6   8  -1  309.30   15.94
   6   8  -1  317.91   10.98
   6  -8  -1  344.57   20.17
   6   8  -1  319.80   15.56
  -6   8   0   27.21    7.18
   6  -8   0   25.74    8.93
   6   8   0   35.00    4.17
  -6   8   0   25.45    7.23
   6   8   0   18.28    6.03
   6   8   1  350.92   14.74
  -6   8   1  324.52   16.78
  -6   8   1  352.17   19.09
   6  -8   1  311.44   19.86
   6   8   1  327.99    8.32
   6   8   2   37.61    5.77
  -6   8   2   41.38    8.48
  -6   8   2   39.66    7.97
   6  -8   2   29.11    9.48
   6   8   2   31.48    2.68
  -6   8   3  320.40   17.08
   6  -8   3  304.50   20.03
   6   8   3  278.66    5.58
  -6   8   4   13.35    6.99
   6  -8   4    9.09    8.36
   6   8   4   12.17    1.50
  -6   8   5  216.08   14.92
   6   8   5  213.15    5.53
   6  -8   5  223.62   17.70
  -6   8   6  111.41   11.81
   6  -8   6  111.63   14.21
   6   8   6  112.21    4.97
   6  -8   7  454.08   24.58
   6   8   7  429.25   20.76
   6   8   7  424.99   10.36
   6   8   8   89.77    5.98
   6   8   8   77.99   10.41
   6   8   9  142.64   13.19
   6   8  10   47.32    8.91
   6   8  11  201.84   15.49
   6   8  12   19.99    7.76
   6   8  13   81.65   10.74
   6   9 -14   76.11   13.54
   6  -9 -14   94.59   12.65
   6  -9 -13   59.04   10.69
   6   9 -13   60.42   12.40
  -6   9 -12   70.35   14.19
   6   9 -12   61.18   12.22
   6  -9 -12   49.94   10.11
   6  -9 -11   27.16    8.48
  -6   9 -11   22.84   11.80
   6   9 -11   37.51   10.22
   6  -9 -10   98.47   13.01
  -6   9 -10   94.78   14.70
   6   9 -10  108.30   13.57
   6   9  -9   11.93    8.15
  -6   9  -9   -2.31    9.99
   6  -9  -9   -6.94    8.48
   6  -9  -8   95.76   12.70
   6   9  -8  132.57   12.99
  -6   9  -8  113.97   15.00
   6  -9  -7    5.09    7.84
  -6   9  -7    2.38    5.67
   6   9  -7    9.71    7.03
   6   9  -6  173.96   12.75
  -6   9  -6  155.09   12.18
   6  -9  -6  181.07   16.27
   6   9  -5   61.17    8.61
  -6   9  -5   46.07    7.95
   6  -9  -5   57.86   11.05
   6   9  -4  137.24   10.32
   6   9  -4  140.06   12.44
  -6   9  -4  125.17   11.37
   6  -9  -4  140.59   14.45
  -6   9  -3   14.14    6.14
   6  -9  -3    9.75    7.47
   6   9  -3   20.62    5.90
   6   9  -3   17.57    6.23
   6   9  -2  433.66   14.84
  -6   9  -2  441.51   19.80
   6  -9  -2  445.57   23.76
   6   9  -2  417.71   18.90
  -6   9  -1   34.68    7.82
   6  -9  -1   25.02    9.06
   6   9  -1   28.14    6.30
   6   9  -1   38.05    5.29
   6   9   0   30.65    4.29
   6   9   0   23.39    5.76
  -6   9   0   22.84    7.54
   6  -9   0   18.63    9.26
   6   9   1   41.22    6.57
   6  -9   1   48.76   10.84
   6   9   1   43.22    3.94
  -6   9   1   28.86    7.88
   6   9   2  436.16   16.02
  -6   9   2  431.80   20.75
   6  -9   2  427.32   23.78
   6   9   2  406.23    8.43
  -6   9   3   15.80    7.67
   6  -9   3   11.30    8.55
   6   9   3   13.81    1.70
   6   9   3   12.69    1.64
   6  -9   4  129.16   15.02
  -6   9   4  154.10   13.90
  -6   9   5   53.79    9.83
   6  -9   5   50.06   11.46
   6  -9   6  164.44   16.62
  -6   9   6  159.05   14.29
   6   9   7    1.25    7.16
   6   9   8  106.16   12.35
   6   9   9    3.22    7.21
   6   9  10  108.19   12.87
   6   9  11   21.71    8.24
   6   9  12   59.88   10.44
   6   9  13   73.29   11.46
   6  10 -13   10.08    9.35
   6  10 -12  200.42   17.54
   6 -10 -11   11.16    7.83
   6  10 -11   18.08    9.11
  -6  10 -11   28.43   11.64
  -6  10 -10  184.35   18.94
  -6  10 -10  160.81   11.65
   6 -10 -10  166.74   15.73
   6  10 -10  186.94   15.63
  -6  10  -9   13.70    5.65
   6  10  -9   28.94   10.10
  -6  10  -9   13.53   10.03
   6 -10  -9    9.39    7.66
   6  10  -8  396.25   19.78
  -6  10  -8  407.38   24.69
  -6  10  -8  353.04   17.73
   6 -10  -8  386.98   23.32
  -6  10  -7   41.78    8.24
   6  10  -7   53.17    9.32
   6 -10  -7   52.29   11.26
  -6  10  -7   34.67   10.68
  -6  10  -6  286.50   16.98
   6  10  -6  299.85   16.06
   6 -10  -6  316.34   21.23
  -6  10  -5    0.83    7.07
   6  10  -5   11.12    6.32
   6 -10  -5    2.00    7.26
  -6  10  -4  225.41   15.67
   6  10  -4  241.64   12.90
   6 -10  -4  226.07   18.27
  -6  10  -3   -0.35    6.39
   6 -10  -3   -0.04    7.96
   6  10  -3    5.93    5.34
   6  10  -3   -2.98    5.44
  -6  10  -2  539.08   23.35
   6  10  -2  574.63   16.80
   6 -10  -2  557.02   28.11
   6  10  -2  573.05   22.65
   6  10  -1   -0.47    4.89
  -6  10  -1   -4.63    7.32
   6 -10  -1    1.83    8.43
   6  10  -1    4.58    3.96
   6  10   0  321.70   16.00
   6 -10   0  302.82   21.33
  -6  10   0  301.95   18.41
   6  10   0  325.67   10.43
   6 -10   1    3.58    8.19
  -6  10   1    1.72    6.56
  -6  10   2  582.29   25.33
   6 -10   2  532.19   28.19
  -6  10   3    5.70    7.24
   6 -10   3    5.88    8.50
   6 -10   4  231.42   19.78
  -6  10   4  255.06   17.96
  -6  10   5    9.78    8.56
   6 -10   5    8.75    8.95
   6 -10   6  302.21   22.60
  -6  10   6  344.67   20.73
   6  10   6  295.73   20.10
   6  10   7   59.21   11.37
   6  10   8  364.26   21.90
   6  10   9   13.88    7.86
   6  10  10  175.26   15.97
   6  10  11   23.91    9.02
  -6  11  -9   38.02   11.14
  -6  11  -9   37.78    7.73
   6 -11  -9   44.16    9.47
  -6  11  -8   31.98    7.65
  -6  11  -8   21.39   10.49
   6 -11  -8   33.67    8.71
  -6  11  -7  144.38   12.67
   6 -11  -7  134.17   14.37
  -6  11  -7  157.64   16.70
  -6  11  -6   -1.77    6.79
   6 -11  -6   17.80    9.08
  -6  11  -5  137.92   12.94
   6 -11  -5  133.75   15.00
  -6  11  -4    6.21    6.83
   6 -11  -4   -1.08    8.23
  -6  11  -3   58.28   10.04
   6 -11  -3   70.36   12.25
   6 -11  -2   -5.51    8.12
  -6  11  -2    5.91    7.35
  -6  11  -1   82.78   11.36
   6 -11  -1   85.16   13.31
  -6  11   0   20.30    8.05
   6 -11   0   25.23    9.85
   6 -11   1   89.32   13.80
  -6  11   1  110.38   12.87
  -6  11   2   13.54    7.83
   6 -11   2    2.43    8.28
   6 -11   3   92.25   13.92
  -6  11   3   77.84   11.53
  -6  11   4   23.51    8.80
   6 -11   4   17.78   10.29
  -6  11   5  129.44   14.46
   6 -11   5  151.43   17.32
   6  11   6    9.67    8.27
  -6  11   6   23.61    9.28
   6  11   7  147.96   15.94
  -6  12  -7   21.71    9.82
  -6  12  -7   36.88    8.45
  -6  12  -6   76.16   10.61
  -6  12  -6  115.61   14.22
   6 -12  -6   96.13   13.39
  -6  12  -5  173.62   14.56
   6 -12  -5  179.31   16.79
  -6  12  -4  129.30   13.38
   6 -12  -4  142.16   16.28
   6 -12  -3  216.24   18.56
  -6  12  -3  224.73   16.96
   6 -12  -2  241.37   20.05
  -6  12  -2  243.03   17.73
  -6  12  -1  162.76   15.38
   6 -12  -1  142.85   16.52
  -6  12   0  301.33   20.01
   6 -12   0  300.46   22.53
  -6  12   1  152.52   15.24
   6 -12   1  157.94   17.89
   6 -12   2  259.39   21.08
  -6  12   2  294.93   20.16
   6 -12   3  273.04   21.43
   6 -12   4  142.84   16.98
   6 -13  -3   27.86    9.55
   6 -13  -2  181.84   17.63
   6 -13  -1   -1.07    8.80
   6 -13   0  154.73   17.11
   6 -13   1    6.41    9.19
  -7   0 -19  102.27   15.51
  -7   0 -18  -14.05   10.97
  -7   0 -17  100.08   14.49
  -7   0 -16    1.10    8.80
  -7   0 -15  281.00   19.88
  -7   0 -14   11.67    9.16
  -7   0 -14    2.71    6.04
  -7   0 -13  377.51   20.26
  -7   0 -13  335.49   17.60
  -7   0 -12    0.08    5.27
  -7   0 -12    9.12    8.20
  -7   0 -11  508.01   20.17
  -7   0 -11  504.15   21.00
  -7   0 -10    1.62    6.54
  -7   0  -9  981.18   24.95
  -7   0  -9  995.76   25.83
  -7   0  -8   -0.01    5.78
  -7   0  -8   -1.95    4.69
  -7   0  -7 1997.71   31.61
  -7   0  -7 2082.95   33.00
  -7   0  -6   -6.42    6.52
  -7   0  -6   -3.25    3.99
  -7   0  -5 1075.47   20.56
  -7   0  -4    0.24    3.45
  -7   0  -3  762.99   15.67
  -7   0  -2   -1.34    2.91
   7   0   0   49.79    6.05
   7   0   1 1265.97   19.63
   7   0   2   -0.91    3.59
   7   0   3  780.15   16.05
   7   0   4    0.97    3.50
   7   0   5 1093.53   20.32
   7   0   6    0.85    1.15
  -7   0  10    1.63    5.32
  -7   0  11  545.90   22.22
  -7  -1 -19   11.52   10.11
  -7   1 -18   36.06   12.08
  -7  -1 -18   42.21   11.32
  -7  -1 -17   36.31   10.94
  -7   1 -17   40.83   12.46
  -7   1 -16   65.25   12.78
  -7  -1 -16   55.71   11.65
  -7  -1 -15    2.57    5.28
  -7  -1 -15    9.08    8.79
  -7   1 -15   11.12   10.19
  -7   1 -14  197.29   16.75
  -7  -1 -14  200.52   13.80
  -7  -1 -14  207.31   16.58
  -7  -1 -13   23.66    9.03
  -7   1 -13   38.13    8.19
  -7  -1 -13   22.39    6.45
  -7   1 -13   37.07   10.77
  -7   1 -12   28.62    9.66
  -7  -1 -12   25.74    6.62
  -7  -1 -12   27.96    8.48
  -7   1 -12   20.34    6.82
  -7  -1 -11  293.09   16.00
  -7   1 -11  293.49   16.35
  -7   1 -11  283.56   17.04
  -7  -1 -10   28.92    5.87
  -7   1 -10   24.79    6.47
  -7   1 -10   32.35    8.27
  -7  -1 -10   38.14    7.99
  -7   1  -9  854.38   25.34
  -7  -1  -9  861.08   23.11
  -7  -1  -9  861.86   21.57
  -7  -1  -8  237.14   10.87
  -7  -1  -8  238.63   12.29
  -7   1  -8  228.43   13.25
  -7  -1  -7  541.41   16.43
  -7  -1  -7  540.60   15.15
  -7   1  -7  532.73   18.58
  -7   1  -7  560.52   18.44
  -7  -1  -6    9.93    5.56
  -7  -1  -6    3.96    3.12
  -7   1  -6    9.61    4.83
  -7  -1  -5    0.71    4.87
  -7  -1  -5   12.95    3.39
  -7   1  -5   11.83    4.55
  -7   1  -4  103.66    7.78
  -7  -1  -4   99.60    5.64
  -7  -1  -3 1265.73   16.78
   7  -1  -1    8.68    4.43
   7  -1   0 1223.10   22.24
   7  -1   1    6.96    4.15
   7   1   1    8.80    2.79
   7  -1   2   76.42    6.82
   7   1   2   86.01    4.91
   7   1   3 1314.57   16.86
   7  -1   3 1288.13   23.19
   7   1   4  108.87    5.66
   7  -1   4   85.83    7.50
   7  -1   5    8.11    5.15
   7  -1   6    8.05    4.93
   7   1   7  543.91   10.80
   7   1   8  247.59    7.66
  -7   1  10   26.00    7.28
  -7  -1  10   28.67    7.74
  -7   1  11  306.59   17.37
  -7  -1  11  277.65   16.49
  -7  -2 -19   -9.37   10.70
  -7   2 -18   89.59   14.49
  -7  -2 -18   58.81   12.76
  -7   2 -17   45.65   13.32
  -7  -2 -17    5.84    9.43
  -7   2 -16  149.54   17.17
  -7  -2 -16  130.97   15.32
  -7  -2 -15   73.62   12.34
  -7  -2 -15   95.25   10.10
  -7   2 -15   98.99   14.56
  -7   2 -14  246.20   18.45
  -7  -2 -14  224.19   13.76
  -7  -2 -14  234.11   17.28
  -7  -2 -13   39.76    9.69
  -7  -2 -13   55.41    7.87
  -7   2 -13   51.44   11.17
  -7   2 -12  391.34   20.09
  -7   2 -12  405.68   21.36
   7  -2 -12  439.00   18.17
  -7  -2 -12  411.93   19.61
  -7  -2 -11   32.74    8.07
  -7  -2 -11   26.71    5.75
  -7   2 -11   31.74    7.65
  -7   2 -11   33.97    9.47
  -7  -2 -10  136.23   10.75
  -7  -2 -10  142.01    9.46
  -7   2 -10  133.44   12.80
  -7   2 -10  144.02   12.54
   7   2 -10  109.67   12.28
  -7  -2  -9  203.26   12.01
  -7   2  -9  207.82   13.96
   7   2  -9  154.51   12.95
  -7   2  -9  205.73   14.52
  -7  -2  -9  194.38    9.82
  -7  -2  -8   18.06    3.92
  -7  -2  -8   25.51    6.02
  -7   2  -8   19.89    6.81
  -7  -2  -7   19.58    3.81
  -7  -2  -7   20.07    5.61
  -7   2  -7    6.85    6.80
  -7  -2  -6 1246.91   17.83
  -7   2  -6 1280.44   28.46
  -7  -2  -6 1239.85   20.93
  -7  -2  -5  170.49    6.00
  -7  -2  -5  170.96    7.91
  -7  -2  -4  941.78   11.51
  -7  -2  -4 1009.75   15.21
  -7  -2  -3  663.23   10.78
   7  -2  -2  612.92   18.06
   7  -2  -1  572.47   17.26
   7  -2   0  729.26   19.02
   7  -2   1  562.16   17.10
   7  -2   1  581.39   11.11
   7   2   2  588.99    8.79
   7  -2   2  603.32   10.59
  -7  -2   2  653.21   13.76
   7  -2   2  616.36   17.90
   7  -2   3  655.91   18.74
   7  -2   3  680.34   10.26
  -7  -2   3  642.10   15.03
   7  -2   4 1005.06   23.70
  -7  -2   4  975.20   19.89
  -7  -2   5  192.52   10.28
   7  -2   5  172.38   11.17
  -7  -2   6 1254.32   25.60
   7  -2   6 1237.32   27.47
   7  -2   7   20.23    6.59
   7   2   7   17.98    3.85
   7   2   8   20.98    3.88
  -7  -2   8   21.10    6.37
   7   2   9  188.15    8.39
  -7  -2   9  185.02   12.89
  -7   2   9  198.46   13.50
  -7   2  10  142.49   12.26
  -7  -2  10  155.39   12.75
  -7  -2  11   36.96    8.13
  -7   2  11   28.27    8.21
  -7   3 -17  179.03   18.91
  -7  -3 -16  -12.71   10.29
  -7   3 -16   22.49   11.10
  -7  -3 -15  135.84   10.68
  -7   3 -15  125.60   15.69
   7   3 -15   92.19   14.46
  -7  -3 -15  109.14   13.49
  -7   3 -14   12.07    9.93
  -7  -3 -14   15.00    5.56
   7   3 -14    2.68    9.43
  -7  -3 -14    1.97    8.60
  -7   3 -13  121.71   14.80
   7   3 -13  106.67   13.64
  -7  -3 -13   91.88   11.43
  -7  -3 -12   60.75    9.73
  -7   3 -12   77.23   13.03
   7   3 -12   53.89   11.05
  -7  -3 -12   87.37    8.10
   7  -3 -11  498.94   19.57
  -7   3 -11  497.87   23.34
  -7  -3 -11  485.60   15.96
  -7   3 -11  504.47   22.79
  -7  -3 -11  491.40   20.05
   7   3 -11  499.76   24.07
  -7  -3 -10   38.33    7.49
   7  -3 -10   49.55    7.37
  -7  -3 -10   50.14    5.86
  -7   3 -10   35.35    7.67
  -7   3 -10   41.94   10.31
   7   3 -10   45.28    8.97
  -7   3  -9  688.40   25.19
   7  -3  -9  709.36   21.72
  -7  -3  -9  691.69   16.03
  -7   3  -9  712.07   25.86
   7   3  -9  665.81   24.46
  -7  -3  -9  693.20   20.32
   7  -3  -8  182.79   11.15
  -7   3  -8  199.22   13.87
   7   3  -8  180.60   13.45
  -7  -3  -8  189.10    7.85
  -7  -3  -8  188.05   10.54
  -7   3  -8  184.75   14.07
   7  -3  -7  849.30   22.09
  -7  -3  -7  838.07   13.67
   7   3  -7  883.24   24.99
  -7  -3  -7  852.97   18.85
   7  -3  -6  134.26    9.03
  -7   3  -6  148.39    4.41
   7   3  -6  140.30   10.30
  -7  -3  -6  119.04    4.54
  -7  -3  -6  143.19    8.01
   7  -3  -5  216.17   10.50
   7   3  -5  226.49   11.55
  -7  -3  -5  245.84    8.20
   7  -3  -4  379.59   13.22
   7  -3  -4  376.28   16.27
   7   3  -4  387.60   13.53
  -7  -3  -4  387.19    8.44
   7  -3  -3 1803.70   26.78
   7  -3  -3 1926.59   34.46
  -7  -3  -3 1811.09   13.42
   7  -3  -2  136.94   10.00
   7  -3  -2  118.19    7.39
   7  -3  -1  743.60   16.27
   7  -3  -1  770.19   21.36
   7  -3   0 1484.59   21.58
  -7  -3   0 1414.65   12.22
   7  -3   0 1412.93   28.89
   7  -3   1  767.99   15.08
  -7  -3   1  735.19   11.55
   7  -3   1  745.82   21.46
  -7  -3   2  117.70    6.30
   7  -3   2  126.69    9.86
  -7  -3   3 1765.59   23.73
   7  -3   3 1877.29   34.04
  -7  -3   4  376.13   12.57
   7  -3   4  349.66   15.97
   7  -3   5  230.96   13.65
  -7  -3   5  231.28   10.95
   7  -3   6  127.89   10.85
  -7  -3   6  129.31    9.45
   7  -3   7  899.19   26.02
  -7  -3   8  202.18   12.80
   7   3   8  182.03    9.44
   7   3   9  723.89   18.04
  -7   3   9  736.67   25.21
  -7  -3   9  683.17   23.51
   7   3  10   40.79    5.51
  -7  -3  10   61.76    9.33
  -7   3  10   46.05    8.62
   7   4 -17   14.88   10.02
  -7   4 -17   42.69   13.43
   7   4 -16   50.52   13.31
  -7   4 -16   80.29   14.43
  -7   4 -15   24.83   11.50
   7   4 -15  -18.18   12.47
  -7   4 -14   74.76   14.13
   7   4 -14   31.98   11.63
   7   4 -13  161.34   17.46
  -7   4 -13  183.89   17.49
  -7   4 -12  271.50   19.66
  -7  -4 -12  262.97   11.84
   7   4 -12  245.14   18.87
  -7  -4 -11   90.08    7.06
  -7   4 -11   82.11   12.23
   7   4 -11   68.59   11.54
  -7   4 -10   58.62    3.02
  -7   4 -10   72.43   11.79
  -7  -4 -10   74.34    5.92
   7   4 -10   54.85    9.91
  -7   4  -9   71.36   11.29
   7  -4  -9   70.30    8.55
  -7  -4  -9   74.81    5.24
  -7   4  -9   62.82    3.49
  -7   4  -9   81.47   10.40
   7   4  -9   55.03    9.42
  -7   4  -8  249.99    6.97
   7  -4  -8  265.08   13.96
  -7  -4  -8  237.67    7.20
  -7   4  -8  268.95   16.97
   7   4  -8  243.52   14.86
  -7   4  -8  236.15   15.86
  -7   4  -7  552.84   10.61
   7   4  -7  552.88   20.06
   7  -4  -7  553.17   19.07
  -7   4  -6 1048.09   15.23
   7  -4  -6 1058.94   25.23
   7  -4  -6 1022.15   29.01
   7   4  -6  993.28   24.61
  -7   4  -5  131.54    6.20
   7  -4  -5  113.10    8.72
   7  -4  -5  113.02   10.90
   7   4  -5  123.73    9.23
   7  -4  -4   86.13    7.56
  -7   4  -4   93.24    5.63
   7  -4  -4   82.09    9.06
   7   4  -4   77.98    7.03
   7  -4  -3  449.96   14.94
  -7   4  -3  472.45   12.12
   7  -4  -3  447.30   18.07
   7   4  -3  471.56   13.47
   7  -4  -2  362.03   16.28
   7  -4  -2  379.31   13.50
  -7   4  -2  368.41   11.26
   7   4  -2  351.26   10.34
   7  -4  -1   -3.78    6.64
   7  -4  -1    2.11    3.59
  -7   4  -1    6.80    3.89
  -7   4   0  786.16   17.40
   7  -4   0  759.78   23.14
   7   4   0  751.10   14.02
   7   4   1    7.92    2.46
   7  -4   1   11.14    6.83
  -7  -4   2  352.23    9.66
   7  -4   2  370.42   16.86
   7  -4   3  447.81   18.73
  -7  -4   3  460.59   12.48
  -7  -4   4   85.09    6.82
   7  -4   4   89.14    9.71
  -7  -4   5  133.69    8.75
   7  -4   5  115.31   11.27
   7  -4   6  985.14   28.43
   7  -4   7  542.86   22.02
   7   4   8  246.68   11.90
  -7  -4   8  268.96   14.87
   7   4   9   71.70    7.09
  -7  -4   9   73.57    9.52
   7   4   9   60.83    6.78
   7   4  10   66.19    7.54
   7   4  10   53.81    7.01
  -7  -4  10   70.21    9.63
  -7   4  10   66.95    9.20
   7   4  11   97.36    9.23
   7   4  11   97.09    8.56
   7   4  12  266.37   13.94
   7   5 -17  -27.59   14.01
  -7   5 -16  183.31   19.36
   7   5 -16  189.51   19.34
  -7   5 -15    8.96   10.84
   7   5 -15   -8.61   11.31
   7   5 -14  275.65   21.79
  -7   5 -14  333.21   23.17
  -7   5 -13    7.59    1.58
  -7  -5 -13   18.93    4.73
  -7   5 -13    4.15    9.07
   7   5 -13    2.82   10.11
  -7   5 -12  336.74   21.84
   7   5 -12  295.39   20.30
  -7  -5 -12  311.32   11.44
   7   5 -11   28.66    9.98
  -7  -5 -11   40.39    4.68
  -7   5 -11   27.91   11.08
  -7   5 -10  583.87   26.27
  -7  -5 -10  544.35   12.30
   7   5 -10  607.80   25.08
   7   5  -9   -1.52    8.01
  -7   5  -9    5.18    9.10
  -7  -5  -9   12.59    2.37
  -7  -5  -9    8.08    2.17
  -7   5  -8  151.19    6.98
   7  -5  -8  134.92   12.87
   7  -5  -8  143.64   11.11
  -7   5  -8  167.48   14.14
   7   5  -8  152.13   12.35
   7  -5  -7   26.45    5.97
  -7   5  -7   25.93    3.89
   7  -5  -7   30.48    7.69
  -7   5  -7   26.00    6.84
   7   5  -7   33.72    7.61
  -7   5  -6  834.05   16.78
   7  -5  -6  854.71   27.71
   7  -5  -6  788.96   23.39
  -7   5  -6  861.49   28.91
   7   5  -6  821.64   22.68
  -7   5  -5   91.07    6.41
   7  -5  -5   99.91   10.45
   7  -5  -5   98.66    8.87
   7   5  -5   90.43    8.27
   7  -5  -4 1832.44   33.51
  -7   5  -4 1819.00   26.09
   7  -5  -4 1790.51   38.10
   7   5  -4 1804.12   28.30
   7   5  -3   25.15    4.78
   7  -5  -3   34.77    7.97
   7   5  -3   27.04    5.57
  -7   5  -3   20.91    4.32
  -7   5  -2  810.05   18.51
   7   5  -2  790.71   19.09
   7   5  -2  777.26   15.33
   7  -5  -2  791.85   25.06
   7  -5  -1    4.89    6.56
  -7   5  -1    3.51    4.65
  -7   5  -1    2.77    3.94
   7   5  -1    3.50    3.70
   7   5  -1   -4.63    3.35
  -7   5   0 2287.55   41.34
   7   5   0 2281.19   27.84
   7  -5   0 2239.19   42.25
  -7   5   1   -0.90    4.82
   7   5   1    4.17    2.58
   7  -5   1    4.79    7.11
  -7   5   2  820.98   25.03
   7  -5   2  790.38   25.71
   7   5   2  765.16   11.80
   7  -5   3   24.08    7.47
   7  -5   4 1866.05   40.13
   7  -5   5   83.56   10.58
  -7  -5   5   82.59    7.34
   7  -5   6  825.77   27.62
  -7  -5   7   29.83    6.45
   7  -5   7   29.32    8.21
   7   5   7   33.86    4.31
   7   5   8  144.33   10.32
  -7  -5   8  140.51   11.34
   7   5   8  147.77    8.24
   7  -5   8  144.82   13.82
  -7  -5   9    9.68    5.98
   7   5   9    9.60    5.19
   7   5   9   14.72    4.57
   7   5  10  589.29   20.02
  -7  -5  10  626.53   23.59
   7   5  10  595.34   17.88
   7   5  11   36.57    7.19
   7   5  11   36.17    6.06
   7   5  12  291.92   15.31
   7   5  12  320.86   15.01
   7   5  13   16.98    6.21
   7   6 -16   12.46   10.78
  -7   6 -15   41.62   13.12
   7   6 -15    9.20   10.72
  -7   6 -14  128.14   16.81
   7   6 -14   96.24   14.17
  -7   6 -13  113.03   15.21
   7   6 -13   93.47   13.67
   7   6 -12    3.90    8.97
  -7   6 -12    3.09    8.42
  -7  -6 -12    4.65    2.78
   7  -6 -12  -13.95    9.47
   7   6 -11  120.67   14.07
  -7  -6 -11  122.46    6.36
   7  -6 -11  124.29   14.03
  -7  -6 -11  132.06    5.94
  -7   6 -11  140.88   15.86
   7   6 -10   -2.22    8.45
  -7  -6 -10    7.49    2.05
  -7  -6 -10   11.77    2.13
   7  -6 -10    0.70    6.98
  -7   6 -10   -0.55    9.90
   7  -6  -9  474.93   23.83
  -7   6  -9  477.54   23.98
   7   6  -9  479.27   21.64
  -7   6  -8    0.96    3.40
   7   6  -8    3.85    6.84
   7   6  -8    6.61    5.55
   7  -6  -8    9.67    7.04
  -7   6  -7  124.53    7.85
   7  -6  -7  106.97   11.58
   7   6  -7  107.88   10.76
   7   6  -7  112.94   10.72
   7   6  -6    1.38    5.77
  -7   6  -6    2.58    3.61
   7  -6  -6    3.58    6.01
   7   6  -6    4.05    5.38
  -7   6  -6    8.25    5.81
   7  -6  -5  164.87   13.44
  -7   6  -5  172.75    9.36
   7   6  -5  172.51   12.11
  -7   6  -5  187.31   14.51
   7   6  -5  181.10   10.87
   7  -6  -4  207.14   14.80
   7   6  -4  234.61   13.41
  -7   6  -4  220.90   15.78
   7   6  -4  236.84   11.27
   7   6  -3  412.99   16.64
   7   6  -3  423.96   13.14
   7  -6  -3  414.76   19.84
  -7   6  -3  429.40   20.89
   7  -6  -2   88.96   10.60
  -7   6  -2  106.44   10.99
   7   6  -2   99.96    8.41
   7   6  -2   95.42    6.28
  -7   6  -1  126.09   11.62
   7   6  -1  120.44    8.59
   7   6  -1  124.76    5.77
   7  -6  -1  115.72   11.50
  -7   6   0  220.35   11.84
  -7   6   0  215.55   14.50
   7   6   0  222.19   10.37
   7   6   0  204.37    5.41
   7  -6   0  231.58   15.16
  -7   6   1  122.27    9.78
  -7   6   1  131.40   11.43
   7  -6   1  133.90   12.30
   7   6   1  134.59    7.38
   7   6   2   92.70    5.46
  -7   6   2   93.27    8.99
  -7   6   2   92.93   10.02
   7  -6   2   90.32   10.91
  -7   6   3  450.80   17.72
   7  -6   3  390.21   20.28
   7  -6   4  230.17   15.88
   7  -6   5  183.99   14.95
   7  -6   6    0.17    7.38
   7  -6   7  137.54   13.88
   7   6   7  117.30    6.03
   7   6   8   -2.75    5.72
   7  -6   8    4.14    6.87
   7   6   8    4.53    3.35
   7   6   9  473.91   14.39
   7   6   9  469.15   19.10
   7   6  10    7.08    5.70
   7   6  10   10.57    4.51
   7   6  11  145.38   12.18
   7   6  11  130.44    9.13
   7   6  12    6.68    5.67
   7   6  12    7.89    4.92
   7   6  13  111.47   10.83
   7  -7 -17   10.20    7.75
   7  -7 -16   16.72    8.41
   7  -7 -15   58.23   12.38
   7   7 -15   67.41   14.17
  -7   7 -14  121.89   17.42
   7  -7 -14   79.67   12.93
   7   7 -14  103.50   14.96
   7   7 -13   71.35   12.93
   7  -7 -13   60.54   11.80
  -7   7 -13   96.85   15.81
   7   7 -12   79.46   13.38
  -7   7 -12   90.45   15.41
   7  -7 -12   94.11   13.29
   7  -7 -11  160.43   16.31
  -7   7 -11  179.05   18.29
   7   7 -11  165.69   15.76
   7  -7 -10  227.80   18.13
  -7   7 -10  252.52   19.95
   7   7 -10  231.90   17.38
   7  -7  -9  451.23   23.99
  -7   7  -9  465.50   24.39
   7   7  -9  473.46   22.23
   7  -7  -8  235.91   17.20
   7   7  -8  245.52   15.82
   7  -7  -7  467.19   22.97
   7   7  -7  486.62   21.17
   7   7  -7  490.44   19.96
   7  -7  -6  375.73   20.48
   7   7  -6  399.85   19.01
   7   7  -6  386.94   16.54
   7  -7  -5   27.38    7.67
   7   7  -5   37.83    7.02
   7   7  -5   49.84    8.44
   7   7  -4  401.65   14.78
  -7   7  -4  418.89   15.95
   7   7  -4  423.52   18.52
   7  -7  -4  420.53   21.31
   7   7  -3  235.17   10.45
  -7   7  -3  213.69   11.95
   7   7  -3  234.07   14.00
   7  -7  -3  215.18   15.78
  -7   7  -3  223.34   16.15
   7   7  -2  108.29    6.78
  -7   7  -2   97.62   11.06
  -7   7  -2   88.98    8.74
   7   7  -2   95.84    9.03
   7  -7  -2   97.28   11.75
  -7   7  -1  325.07   15.00
   7   7  -1  319.26   14.36
   7  -7  -1  296.17   18.05
  -7   7  -1  343.85   18.77
   7   7  -1  327.36    9.36
  -7   7   0  361.48   16.09
   7  -7   0  325.82   18.88
   7   7   0  331.89   13.66
   7   7   0  325.41    7.62
  -7   7   0  333.55   18.34
  -7   7   1  329.26   15.72
  -7   7   1  343.90   18.54
   7  -7   1  310.98   19.18
   7   7   1  324.64   12.61
  -7   7   2  107.60   10.23
  -7   7   2   99.34   11.03
   7  -7   2   86.59   11.78
   7   7   2   99.42    6.59
  -7   7   3  239.69   14.50
   7  -7   3  209.66   16.10
   7  -7   4  392.18   21.64
  -7   7   4  435.28   18.71
   7  -7   5   36.80    9.82
   7  -7   6  378.20   21.96
   7   7   7  464.23   10.28
   7  -7   7  453.35   23.80
   7   7   8  248.68   15.51
   7   7   8  237.43    8.76
   7  -7   8  243.16   18.73
   7   7   9  444.52   20.17
   7   7   9  463.55   13.23
   7   7  10  232.10   15.35
   7   7  10  269.66   11.11
   7   7  11  154.03   13.39
   7   7  12   96.32   11.44
   7   7  13   68.45   10.29
   7  -8 -16   62.30   11.95
   7  -8 -15   -7.40    8.08
   7   8 -15    0.32   10.17
   7  -8 -14  119.46   14.93
   7   8 -14   96.72   14.41
   7   8 -13    1.22    9.28
   7  -8 -13   -3.69    7.05
  -7   8 -13   13.30   11.85
   7   8 -12  130.37   14.99
  -7   8 -12  123.96   17.01
   7  -8 -12  118.31   14.46
   7   8 -11   23.81    9.42
  -7   8 -11   27.42   11.53
   7  -8 -11   34.42    9.82
   7  -8 -10  116.23   14.57
  -7   8 -10  125.21    9.30
  -7   8 -10  115.58   15.56
   7   8 -10  119.06   13.50
   7   8  -9   69.52   10.83
  -7   8  -9   48.98    6.72
  -7   8  -9   54.33   11.73
   7  -8  -9   49.37   10.17
   7  -8  -8  217.16   17.71
  -7   8  -8  180.77   11.51
   7   8  -8  200.93   14.90
  -7   8  -7  176.94   11.57
   7  -8  -7  167.22   15.64
   7   8  -7  173.43   13.50
   7   8  -6  307.67   15.73
  -7   8  -6  301.82   14.71
   7  -8  -6  318.13   20.11
   7  -8  -5   28.85    8.70
   7   8  -5   32.29    7.41
  -7   8  -5   20.93    5.87
   7   8  -5   31.69    7.10
   7   8  -4  269.34   12.85
  -7   8  -4  257.25   13.97
   7   8  -4  250.97   15.21
   7  -8  -4  237.66   17.80
  -7   8  -3    3.96    5.25
   7   8  -3   10.37    5.20
   7   8  -3    0.06    5.65
   7  -8  -3    8.56    7.55
   7   8  -2  174.67    8.82
   7   8  -2  170.94   12.20
   7  -8  -2  177.25   15.38
  -7   8  -2  158.90   11.67
  -7   8  -1   -0.55    5.85
   7   8  -1    4.61    3.44
   7  -8  -1    6.40    7.77
   7   8  -1    1.81    4.91
   7   8   0  798.94   12.75
   7  -8   0  810.12   30.51
  -7   8   0  805.87   25.04
   7   8   0  810.40   22.52
  -7   8   1   -2.05    6.32
   7   8   1   -1.44    4.20
  -7   8   1   -0.99    5.97
   7  -8   1   -9.05    9.16
   7   8   2  172.83    9.46
  -7   8   2  188.10   13.55
  -7   8   2  160.36   13.71
   7  -8   2  172.37   16.15
  -7   8   3    5.09    6.66
   7  -8   3    6.35    8.83
   7  -8   4  269.86   19.14
  -7   8   4  268.25   16.27
  -7   8   5   28.38    8.26
   7  -8   5   39.30   10.56
   7  -8   6  314.96   20.69
   7  -8   7  188.71   17.08
   7   8   8  184.80   14.60
   7   8   9   59.25    9.83
   7   8  10  121.05   12.46
   7   8  11   29.56    8.21
   7   8  12  129.37   12.79
   7   8  13    8.17    6.91
   7   8  14  130.67   12.52
   7   9 -14  -17.66   11.13
   7  -9 -14   20.19    8.62
   7   9 -13  100.89   14.29
   7  -9 -13   87.61   12.55
  -7   9 -12   20.93   10.49
   7  -9 -12   20.08    8.62
   7   9 -12   18.50    8.84
   7  -9 -11   70.60   11.59
   7   9 -11   54.91   11.01
  -7   9 -11   42.97   12.31
   7   9 -10   25.38    9.14
  -7   9 -10    9.44    4.84
  -7   9 -10   17.80   10.15
   7  -9 -10   16.04    8.76
   7  -9  -9   72.98   12.02
  -7   9  -9   84.07    8.66
   7   9  -9  102.13   12.49
  -7   9  -9   90.99   13.77
   7  -9  -8   -2.54    7.56
  -7   9  -8   -1.45    4.79
   7   9  -8    4.78    7.50
  -7   9  -8    0.36    8.99
   7  -9  -7   84.67   12.81
  -7   9  -7  100.37    9.79
   7   9  -7  100.46   10.93
   7   9  -6   26.33    7.53
  -7   9  -6    7.69    5.84
   7  -9  -6   26.86    8.91
   7   9  -5  126.36   10.39
  -7   9  -5  121.47   10.94
   7  -9  -5  127.36   14.58
   7   9  -4   33.76    6.93
  -7   9  -4   22.74    6.92
   7  -9  -4   22.82    9.11
   7   9  -4   14.58    6.22
  -7   9  -3  377.39   17.97
   7   9  -3  376.23   17.98
   7  -9  -3  355.79   22.06
   7   9  -3  365.92   14.05
  -7   9  -2  116.03   11.13
   7   9  -2  132.09    8.19
   7  -9  -2  118.65   13.94
   7   9  -2  115.20   10.31
   7   9  -1  268.08    9.59
  -7   9  -1  248.16   15.74
   7  -9  -1  254.77   19.24
   7   9  -1  267.05   14.57
   7   9   0    8.98    4.74
  -7   9   0    6.76    6.41
   7   9   0    3.70    2.39
   7  -9   0    1.30    8.21
   7   9   1  267.94   12.89
  -7   9   1  275.45   16.67
   7  -9   1  275.12   19.91
   7   9   1  234.96    5.27
  -7   9   2  124.71   12.40
   7   9   2  115.06    8.39
   7  -9   2  115.30   14.66
  -7   9   3  383.24   19.83
   7  -9   3  344.11   22.31
  -7   9   4   28.09    8.31
   7  -9   4   31.42   10.24
  -7   9   5  133.77   13.23
   7  -9   5  117.83   14.99
   7  -9   6   22.44    9.92
   7  -9   7   88.86   13.95
   7   9   8   -5.61    7.65
   7   9   9   95.26   12.15
   7   9  10   12.69    7.55
   7   9  11   52.33    9.92
   7   9  12   23.36    8.30
   7   9  13   91.59   11.45
   7   9  14   23.16    8.46
   7  10 -13   79.39   12.98
   7  10 -12    1.34    8.76
   7 -10 -12   -3.92    7.70
  -7  10 -11  177.63   18.33
   7  10 -11  183.86   16.13
   7 -10 -11  187.51   17.15
   7 -10 -10   11.89    7.77
   7  10 -10   24.28    8.76
  -7  10 -10   18.54   10.11
  -7  10  -9  279.49   21.69
  -7  10  -9  283.43   15.30
   7 -10  -9  278.95   20.24
   7  10  -9  289.09   17.95
  -7  10  -8   22.86    6.69
   7  10  -8   36.88    8.82
  -7  10  -8   30.84   10.67
   7 -10  -8   38.58   10.23
  -7  10  -7  356.76   17.95
   7 -10  -7  354.40   23.67
   7  10  -7  386.24   18.50
  -7  10  -6    6.50    6.02
   7  10  -6   15.81    7.08
   7 -10  -6   17.66    8.68
   7  10  -5  389.50   16.80
  -7  10  -5  364.74   18.84
   7 -10  -5  390.51   23.93
  -7  10  -4   -1.52    6.27
   7  10  -4    9.94    5.47
   7 -10  -4    7.06    8.99
   7  10  -3  315.04   13.02
   7 -10  -3  292.30   21.09
  -7  10  -3  261.23   16.62
   7  10  -2   30.90    5.17
  -7  10  -2   14.80    6.95
   7 -10  -2   19.62    9.15
   7  10  -2   19.03    6.39
  -7  10  -1  464.31   22.00
   7 -10  -1  441.92   25.97
   7  10  -1  427.82   18.74
  -7  10   0    1.01    6.72
   7 -10   0   -9.83    9.68
  -7  10   1  453.29   22.27
   7 -10   1  416.15   25.42
   7 -10   2   27.05   10.08
  -7  10   2   46.08    9.90
  -7  10   3  310.70   19.46
   7 -10   3  261.68   21.02
  -7  10   4   13.22    8.03
   7 -10   4    7.58    9.35
  -7  10   5  384.30   21.69
   7 -10   5  350.10   24.47
   7 -10   6   13.42    9.56
   7  10   7  385.07   22.67
   7  10   8   15.41    8.40
   7  10   9  290.42   19.84
   7  10  10   32.35    9.15
   7  10  11  236.12   17.84
   7 -11 -10   51.72   10.68
  -7  11  -9   42.14   11.63
   7 -11  -9   28.60    9.14
  -7  11  -8   85.92   10.01
  -7  11  -8   68.85   12.73
   7 -11  -8   89.41   12.86
  -7  11  -7   16.10    6.02
   7 -11  -7   14.79    8.04
  -7  11  -7   20.83    9.62
  -7  11  -6  141.50   12.66
   7 -11  -6  184.05   17.52
  -7  11  -5   10.32    6.47
   7 -11  -5   13.43    8.07
  -7  11  -4  117.74   12.40
   7 -11  -4  122.98   15.15
  -7  11  -3   -0.09    6.37
   7 -11  -3    5.03    7.90
  -7  11  -2   23.95    8.02
   7 -11  -2   37.74   10.22
   7 -11  -1    4.29    8.03
  -7  11  -1   -0.31    6.51
  -7  11   0  122.98   13.62
   7 -11   0  129.02   15.81
  -7  11   1    8.86    7.80
   7 -11   1   -1.18    8.36
  -7  11   2   31.64    9.25
   7 -11   2   32.73   10.74
  -7  11   3    1.17    7.05
   7 -11   3    1.30    9.18
  -7  11   4  126.41   13.94
   7 -11   4  155.09   17.24
  -7  11   5   32.17    9.85
   7 -11   5   28.99   11.12
   7  11   6  164.46   16.29
   7 -11   6  189.06   19.29
   7  11   7   16.11    9.42
  -7  12  -7   58.58    9.37
  -7  12  -7   59.31   11.99
   7 -12  -7   71.22   11.67
  -7  12  -6  108.43   11.83
   7 -12  -6  126.10   14.96
  -7  12  -5  120.59   12.40
   7 -12  -5  142.88   15.66
  -7  12  -4  154.78   14.20
   7 -12  -4  176.61   17.69
  -7  12  -3  156.29   14.56
   7 -12  -3  144.96   16.45
   7 -12  -2  163.22   17.30
  -7  12  -2  146.44   14.37
  -7  12  -1  238.63   17.56
   7 -12  -1  205.18   19.70
  -7  12   0  139.92   14.80
   7 -12   0  153.06   17.18
  -7  12   1  240.02   18.14
   7 -12   1  213.58   19.86
  -7  12   2  177.38   15.88
   7 -12   2  165.76   17.75
   7 -12   3  163.65   18.27
   7 -12   4  202.66   19.88
   7 -13  -3  126.20   15.44
   7 -13  -2   28.50   10.10
   7 -13  -1  170.92   17.72
   7 -13   0   21.25   10.15
  -8   0 -19    0.99    9.43
  -8   0 -18  122.27   15.95
  -8   0 -17    3.32   10.48
  -8   0 -16  121.76   15.04
  -8   0 -15    8.15   10.89
  -8   0 -14  329.74   19.88
  -8   0 -14  309.26   17.43
  -8   0 -13   -2.18    5.94
  -8   0 -13   10.45    8.78
  -8   0 -12  561.53   21.97
  -8   0 -12  550.26   22.93
  -8   0 -11    6.26    7.32
  -8   0 -11    2.16    5.36
  -8   0 -10 1205.11   29.90
  -8   0  -9   -5.99    6.72
  -8   0  -8 2239.71   36.69
  -8   0  -8 2215.19   35.63
  -8   0  -7   -2.58    4.37
  -8   0  -7   -3.66    6.25
  -8   0  -6  169.25   10.33
  -8   0  -6  163.85    9.52
  -8   0  -5   -0.74    3.39
  -8   0  -4  760.18   17.25
  -8   0  -3    1.89    3.28
  -8   0  -2 1461.40   22.59
   8   0   0  628.59   15.54
   8   0   1    5.43    3.97
   8   0   2 1481.12   22.87
   8   0   3    0.66    3.73
   8   0   4  792.06   17.60
   8   0   5   -0.42    3.89
   8   0   6  178.55    9.56
  -8   0  10 1237.25   32.13
  -8   0  11    6.16    6.55
  -8  -1 -19   11.95    9.76
  -8  -1 -18   14.50    9.87
  -8   1 -18   34.25   12.82
  -8  -1 -17   49.23   11.79
  -8   1 -17   48.66   12.50
  -8  -1 -16   20.34    9.78
  -8   1 -16   65.25   13.22
  -8   1 -15  203.67   17.76
  -8  -1 -15  192.32   14.14
  -8  -1 -15  163.96   15.93
  -8  -1 -14    3.13    5.79
  -8  -1 -14    7.02    8.61
  -8  -1 -13  219.79   16.08
  -8  -1 -13  215.31   14.07
  -8   1 -13  216.90   15.26
  -8   1 -13  245.60   17.69
  -8  -1 -12   48.60    7.56
  -8   1 -12   42.39   10.26
  -8   1 -12   40.38    8.14
  -8  -1 -12   54.81    9.96
  -8   1 -11   44.35    9.84
  -8   1 -11   46.38    8.37
  -8  -1 -11   53.07    9.30
  -8   1 -10  225.23   15.30
  -8  -1 -10  234.76   13.84
  -8   1 -10  235.58   14.70
  -8  -1 -10  213.89   12.26
  -8  -1  -9   29.32    7.15
  -8  -1  -9   21.50    5.10
  -8   1  -9   22.46    7.62
  -8  -1  -8  273.36   12.04
  -8   1  -8  291.24   15.15
  -8  -1  -8  270.20   13.20
  -8   1  -7  235.75   13.38
  -8  -1  -7  255.73   11.96
  -8  -1  -7  269.74   11.03
  -8   1  -7  271.76   13.46
  -8  -1  -6 1510.73   23.49
  -8   1  -6 1542.75   29.16
  -8  -1  -6 1528.81   25.59
  -8  -1  -5    3.11    4.63
  -8   1  -5    6.02    4.07
  -8  -1  -5    5.73    3.15
  -8  -1  -4   74.59    5.23
  -8   1  -4   66.63    6.73
  -8   1  -3  538.41   15.78
  -8  -1  -3  553.89   12.22
   8  -1  -1   30.84    5.31
   8  -1   0   14.53    4.95
   8   1   1   37.73    4.09
   8  -1   1   40.90    5.79
   8  -1   2  811.04   19.29
   8   1   2  761.40   14.13
   8   1   3  548.11   12.04
   8  -1   3  567.97   16.46
   8   1   4   74.37    5.29
   8  -1   4   75.95    7.62
  -8  -1   4   63.26    6.49
   8   1   5   10.62    3.59
   8  -1   5    7.29    5.15
   8  -1   6 1529.11   28.50
   8   1   7  254.30    7.66
   8  -1   7  275.50   13.41
   8   1   8  277.38    7.94
  -8  -1   9   36.32    7.85
  -8  -1  10  236.50   15.03
  -8   1  10  261.85   16.25
  -8  -1  11   44.13    9.06
  -8  -2 -19   26.85    9.72
  -8   2 -18   65.70   14.14
  -8  -2 -18   20.90    9.99
  -8   2 -17  103.03   15.68
  -8  -2 -17   74.02   13.09
  -8   2 -16   85.14   14.65
  -8  -2 -16  108.33   14.69
  -8  -2 -15  114.22   14.17
  -8   2 -15  132.78   15.25
  -8  -2 -15  109.98   10.35
  -8  -2 -14  248.83   14.19
  -8   2 -14  275.34   19.91
  -8  -2 -14  254.15   18.01
  -8  -2 -13  417.16   17.42
  -8   2 -13  400.08   22.47
  -8  -2 -13  420.18   20.66
  -8  -2 -12    6.13    7.36
  -8   2 -12    5.07    8.55
  -8   2 -12   -0.96    6.05
  -8  -2 -11  141.11   12.00
  -8  -2 -11  141.92   10.17
  -8   2 -11  126.51   12.19
  -8   2 -11  139.07   13.33
  -8  -2 -10  256.35   13.83
  -8  -2 -10  224.11   11.42
  -8   2 -10  234.94   16.00
  -8   2 -10  258.72   16.14
  -8   2  -9  188.39   14.44
  -8  -2  -9  197.03    9.97
  -8   2  -9  204.76   14.15
  -8  -2  -9  197.86   11.81
  -8  -2  -8   17.69    4.00
  -8   2  -8   16.53    7.33
  -8   2  -8   19.35    5.85
  -8  -2  -8   25.94    6.21
  -8  -2  -7  649.01   14.56
  -8  -2  -7  666.17   17.30
  -8  -2  -6  631.89   12.87
  -8  -2  -6  615.44   15.32
  -8  -2  -5  181.36    8.25
  -8   2  -5  185.74   11.46
  -8  -2  -5  189.87    6.55
  -8  -2  -4    4.89    1.81
  -8  -2  -4    5.59    3.51
   8  -2  -2 1225.54   26.38
   8  -2  -1 1074.55   24.31
   8  -2   0 1105.18   24.48
   8  -2   1 1112.91   24.63
   8   2   2 1216.47   14.47
   8  -2   2 1234.56   15.62
  -8  -2   2 1194.80   19.28
   8  -2   2 1186.80   25.63
   8  -2   3 1387.25   15.07
   8  -2   3 1380.24   27.88
  -8  -2   3 1344.82   22.34
   8   2   3 1342.99   14.07
  -8  -2   4    1.99    4.68
   8   2   4    6.88    2.10
   8  -2   4    1.96    5.55
   8  -2   5  185.95   11.90
  -8  -2   5  173.51   10.11
  -8  -2   6  624.27   18.76
   8  -2   6  597.35   20.04
   8  -2   7  651.14   21.47
   8   2   8   20.30    3.74
  -8  -2   8   29.71    7.10
   8   2   9  197.17    8.59
  -8  -2   9  203.38   13.55
  -8   2   9  180.88   13.50
   8   2  10  255.12    9.67
  -8  -2  10  258.66   15.48
  -8   2  10  269.81   16.18
  -8  -3 -17   23.77    9.48
  -8   3 -17   36.31   11.91
  -8   3 -16  158.40   18.45
  -8  -3 -16  108.06   13.87
  -8   3 -15    6.90   10.04
  -8  -3 -15    7.05    5.08
  -8  -3 -15   -7.32    9.25
  -8  -3 -14   59.47    7.61
  -8   3 -14   73.82   13.40
  -8  -3 -14   36.64    9.23
  -8   3 -13   21.72   10.10
  -8  -3 -13    4.52    7.70
  -8  -3 -12  274.51   12.96
  -8  -3 -12  256.13   16.09
  -8   3 -12  248.24   18.63
  -8  -3 -11   81.31    9.78
  -8   3 -11   98.76   13.03
  -8  -3 -11   93.23    7.81
   8   3 -11   47.49   10.60
  -8  -3 -10  269.12   11.21
   8  -3 -10  274.58   14.45
  -8   3 -10  266.61   17.03
   8   3 -10  230.09   16.14
  -8   3 -10  287.73   18.16
  -8  -3 -10  284.60   14.37
  -8   3  -9   25.09    9.08
  -8  -3  -9   27.73    6.39
   8  -3  -9   29.13    6.01
  -8  -3  -9   30.25    4.31
   8   3  -9   24.15    7.60
  -8   3  -9   33.82    7.73
  -8   3  -8  653.19   23.94
   8  -3  -8  687.62   21.05
  -8  -3  -8  656.73   13.84
   8   3  -8  678.05   23.77
  -8   3  -8  687.93   24.95
  -8  -3  -8  672.12   18.15
  -8  -3  -7   69.75    6.62
   8  -3  -7   71.25    7.31
  -8  -3  -7   60.71    4.13
  -8   3  -7   73.84    9.17
  -8  -3  -6  682.03   14.83
  -8  -3  -6  543.20    8.67
   8  -3  -6  626.96   18.66
  -8  -3  -5  494.80   11.28
   8  -3  -5  502.75   15.99
   8  -3  -4 1327.97   24.57
  -8  -3  -4 1293.81   14.98
   8  -3  -4 1323.68   30.54
   8  -3  -3 1438.51   24.51
   8  -3  -3 1494.77   31.69
  -8  -3  -3 1438.84   12.81
   8  -3  -2 1102.93   20.62
   8  -3  -2 1064.43   26.33
   8  -3  -1    8.75    3.54
  -8  -3  -1    2.68    1.76
   8  -3  -1    8.06    5.68
  -8  -3   0  511.03    8.71
   8  -3   0  494.02   13.04
   8  -3   0  500.88   18.35
   8  -3   1    8.68    3.30
  -8  -3   1   11.33    3.38
   8  -3   1   10.36    5.75
   8  -3   2 1090.63   17.28
  -8  -3   2 1084.39   17.04
   8  -3   2 1068.01   26.42
  -8  -3   3 1434.53   21.88
   8  -3   3 1455.69   31.18
  -8  -3   4 1283.98   22.70
   8  -3   4 1358.82   30.79
  -8  -3   5  494.47   15.57
   8  -3   5  499.34   19.48
   8  -3   6  654.71   22.36
  -8  -3   6  619.88   18.78
   8  -3   7   63.64    8.97
   8   3   8  652.44   16.94
   8  -3   8  652.62   23.43
  -8  -3   8  662.86   22.06
   8   3   9   27.57    4.94
  -8  -3   9   41.72    8.22
  -8   3   9   29.42    7.62
  -8   3  10  272.61   16.82
   8   3  10  283.15   11.83
  -8  -3  10  271.95   15.94
   8   3  11   99.54    7.88
  -8   4 -17   63.93   13.57
  -8   4 -16   43.70   13.51
  -8   4 -15   82.57   14.82
  -8   4 -14    8.42    9.11
   8   4 -14  -15.96   11.66
  -8  -4 -13   14.16    4.75
  -8   4 -13   12.14    9.35
   8   4 -13   -5.00   11.63
  -8   4 -12  199.37   17.99
  -8  -4 -12  179.96    9.74
   8   4 -12  152.19   15.79
  -8  -4 -11  309.53   11.60
  -8   4 -11  319.27   20.58
  -8  -4 -11  294.03   15.85
   8   4 -11  300.86   19.21
  -8   4 -10  187.64   16.15
  -8  -4 -10  157.30   11.23
   8   4 -10  160.56   14.12
  -8  -4 -10  175.21    8.16
   8  -4  -9   22.51    6.14
  -8  -4  -9   24.42    3.21
  -8  -4  -9   20.50    5.37
  -8   4  -9   21.30    8.78
  -8   4  -9   33.23    8.10
   8   4  -9   16.69    7.65
   8  -4  -8  139.74   10.69
  -8   4  -8  141.83    4.69
   8   4  -8  134.37   11.73
  -8  -4  -8  116.01    4.59
  -8  -4  -8  133.48    8.78
  -8   4  -8  139.63   12.74
   8  -4  -7  210.05   12.31
  -8   4  -7  214.73    6.34
  -8  -4  -7  194.90    9.00
   8   4  -7  181.19   12.48
  -8   4  -7  241.63   15.94
   8  -4  -6  257.40   13.18
  -8   4  -6  273.57    7.71
   8  -4  -6  240.49   15.41
   8   4  -6  255.20   13.53
  -8   4  -5  828.83   13.98
   8  -4  -5  773.25   21.24
   8  -4  -5  773.04   25.50
   8   4  -5  821.38   21.40
  -8   4  -4   42.55    4.26
   8  -4  -4   42.32    5.90
   8  -4  -4   24.72    6.85
   8   4  -4   16.32    4.48
   8  -4  -3  698.13   18.80
   8  -4  -3  689.88   22.96
   8  -4  -2  174.66    9.65
   8  -4  -2  173.02   12.22
   8  -4  -1  199.45    9.77
   8  -4  -1  169.95   12.05
   8  -4   0   17.48    6.72
   8  -4   0    7.81    3.87
   8   4   1  206.53    6.44
  -8  -4   1  182.72    6.09
   8  -4   1  203.62   13.24
  -8  -4   2  174.77    7.16
   8  -4   2  172.61   12.39
  -8  -4   3  654.35   14.92
   8  -4   3  700.01   23.63
   8  -4   4   33.23    7.46
  -8  -4   4   33.04    5.32
  -8  -4   5  787.51   19.62
   8  -4   5  790.36   26.03
   8  -4   6  267.49   16.24
   8  -4   7  197.94   14.44
  -8  -4   8  148.66   12.01
   8  -4   8  153.64   13.16
   8   4   9   22.11    5.37
  -8  -4   9   21.69    6.71
   8   4  10  185.84   10.82
  -8  -4  10  177.28   13.36
   8   4  11  299.63   13.71
   8   4  12  183.69   11.21
  -8   5 -16    3.72    9.87
   8   5 -16  -28.55   13.97
   8   5 -15  214.58   19.88
  -8   5 -15  243.26   21.22
  -8   5 -14   20.31   11.45
   8   5 -14    1.60   10.39
  -8   5 -13  529.64   27.95
   8   5 -13  497.85   26.90
  -8   5 -12   10.61    9.89
  -8  -5 -12    3.62    3.13
   8   5 -12    0.02    9.87
  -8   5 -11  102.86    4.04
  -8  -5 -11  114.77    6.21
  -8   5 -11  123.68   14.63
   8   5 -11  110.89   13.70
  -8   5 -10  162.69   16.03
  -8   5 -10  153.32    5.73
  -8  -5 -10  145.81    6.17
   8   5 -10  148.01   14.12
  -8   5  -9  663.75   27.22
  -8   5  -9  622.98   11.99
   8   5  -9  597.59   23.82
  -8   5  -8   71.77    4.89
   8  -5  -8   68.00   10.33
   8   5  -8   58.50    9.27
   8  -5  -7  341.86   15.96
  -8   5  -7  351.21   10.22
   8  -5  -7  363.46   19.38
   8   5  -7  336.87   16.45
  -8   5  -7  352.92   19.60
  -8   5  -6   49.24    4.78
   8  -5  -6   43.17    6.64
   8  -5  -6   52.25    9.17
  -8   5  -6   54.06    9.58
   8   5  -6   44.49    7.31
   8  -5  -5  903.58   24.41
  -8   5  -5  906.33   17.68
   8  -5  -5  882.97   28.09
   8   5  -5  905.43   22.37
  -8   5  -4   55.57    5.43
   8  -5  -4   55.88    7.08
   8  -5  -4   59.42    9.41
   8   5  -4   43.14    6.06
   8  -5  -3 1226.33   32.36
   8  -5  -3 1252.16   27.50
  -8   5  -3 1269.30   22.30
   8   5  -3 1303.53   22.41
   8  -5  -2   39.53    7.83
   8   5  -2   57.08    6.16
  -8   5  -2   47.58    5.37
   8   5  -1  880.51   18.88
   8  -5  -1  904.79   27.80
  -8   5   0   22.50    6.38
   8   5   0   30.80    4.26
   8  -5   0   28.53    8.13
  -8   5   1  920.04   27.41
   8   5   1  911.32   15.35
   8  -5   1  912.99   27.79
   8  -5   2   51.28    9.09
   8   5   2   39.39    2.82
   8  -5   3 1242.63   33.36
   8  -5   4   43.46    9.15
  -8  -5   4   47.76    5.72
   8  -5   5  878.30   28.96
  -8  -5   5  874.28   21.19
   8  -5   6   47.40    9.47
  -8  -5   7  356.22   15.99
   8  -5   7  324.55   18.65
   8  -5   8   67.77   10.88
  -8  -5   8   78.99    9.41
   8   5   9  591.40   19.98
  -8  -5   9  666.44   23.68
   8   5  10  156.48   11.06
  -8  -5  10  166.17   13.33
   8   5  11  116.33   10.33
   8   5  12    5.12    5.95
   8   6 -16   36.21   11.44
  -8   6 -15   57.43   13.86
   8   6 -15   38.97   12.33
  -8   6 -14  109.71   16.56
   8   6 -14   47.12   12.55
  -8   6 -13  126.59   17.03
   8   6 -13   99.41   14.67
  -8   6 -12  129.81    5.54
  -8   6 -12  131.66   16.31
   8   6 -12  106.64   14.31
   8  -6 -12  121.42   14.93
  -8  -6 -12  115.19    5.59
  -8   6 -11   11.34    2.88
  -8   6 -11   11.76    9.38
  -8  -6 -11    4.45    1.32
   8  -6 -11   -1.55    7.80
   8   6 -11   -8.02    9.76
  -8   6 -10  211.38    8.50
  -8   6 -10  176.73   16.39
   8  -6 -10  188.48   16.73
   8   6 -10  172.85   15.23
   8   6  -9    4.49    8.31
   8  -6  -9   11.72    7.73
  -8   6  -9    7.97    9.34
  -8   6  -9    8.43    3.33
   8  -6  -8  376.73   21.11
  -8   6  -8  369.06   12.00
   8   6  -8  364.23   18.13
   8   6  -7    1.75    7.34
   8   6  -7    4.22    5.94
  -8   6  -7    4.49    3.58
   8  -6  -7    3.19    6.60
  -8   6  -6  255.89   10.71
   8  -6  -6  269.45   17.41
   8   6  -6  274.78   15.28
   8   6  -6  257.56   13.91
  -8   6  -5    1.27    6.38
   8   6  -5   -2.89    5.92
  -8   6  -5    0.14    3.50
   8   6  -5    0.48    4.75
   8  -6  -5    4.88    6.45
   8  -6  -4  236.01   15.99
   8   6  -4  219.22   12.89
   8   6  -4  222.06   11.07
  -8   6  -4  225.20   15.79
  -8   6  -3  166.21   13.59
   8   6  -3  164.62   10.88
   8   6  -3  166.85    8.78
   8  -6  -3  156.26   13.32
   8  -6  -2   30.61    8.41
  -8   6  -2   25.56    6.85
   8   6  -2   28.78    5.57
   8   6  -2   26.06    3.98
  -8   6  -1  267.62   16.59
   8   6  -1  249.09   11.56
   8  -6  -1  248.14   16.28
  -8   6   0  628.43   19.02
  -8   6   0  599.07   23.81
   8   6   0  621.42   16.58
   8  -6   0  589.27   24.04
  -8   6   1  278.10   16.37
  -8   6   1  286.58   13.64
   8  -6   1  263.17   17.15
   8   6   1  260.77    9.54
   8   6   2   27.81    3.21
  -8   6   2   28.88    6.98
  -8   6   2   41.39    7.20
   8  -6   2   25.87    8.01
   8  -6   3  173.15   14.60
   8  -6   4  214.18   16.09
   8  -6   5    7.42    7.96
   8  -6   6  253.36   17.44
   8  -6   7   13.59    8.60
   8  -6   8  333.59   20.65
   8   6   9    4.93    5.59
   8   6  10  185.79   13.04
   8   6  11    9.61    6.16
   8   6  12  137.67   12.01
   8   6  13  124.88   11.71
   8  -7 -17   -5.71    9.33
   8  -7 -16   45.14   11.80
   8  -7 -15   35.74   10.17
   8   7 -15   29.82   11.24
   8  -7 -14   87.46   13.33
  -8   7 -14  110.46   15.91
   8   7 -14   55.46   12.98
  -8   7 -13   83.34   14.48
   8  -7 -13   82.09   13.30
   8   7 -13   68.07   13.06
   8  -7 -12  129.24   15.56
  -8   7 -12  147.25   17.19
   8   7 -12  115.97   14.70
  -8   7 -11  267.51   10.49
   8  -7 -11  251.05   20.06
   8   7 -11  251.86   18.85
  -8   7 -11  274.72   21.10
  -8   7 -10  338.62   22.60
  -8   7 -10  342.76   12.53
   8  -7 -10  336.20   22.45
   8   7 -10  327.32   20.03
  -8   7  -9  202.55   18.45
  -8   7  -9  211.13   10.48
   8   7  -9  201.51   15.59
   8  -7  -9  216.94   17.73
   8  -7  -8  516.77   25.59
   8   7  -8  535.39   22.04
   8  -7  -7  260.78   18.08
   8   7  -7  233.35   15.27
   8   7  -7  238.48   14.61
   8  -7  -6  123.34   13.35
   8   7  -6  122.57   11.49
   8   7  -6  125.56   10.64
   8  -7  -5  478.67   23.16
   8   7  -5  503.40   20.32
   8   7  -5  496.26   17.90
  -8   7  -4  284.57   13.24
   8   7  -4  298.68   15.81
   8   7  -4  302.56   12.96
   8  -7  -4  286.81   18.50
   8  -7  -3    3.22    6.94
   8   7  -3    4.69    4.36
  -8   7  -3    5.37    4.94
   8   7  -3    8.16    5.06
  -8   7  -2  187.53   14.69
  -8   7  -2  196.79   11.80
   8   7  -2  175.64   11.65
   8   7  -2  194.84    8.56
   8  -7  -2  190.04   15.40
  -8   7  -1  266.34   17.11
   8   7  -1  269.11   13.10
   8   7  -1  269.35    8.23
   8  -7  -1  258.75   17.40
  -8   7  -1  269.07   14.00
  -8   7   0  414.28   17.22
  -8   7   0  404.91   20.47
   8  -7   0  400.03   21.22
   8   7   0  391.48   14.33
  -8   7   1  302.26   15.09
  -8   7   1  271.21   16.90
   8  -7   1  277.38   18.08
   8   7   1  287.89   11.42
   8   7   2  189.46    8.34
  -8   7   2  216.44   13.58
  -8   7   2  218.28   15.31
   8  -7   2  180.83   15.37
  -8   7   3   15.31    6.96
   8  -7   3    0.65    8.18
   8  -7   4  268.75   18.45
   8  -7   5  468.63   23.99
   8  -7   6  120.33   14.02
   8  -7   7  209.88   17.92
   8  -7   8  500.88   25.63
   8   7   9  207.18   14.59
   8   7  10  325.23   17.75
   8   7  11  248.96   15.86
   8   7  12  126.10   11.93
   8   7  13   74.56    9.86
   8   7  14  105.16   10.71
   8  -8 -16   -2.91    7.49
   8  -8 -15   99.07   14.37
   8   8 -15   77.18   14.11
   8  -8 -14    5.71    7.49
   8   8 -14  -15.20   11.30
   8  -8 -13  192.66   18.18
  -8   8 -13  175.50   18.89
   8   8 -13  149.11   16.29
  -8   8 -12    8.50   10.08
   8   8 -12   -5.40    8.90
   8   8 -11   37.59    9.99
  -8   8 -11   53.95   12.18
   8  -8 -11   60.22   11.71
   8   8 -10   27.95    9.13
   8  -8 -10   38.68   10.61
  -8   8 -10   42.41   11.55
  -8   8  -9  221.80   19.04
   8  -8  -9  236.51   19.05
  -8   8  -9  231.66   12.15
   8   8  -9  218.05   16.44
   8  -8  -8  117.45   14.00
  -8   8  -8  132.38    9.86
   8   8  -8  119.71   12.87
   8  -8  -7  126.99   14.05
  -8   8  -7  113.86    9.45
   8   8  -7  128.32   11.68
  -8   8  -6  171.01   11.22
   8   8  -6  162.02   12.16
   8  -8  -6  157.36   15.26
   8   8  -5  298.78   16.49
  -8   8  -5  303.81   14.82
   8   8  -5  297.14   14.43
   8  -8  -5  300.90   19.81
   8   8  -4   11.82    5.50
  -8   8  -4    1.62    5.17
   8   8  -4   -2.32    5.39
   8  -8  -4    3.71    7.91
  -8   8  -3  390.31   17.02
   8   8  -3  371.09   17.58
   8   8  -3  432.97   14.48
   8  -8  -3  379.19   21.94
   8   8  -2   18.93    4.26
  -8   8  -2   26.06    6.91
   8   8  -2   16.83    5.66
   8  -8  -2   21.91    9.12
  -8   8  -1  388.60   17.37
   8  -8  -1  384.01   22.02
   8   8  -1  344.11   15.43
   8   8  -1  363.52    9.98
  -8   8   0   30.69    7.62
   8  -8   0   46.54   10.78
   8   8   0   30.22    6.06
  -8   8   1  371.46   17.71
   8  -8   1  352.74   21.74
   8   8   1  361.92   13.68
   8   8   2   24.44    4.12
   8  -8   2   12.43    7.78
  -8   8   3  398.92   18.89
   8  -8   3  361.73   22.26
   8  -8   4    3.03    8.30
   8  -8   5  291.40   20.20
   8  -8   6  165.67   16.72
   8  -8   7  130.54   15.60
   8   8   8  101.87   11.58
   8  -8   8  134.99   16.05
   8   8   9  227.26   16.19
   8   8  10   31.81    8.05
   8   8  11   42.37    8.69
   8   8  12    3.53    6.45
   8   8  13  174.58   14.09
   8   8  14    8.80    6.63
   8  -9 -14   89.38   13.73
   8   9 -14   59.15   12.39
   8  -9 -13   10.93    7.74
   8   9 -13   -4.35    9.23
   8  -9 -12   56.78   11.03
  -8   9 -12   75.63   15.03
   8   9 -12   49.45   11.22
   8   9 -11   -0.42    8.06
   8  -9 -11   16.15    8.16
  -8   9 -11   10.22   10.41
   8   9 -10   75.56   11.38
  -8   9 -10   76.00    7.68
   8  -9 -10   83.77   12.58
  -8   9 -10   69.58   13.85
   8   9  -9   -8.85    7.84
  -8   9  -9   -0.53    4.66
   8  -9  -9    6.73    8.12
  -8   9  -9    1.45    9.94
   8  -9  -8   80.53   12.58
   8   9  -8   87.65   11.17
  -8   9  -8   83.39    8.76
   8  -9  -7   10.24    8.04
   8   9  -7   13.92    6.97
  -8   9  -7   12.02    5.81
  -8   9  -6   94.19    9.63
   8   9  -6  109.86   10.39
   8  -9  -6   94.89   13.44
   8   9  -5   21.07    6.44
  -8   9  -5   10.34    5.71
   8  -9  -5   18.09    8.87
  -8   9  -4  178.68   12.91
   8   9  -4  173.70   13.29
   8  -9  -4  176.44   16.38
   8   9  -4  183.66   10.87
   8   9  -3   46.56    6.27
  -8   9  -3   43.60    7.82
   8   9  -3   45.04    7.57
   8  -9  -3   33.51    9.55
  -8   9  -2  336.24   17.49
   8  -9  -2  285.33   20.52
   8   9  -2  321.15   15.90
   8   9  -2  332.90   11.49
   8  -9  -1   38.35   10.51
   8   9  -1   37.35    6.57
  -8   9  -1   30.92    8.03
   8   9  -1   36.57    3.96
  -8   9   0  767.19   26.27
   8  -9   0  737.25   31.82
   8   9   0  753.35   21.80
   8   9   1   40.68    5.80
  -8   9   1   36.33    8.49
   8  -9   1   27.97    9.82
   8   9   2  348.31   12.77
   8  -9   2  291.70   21.17
  -8   9   2  313.61   17.74
  -8   9   3   57.03    9.79
   8  -9   3   61.41   12.57
  -8   9   4  176.31   14.53
   8  -9   4  163.15   17.17
   8  -9   5   24.78   10.15
   8  -9   6  117.34   14.80
   8  -9   7   24.97   10.46
   8   9   8  104.02   12.30
   8   9   9   -1.33    7.50
   8   9  10   84.67   11.55
   8   9  11   11.42    7.37
   8   9  12   59.93   10.40
   8   9  13    7.93    7.03
   8   9  14   86.56   11.31
   8 -10 -12  107.46   14.37
   8  10 -12  100.19   13.55
   8  10 -11   17.54    8.75
   8 -10 -11   -7.55    8.13
  -8  10 -10  249.25   21.08
   8  10 -10  206.89   16.24
   8 -10 -10  226.89   18.96
   8 -10  -9   10.56    7.56
   8  10  -9   15.25    8.40
  -8  10  -9    9.34    4.96
  -8  10  -9   21.51   11.20
  -8  10  -8  290.29   15.39
  -8  10  -8  287.25   21.59
   8  10  -8  271.21   16.73
   8 -10  -8  277.60   20.79
   8  10  -7   46.32    8.25
  -8  10  -7   37.89    7.59
   8 -10  -7   39.32   10.52
  -8  10  -6  373.80   18.40
   8 -10  -6  406.37   24.98
   8  10  -6  429.21   18.35
   8  10  -5    6.27    5.33
  -8  10  -5    6.39    5.85
   8 -10  -5   15.57    9.26
  -8  10  -4  495.24   21.69
   8 -10  -4  474.83   26.84
  -8  10  -3    0.90    6.06
   8 -10  -3    0.99    8.12
  -8  10  -2  191.06   14.50
   8 -10  -2  185.66   18.14
  -8  10  -1   45.06    9.17
   8 -10  -1   36.62   10.77
  -8  10   0  642.60   25.72
   8 -10   0  652.37   31.60
  -8  10   1   49.29    9.56
   8 -10   1   38.07   10.54
  -8  10   2  225.55   16.34
   8 -10   2  177.67   17.81
  -8  10   3   16.61    8.37
   8 -10   3    0.88    8.42
  -8  10   4  522.94   24.75
   8 -10   4  450.57   27.58
   8 -10   5   12.02    9.98
   8 -10   6  429.40   27.21
   8 -10   7   59.51   13.59
   8  10   7   37.60   10.08
   8  10   8  267.62   19.35
   8  10   9   29.89    9.68
   8  10  10  209.56   17.39
   8  10  11    1.79    7.88
   8 -11 -10   67.20   12.03
   8 -11  -9   69.99   12.11
  -8  11  -8   -3.16    5.62
  -8  11  -8    1.98    9.64
   8 -11  -8   -0.14    7.20
  -8  11  -7   70.98    9.35
   8 -11  -7   80.91   12.75
  -8  11  -6   40.13    8.13
   8 -11  -6   36.58   10.35
  -8  11  -5  169.23   13.70
   8 -11  -5  155.98   16.80
  -8  11  -4   -0.15    5.96
   8 -11  -4   -2.51    8.50
  -8  11  -3   94.79   11.63
   8 -11  -3   95.25   13.95
  -8  11  -2    7.12    7.07
   8 -11  -2   -5.79    9.17
  -8  11  -1   50.61    9.45
   8 -11  -1   58.31   12.41
  -8  11   0   11.89    7.62
   8 -11   0   -1.57    8.43
  -8  11   1   59.43   10.44
   8 -11   1   34.87   11.11
  -8  11   2    4.36    7.67
   8 -11   2    2.97    8.68
  -8  11   3  105.55   13.18
   8 -11   3   98.15   14.88
  -8  11   4    9.31    8.13
   8 -11   4   -5.67    9.56
   8 -11   5  188.49   19.04
   8 -11   6   50.48   12.35
   8 -12  -7   46.78   11.00
  -8  12  -6  115.64   12.00
   8 -12  -6   95.45   14.06
  -8  12  -5  155.04   13.89
   8 -12  -5  177.66   17.74
  -8  12  -4  169.59   14.24
   8 -12  -4  154.76   17.03
  -8  12  -3  109.85   12.35
   8 -12  -3  114.62   15.22
  -8  12  -2  152.22   14.22
   8 -12  -2  138.86   16.56
  -8  12  -1  139.29   13.97
   8 -12  -1  118.50   15.94
   8 -12   0  151.22   17.73
  -8  12   0  163.29   15.20
  -8  12   1  146.11   14.87
   8 -12   1  123.08   16.27
  -8  12   2  177.85   16.27
   8 -12   2  166.89   18.09
   8 -12   3  163.35   17.94
   8 -12   4  190.32   19.40
   8 -13  -3   10.76    8.77
  -9   0 -19   73.98   13.79
  -9   0 -18   -4.00   10.07
  -9   0 -17  203.66   18.94
  -9   0 -16    6.56    8.85
  -9   0 -15  171.14   16.45
  -9   0 -14    2.96    6.22
  -9   0 -14    9.28    9.28
  -9   0 -13  322.30   19.17
  -9   0 -13  328.65   17.48
  -9   0 -12   -1.59    7.66
  -9   0 -12   -1.71    5.61
  -9   0 -11  645.49   22.82
  -9   0 -11  656.77   23.91
  -9   0 -10   -2.00    6.59
  -9   0  -9 1941.47   36.45
  -9   0  -8   -2.41    5.91
  -9   0  -8   -1.23    4.25
  -9   0  -7 1662.40   30.53
  -9   0  -7 1647.10   29.78
  -9   0  -6    0.36    3.98
  -9   0  -5   70.78    6.67
  -9   0  -4   -2.80    3.79
  -9   0  -3  712.67   17.05
  -9   0  -2   -2.87    3.63
   9   0   0    3.64    3.82
   9   0   1 2122.09   29.05
   9   0   2   -0.52    4.09
   9   0   3  743.74   17.73
   9   0   4    0.51    3.83
   9   0   5   68.87    6.93
   9   0   6    3.02    4.32
   9   0   7 1472.58   11.82
  -9   0   9 2027.63   40.36
  -9   0  10   -4.02    6.08
  -9  -1 -19   17.36   10.50
  -9  -1 -18   12.12   10.39
  -9   1 -18   46.32   12.82
  -9  -1 -17    3.78    9.40
  -9   1 -17   19.61   10.08
  -9  -1 -16   71.58   12.48
  -9   1 -16   74.39   13.50
  -9  -1 -15   36.63   10.85
  -9  -1 -15   20.29    6.61
  -9   1 -15   39.30   11.19
  -9  -1 -14  422.30   22.02
  -9   1 -14  402.90   22.58
  -9  -1 -14  386.14   18.58
  -9   1 -13   12.66    9.14
  -9  -1 -13   13.51    8.49
  -9  -1 -13   11.25    5.73
  -9   1 -13    5.08    6.24
  -9  -1 -12  121.17   10.56
  -9   1 -12  108.06   11.30
  -9  -1 -12  126.16   12.36
  -9   1 -12  127.11   13.32
  -9   1 -11  218.08   15.85
  -9  -1 -11  209.33   14.10
  -9   1 -11  194.13   14.24
  -9  -1 -10   21.25    7.33
  -9   1 -10   21.29    8.17
  -9  -1 -10   20.22    5.47
  -9   1 -10   21.04    6.41
  -9  -1  -9   94.14    8.34
  -9   1  -9  105.91   11.21
  -9  -1  -9  102.35    9.73
  -9   1  -8   69.18    9.17
  -9  -1  -8   83.46    7.23
  -9  -1  -8   81.49    8.65
  -9  -1  -7  513.71   16.49
  -9  -1  -7  515.36   15.26
  -9   1  -7  518.66   18.41
  -9  -1  -6  398.56   13.76
  -9   1  -6  409.95   15.89
  -9  -1  -6  386.72   12.72
  -9   1  -5  480.45   16.59
  -9  -1  -5  479.10   12.94
  -9   1  -4    7.75    4.33
  -9  -1  -4   14.71    3.47
  -9   1  -3  240.97   11.29
  -9  -1  -3  224.11    8.56
  -9   1  -2 1084.11   22.79
   9  -1  -1   63.18    7.04
   9  -1   0   12.12    4.92
   9  -1   1   64.88    7.19
   9   1   1   62.05    5.31
   9   1   2 1048.32   18.06
   9  -1   2 1063.07   23.31
   9  -1   3  235.50   11.69
   9   1   3  236.54    8.91
   9   1   4   11.24    3.47
   9  -1   4    5.08    4.85
   9  -1   5  446.44   16.33
  -9  -1   5  452.87   15.90
   9   1   5  482.91   12.80
   9  -1   6  398.33   15.66
   9  -1   7  522.78   18.29
   9   1   8   84.31    4.76
  -9  -1   8   93.55   10.27
  -9  -1   9  124.57   11.55
  -9   1  10   24.75    7.75
  -9  -1  10   35.76    8.65
  -9  -2 -19   13.24    9.23
  -9   2 -18  125.83   16.92
  -9  -2 -18   68.36   12.68
  -9   2 -17   30.91   11.18
  -9  -2 -17    4.36    9.47
  -9   2 -16  147.55   17.07
  -9  -2 -16  135.96   15.31
  -9  -2 -15  140.75   11.88
  -9   2 -15  153.15   17.19
  -9  -2 -15  131.76   14.81
  -9   2 -14  100.68   14.36
  -9  -2 -14  103.07    9.98
  -9  -2 -14  100.32   12.85
  -9  -2 -13  153.23   11.06
  -9   2 -13  169.86   16.01
  -9  -2 -13  144.84   13.52
  -9   2 -12  398.95   21.69
  -9  -2 -12  426.56   19.58
  -9   2 -12  411.61   20.53
  -9  -2 -11   86.58   10.49
  -9   2 -11   81.25   11.69
  -9  -2 -11   83.51    8.27
  -9   2 -11   85.15   10.44
  -9  -2 -10  195.17   12.61
  -9  -2 -10  190.53   10.73
  -9   2 -10  211.53   14.88
  -9   2 -10  183.05   15.01
  -9  -2  -9   54.79    6.15
  -9   2  -9   45.97    8.06
  -9  -2  -9   52.00    7.79
  -9   2  -9   52.98    9.57
  -9  -2  -8  530.80   16.71
  -9  -2  -8  511.33   14.38
  -9   2  -8  553.86   21.60
  -9   2  -8  534.30   21.14
  -9  -2  -7  489.67   12.94
  -9  -2  -7  488.03   14.98
  -9  -2  -6  142.50    8.14
  -9  -2  -6  148.17    6.78
  -9  -2  -5  103.13    5.29
  -9  -2  -5  100.01    6.76
  -9   2  -5   89.58    8.94
  -9  -2  -4  829.24   12.95
   9  -2  -2  899.45   23.89
   9  -2  -1  942.32   23.64
   9  -2   0 1195.47   26.20
   9  -2   1  957.27   23.88
   9   2   2  953.40   14.50
   9  -2   2  907.60   23.75
   9  -2   3  681.32   11.27
  -9  -2   3  640.76   16.28
   9   2   3  676.00   11.59
   9  -2   3  658.34   20.21
   9   2   4  824.87   12.33
   9  -2   4  839.75   23.21
  -9  -2   4  833.24   19.74
   9  -2   4  839.31   11.16
   9  -2   5  102.57    9.63
  -9  -2   5  102.86    8.41
   9  -2   6  136.28   10.91
   9  -2   7  508.75   19.43
   9   2   8  501.01   12.94
  -9  -2   8  532.73   19.88
   9  -2   8  536.87   20.41
   9   2   9   50.94    5.02
  -9  -2   9   62.28    8.89
  -9   2   9   42.86    8.13
   9   2  10  188.48    8.35
  -9  -2  10  207.71   14.24
  -9   2  10  183.63   14.15
  -9  -3 -18   -2.61    9.65
  -9   3 -17  152.67   18.02
  -9  -3 -17   99.68   13.55
  -9  -3 -16   -2.98    9.20
  -9   3 -16   28.08   11.61
  -9  -3 -15   79.01   11.73
  -9   3 -15  100.12   15.18
  -9  -3 -14   12.28    5.04
  -9  -3 -14    0.25    8.32
  -9  -3 -13   82.05   11.15
  -9   3 -13  106.10   14.44
  -9  -3 -12   78.35   10.57
  -9   3 -12   80.36   12.19
  -9  -3 -12   76.77    7.64
  -9  -3 -11  239.36   11.44
  -9   3 -11  251.55   18.56
  -9  -3 -11  241.00   14.63
  -9  -3 -10   14.42    6.55
  -9   3 -10   11.06    8.38
  -9  -3 -10   20.11    4.35
  -9   3 -10   23.78    7.26
   9  -3  -9  455.10   17.98
  -9  -3  -9  459.83   12.98
  -9   3  -9  488.83   22.07
  -9   3  -9  445.68   21.31
  -9  -3  -9  462.41   16.53
   9  -3  -8   10.98    4.96
  -9  -3  -8   12.17    5.22
  -9  -3  -8    8.38    2.73
  -9   3  -8    9.76    6.01
  -9  -3  -7  339.73   12.13
   9  -3  -7  318.22   14.39
  -9   3  -7  338.83   17.79
  -9  -3  -7  311.30    8.09
   9  -3  -6  450.75   16.16
  -9  -3  -6  487.32   12.68
  -9   3  -6  453.79   19.56
   9  -3  -5 1515.05   28.01
  -9  -3  -5 1547.88   19.43
   9  -3  -4  360.83   17.28
   9  -3  -4  357.41   13.43
  -9  -3  -4  367.79    8.55
   9  -3  -3  767.77   18.59
   9  -3  -3  768.96   23.86
  -9  -3  -3  745.57   10.35
   9  -3  -2  987.11   20.06
   9  -3  -2 1000.27   26.30
   9  -3  -1  757.25   22.66
   9  -3  -1  768.50   16.99
   9  -3   0   75.32    6.02
  -9  -3   0   54.93    3.69
   9  -3   0   74.06    8.83
   9  -3   1  749.63   15.62
  -9  -3   1  736.87   13.35
   9  -3   1  739.25   22.99
   9  -3   2  989.41   16.85
   9   3   2  947.49   12.02
   9  -3   2  947.79   26.01
  -9  -3   2  921.72   16.78
  -9  -3   3  753.29   16.58
   9  -3   3  776.69   23.71
  -9  -3   4  356.90   12.52
   9  -3   4  370.41   17.30
  -9  -3   5 1534.88   27.20
   9  -3   5 1527.88   33.98
   9  -3   6  458.70   19.52
   9  -3   7  308.14   16.82
  -9  -3   8   10.00    6.22
   9  -3   8   11.18    6.59
   9   3   9  453.69   14.52
  -9  -3   9  488.69   20.27
   9   3  10   17.66    4.52
  -9  -3  10   24.85    7.85
   9   3  11  240.90   11.10
  -9   4 -16   28.56   11.60
  -9   4 -15   22.70   11.54
  -9   4 -14   47.89   12.70
  -9  -4 -13   -4.17    3.84
  -9  -4 -13  -16.42    8.87
  -9   4 -13   -5.53    9.96
  -9   4 -12   41.02   10.64
  -9  -4 -12   40.78    5.33
  -9  -4 -12   29.96    7.79
  -9  -4 -11  175.53    8.64
   9   4 -11  153.05   14.74
  -9   4 -11  191.23   17.30
  -9   4 -10  213.59   16.70
  -9  -4 -10  214.39    8.40
   9   4 -10  197.23   15.94
  -9  -4 -10  203.53   12.32
   9   4  -9  196.32   14.91
  -9  -4  -9  244.80   12.39
  -9  -4  -9  205.56    6.99
  -9   4  -9  251.97   16.92
  -9   4  -9  245.53   17.26
   9  -4  -8   16.44    5.86
   9   4  -8   -6.88    8.34
  -9   4  -8   10.37    6.87
  -9  -4  -8    2.88    4.96
   9  -4  -7   37.33    6.35
  -9  -4  -7   34.86    4.63
  -9   4  -7   56.64    9.25
   9  -4  -6  630.16   20.21
   9  -4  -6  639.80   24.80
  -9  -4  -6  652.25   13.70
  -9   4  -6  671.10   25.51
   9  -4  -5   76.93    7.70
   9  -4  -5   67.84    9.57
   9  -4  -4  369.76   14.72
   9  -4  -4  403.27   18.77
   9  -4  -3   46.41    6.09
   9  -4  -3   36.70    7.78
   9  -4  -2  557.99   21.26
   9  -4  -2  570.05   16.81
   9  -4  -1   83.14    6.95
   9  -4  -1   73.02    8.81
   9  -4   0   27.56    6.99
   9  -4   0   21.97    4.38
  -9  -4   0   20.73    2.00
   9  -4   1   79.02    6.23
   9  -4   1   72.12    9.28
  -9  -4   1   82.55    4.54
   9   4   2  518.97    7.51
   9  -4   2  553.42   21.57
  -9  -4   2  572.64   12.60
  -9  -4   3   43.22    5.40
   9  -4   3   47.67    8.64
   9  -4   4  361.85   18.16
  -9  -4   4  364.63   12.89
   9  -4   5   76.69   10.27
  -9  -4   5   84.48    7.54
   9  -4   6  636.14   24.38
   9  -4   7   53.64    9.62
   9  -4   8   19.44    7.70
  -9  -4   8   15.15    6.51
   9   4   9  250.34   12.20
  -9  -4   9  236.68   14.71
  -9  -4  10  236.68   15.34
   9   4  10  218.03   11.65
   9   4  11  185.17   11.12
   9   4  12   51.20    7.16
  -9   5 -16  205.12   20.56
  -9   5 -15    8.31    9.79
  -9   5 -14  237.26   20.34
   9   5 -14  194.70   19.05
  -9   5 -13   15.77    9.97
   9   5 -13  -11.23    9.43
  -9   5 -12  705.92   31.14
  -9  -5 -12  599.25   13.63
   9   5 -12  657.46   29.19
  -9   5 -11   16.34   10.98
   9   5 -11    6.86    8.60
  -9   5 -10   57.61   11.21
   9   5 -10   46.09   10.04
   9  -5  -9  108.07   12.92
   9   5  -9   87.05   10.99
  -9   5  -9   97.92   13.04
  -9   5  -8  631.93   12.16
   9  -5  -8  571.64   25.65
   9   5  -8  569.62   22.51
   9  -5  -7   23.29    6.21
  -9   5  -7   19.80    3.45
   9  -5  -7   16.47    7.35
   9   5  -7   15.68    6.51
  -9   5  -7   18.99    7.12
   9  -5  -6  399.31   17.17
  -9   5  -6  437.21   11.50
   9  -5  -6  381.28   20.14
   9   5  -6  388.99   16.60
  -9   5  -6  398.20   20.60
  -9   5  -5   19.19    6.80
   9  -5  -5   28.92    6.24
  -9   5  -5   21.40    4.00
   9  -5  -5   16.76    7.66
   9   5  -5   12.22    5.94
   9  -5  -4 1423.04   30.08
   9  -5  -4 1427.41   35.93
  -9   5  -4 1521.19   23.39
   9  -5  -3   47.05    9.16
  -9   5  -3   41.39    5.25
   9  -5  -3   29.07    5.76
   9  -5  -2  648.01   24.25
   9  -5  -2  617.84   19.18
   9  -5  -1   24.28    8.09
   9   5  -1   25.81    4.58
  -9   5   0  935.66   28.23
   9   5   0  932.26   17.35
   9  -5   0  942.57   29.18
  -9   5   1   15.22    5.07
   9   5   1   20.56    3.17
   9  -5   1   12.03    7.21
   9  -5   2  628.91   23.98
   9   5   2  566.31    8.89
  -9  -5   3   32.06    4.59
   9  -5   3   31.85    7.92
  -9  -5   4 1345.36   24.40
   9  -5   4 1426.11   36.81
  -9  -5   5   22.16    5.64
   9  -5   5   17.62    8.30
   9  -5   6  389.73   20.35
  -9  -5   7   16.00    5.92
   9  -5   7   17.11    7.90
   9  -5   8  574.38   25.38
  -9  -5   8  636.49   22.13
   9  -5   9  109.80   13.42
   9   5   9  108.50    9.75
  -9  -5   9  127.64   11.57
   9   5  10   67.95    8.16
  -9  -5  10   45.28    8.65
   9   5  11   19.54    6.07
   9   5  12  638.98   21.53
   9   5  13   12.57    5.96
  -9   6 -15   68.27   14.07
   9   6 -15   61.97   12.39
   9   6 -14  105.97   14.93
  -9   6 -14  132.23   16.82
  -9   6 -13   59.66   12.94
   9   6 -13   36.04   10.65
   9  -6 -12    9.83    8.60
   9   6 -12   -2.18    9.91
  -9   6 -12   30.34   11.22
  -9   6 -11  253.34   19.93
  -9   6 -11  243.32    7.21
   9  -6 -11  233.22   19.64
   9   6 -11  240.67   18.19
  -9   6 -10   18.88    3.20
  -9   6 -10   13.82    9.92
   9  -6 -10   11.71    7.54
   9   6 -10    2.65    9.10
  -9   6  -9  234.07    8.88
   9  -6  -9  207.80   17.55
   9   6  -9  202.00   15.25
  -9   6  -8   10.36    3.55
   9  -6  -8    5.22    7.69
   9   6  -8   -7.02    8.22
  -9   6  -7  151.84    8.04
   9  -6  -7  162.34   14.68
   9   6  -7  127.65   11.18
   9  -6  -6   51.84   10.88
  -9   6  -6   39.26    5.32
   9   6  -6   22.59    7.00
   9  -6  -5  417.50   21.20
  -9   6  -5  460.89   14.31
   9   6  -5  431.22   18.05
   9   6  -5  423.02   16.15
   9  -6  -5  447.02   18.53
  -9   6  -5  470.91   22.71
   9  -6  -4    4.32    6.67
  -9   6  -4    7.69    6.26
   9   6  -4    2.55    4.37
   9   6  -4   -6.69    5.59
   9  -6  -3   57.08   10.03
  -9   6  -3   78.34    9.99
   9   6  -3   76.85    8.01
  -9   6  -2  894.08   29.84
   9   6  -2  805.57   21.29
   9  -6  -2  811.22   28.53
  -9   6  -1  206.49   15.04
  -9   6  -1  214.53   11.36
   9   6  -1  205.76   10.51
   9  -6  -1  197.95   15.07
  -9   6   0   25.00    6.96
   9   6   0   24.79    4.28
   9  -6   0   26.75    8.49
  -9   6   1  203.80   14.70
   9   6   1  207.82    8.31
   9  -6   1  205.20   15.47
   9  -6   2  838.06   29.44
   9   6   2  787.03   12.81
   9  -6   3   59.83   10.38
   9  -6   4    0.17    7.73
   9  -6   5  434.63   22.34
   9  -6   6   43.90   10.07
   9  -6   7  147.69   14.77
   9  -6   8    7.10    8.63
   9   6   9  220.31   14.09
   9  -6   9  234.96   18.44
  -9  -6   9  197.49   13.67
   9   6  10   12.56    6.14
   9   6  11  248.35   15.07
   9   6  12   30.00    7.37
   9   6  13   53.92    8.63
   9  -7 -17   29.85   10.24
   9  -7 -16   12.58    8.90
   9  -7 -15   67.14   12.71
   9   7 -15   62.12   12.75
   9  -7 -14   51.86   11.64
   9   7 -14   44.53   11.17
  -9   7 -14   79.72   15.70
  -9   7 -13  162.38   18.85
   9  -7 -13  171.04   18.15
   9   7 -13  145.88   16.08
   9  -7 -12   96.49   14.25
   9   7 -12   60.84   11.82
  -9   7 -12   93.67   15.34
  -9   7 -11  139.46   17.19
   9  -7 -11  136.59   16.04
  -9   7 -11  136.58    7.08
   9   7 -11  127.08   14.63
  -9   7 -10  277.37   10.72
   9  -7 -10  283.67   21.28
   9   7 -10  243.61   17.52
  -9   7 -10  296.70   21.71
  -9   7  -9  479.09   14.59
   9  -7  -9  451.86   25.32
   9   7  -9  501.52   23.35
   9  -7  -8  209.78   17.12
   9   7  -8  221.48   15.20
   9  -7  -7  382.00   22.18
   9   7  -7  443.78   19.77
   9  -7  -6  291.32   19.32
   9   7  -6  295.80   16.38
   9   7  -6  291.46   15.18
   9  -7  -5  255.49   17.92
   9   7  -5  259.24   14.95
   9   7  -5  248.83   13.19
   9  -7  -4   29.09    8.64
  -9   7  -4   44.66    6.71
   9   7  -4   37.49    7.37
   9   7  -4   22.55    5.50
   9  -7  -3   88.78   11.86
  -9   7  -3   86.73    8.30
   9   7  -3   80.59    8.71
   9   7  -3   66.47    6.15
   9   7  -2  373.39   15.90
  -9   7  -2  353.36   15.33
   9  -7  -2  380.88   21.30
  -9   7  -1  487.21   18.25
  -9   7  -1  506.61   23.31
   9   7  -1  476.20   16.75
   9  -7  -1  454.25   22.93
  -9   7   0   24.25    6.51
  -9   7   0   16.44    6.92
   9   7   0   27.02    4.83
   9  -7   0   33.61    9.32
  -9   7   1  509.39   19.36
  -9   7   1  529.54   23.43
   9  -7   1  474.43   23.55
   9   7   1  492.65   14.06
   9   7   2  349.26   10.27
   9  -7   2  373.85   21.43
  -9   7   2  368.93   19.93
   9  -7   3   68.94   11.46
   9  -7   4   32.00   10.01
   9  -7   5  237.23   18.70
   9  -7   6  275.29   20.10
   9  -7   7  431.31   23.97
   9  -7   8  218.11   18.33
   9  -7   9  490.64   26.30
   9   7   9  440.01   20.60
   9   7  10  252.92   16.21
   9   7  11  124.95   12.25
   9   7  12   79.55   10.37
   9   7  13  141.03   12.67
   9   7  14   74.38    9.73
   9  -8 -16   59.29   12.68
   9  -8 -15  -14.42    9.31
   9   8 -15  -36.31   11.91
   9  -8 -14  165.66   17.76
   9   8 -14  150.30   16.80
  -9   8 -13    9.58   11.30
   9  -8 -13    5.18    7.65
   9   8 -13  -18.57   10.58
   9  -8 -12  163.59   17.27
   9   8 -12  119.13   14.27
  -9   8 -12  154.13   17.75
   9  -8 -11   20.99    9.18
  -9   8 -11   31.94   11.51
   9   8 -11   12.06    8.12
   9  -8 -10   55.03   11.20
  -9   8 -10   35.43   11.42
   9   8 -10   23.79    8.64
   9  -8  -9   93.44   13.64
  -9   8  -9  107.01   15.60
   9   8  -9   79.08   10.89
   9  -8  -8  351.26   22.65
  -9   8  -8  355.15   14.77
   9   8  -8  340.16   18.86
   9  -8  -7  109.02   13.75
  -9   8  -7  107.67    8.99
   9   8  -7   87.01   10.40
  -9   8  -6  129.66   10.08
   9   8  -6  129.98   11.05
   9  -8  -6  134.76   14.88
   9  -8  -5   13.73    8.56
  -9   8  -5   19.68    5.91
   9   8  -5   16.00    6.87
   9   8  -5   23.42    6.52
  -9   8  -4  553.59   19.48
   9   8  -4  534.42   20.80
   9   8  -4  535.17   17.42
   9  -8  -4  489.55   25.26
  -9   8  -3   34.49    7.23
   9   8  -3   38.48    7.20
   9   8  -3   30.25    5.24
   9  -8  -3   29.34    9.63
  -9   8  -2  275.73   14.58
   9   8  -2  261.64   14.04
   9   8  -2  260.64    9.82
   9  -8  -2  297.43   20.14
  -9   8  -1   20.54    6.44
   9   8  -1   21.19    5.62
   9  -8  -1   16.37    8.65
  -9   8   0  604.66   21.73
   9  -8   0  581.37   27.28
   9   8   0  586.50   18.29
   9   8   1   22.15    4.72
  -9   8   1   26.08    7.57
   9  -8   1   20.52    9.45
   9   8   2  249.26    9.64
  -9   8   2  308.26   16.58
   9  -8   2  269.84   19.38
   9  -8   3   35.54   10.28
   9  -8   4  506.02   26.43
   9  -8   5   12.52    9.74
   9  -8   6  114.95   14.80
   9  -8   7   97.63   14.20
   9  -8   8  329.86   22.66
   9   8   9   86.07   11.48
   9   8  10   34.99    8.43
   9   8  11   26.86    7.88
   9   8  12  137.44   13.07
   9   8  13   17.52    7.43
   9   8  14  170.87   13.97
   9  -9 -14   11.20    8.46
   9   9 -14   10.26    9.63
   9  -9 -13   71.55   12.99
   9   9 -13   39.74   10.75
   9  -9 -12   11.80    8.42
   9   9 -12  -17.83    9.95
   9  -9 -11   75.78   12.62
  -9   9 -11   69.33   14.61
   9   9 -11   34.49    9.60
  -9   9 -10    6.35   10.37
   9  -9 -10   31.72   10.11
   9   9 -10    6.94    7.87
   9  -9  -9  130.19   15.67
  -9   9  -9  134.57    9.95
  -9   9  -9  118.92   15.93
   9   9  -9  120.27   12.37
   9  -9  -8   -5.05    9.42
  -9   9  -8   -1.40    5.00
   9   9  -8  -17.21    8.44
  -9   9  -7  134.91   10.60
   9   9  -7  107.23   10.91
   9  -9  -7  128.17   15.48
  -9   9  -6   51.43    7.76
   9   9  -6   49.47    8.16
   9  -9  -6   34.04    9.78
  -9   9  -5  134.64   11.26
   9   9  -5  137.18   10.52
   9  -9  -5  150.19   16.05
  -9   9  -4   42.40    7.56
   9   9  -4   30.56    6.81
   9  -9  -4   45.83   11.16
   9   9  -4   26.19    5.66
  -9   9  -3  256.54   15.38
   9   9  -3  237.18   14.34
   9   9  -3  226.94   10.73
   9  -9  -3  265.62   20.31
  -9   9  -2   25.68    7.84
   9   9  -2   25.21    3.88
   9  -9  -2   36.11   10.79
   9   9  -2   27.34    6.50
  -9   9  -1  519.45   21.35
   9  -9  -1  506.30   27.03
   9   9  -1  529.58   19.02
   9   9   0   26.26    5.55
  -9   9   0   30.67    7.86
   9  -9   0   17.00    9.74
   9   9   1  536.18   16.36
  -9   9   1  526.42   22.31
   9  -9   1  520.86   27.80
  -9   9   2   34.06    8.55
   9   9   2   23.07    4.09
   9  -9   2   29.62   10.37
   9  -9   3  264.92   21.23
   9  -9   4   35.51   10.65
   9  -9   5  131.53   16.56
   9  -9   6   52.52   12.56
   9  -9   7  121.76   16.10
   9   9   8   -5.48    7.58
   9  -9   8   -0.89    9.87
   9   9   9  137.43   13.89
   9   9  10   20.82    8.03
   9   9  11   53.32   10.18
   9   9  12    6.94    6.90
   9   9  13   76.60   11.28
   9   9  14   31.90    8.60
   9 -10 -12   -3.47    8.10
   9 -10 -11  187.90   17.88
   9 -10 -10   14.33    8.53
  -9  10 -10   -2.76   11.16
  -9  10  -9  316.22   23.49
   9 -10  -9  295.67   22.45
  -9  10  -8   21.88    6.55
   9 -10  -8   31.70   10.62
  -9  10  -7  219.18   13.80
   9 -10  -7  228.23   19.64
  -9  10  -6   33.89    7.60
   9 -10  -6   29.04    9.94
  -9  10  -5  497.56   21.04
   9 -10  -5  445.01   26.85
  -9  10  -4    4.64    6.07
   9 -10  -4   14.18    9.04
  -9  10  -3  353.95   18.80
   9 -10  -3  317.08   22.69
  -9  10  -2   31.61    8.28
   9 -10  -2   23.07    9.84
  -9  10  -1  332.87   18.72
   9 -10  -1  339.62   23.83
  -9  10   0   45.62    9.46
   9 -10   0   33.07   10.42
   9 -10   1  300.19   23.19
  -9  10   1  351.06   19.81
  -9  10   2   39.11    9.31
   9 -10   2   28.79   11.13
  -9  10   3  387.06   20.90
   9 -10   3  374.14   25.60
   9 -10   4    4.31    9.31
   9 -10   5  503.53   29.78
   9 -10   6   45.25   12.76
   9 -10   7  223.81   21.15
   9  10   8   28.36    9.52
   9  10   9  312.12   20.47
   9  10  10    0.62    7.62
   9  10  11  158.94   15.37
   9 -11 -10   75.84   13.27
   9 -11  -9    2.38    7.97
  -9  11  -8   57.27   12.18
   9 -11  -8   58.01   11.85
  -9  11  -7   25.83    6.95
   9 -11  -7   19.28    9.38
  -9  11  -6  100.26   10.37
   9 -11  -6   98.59   14.20
  -9  11  -5   11.18    6.74
   9 -11  -5    5.05    8.50
   9 -11  -4  196.16   18.81
  -9  11  -4  149.26   13.09
  -9  11  -3    2.56    6.42
   9 -11  -3   -3.47    9.54
  -9  11  -2   56.10    9.97
   9 -11  -2   47.29   12.40
  -9  11  -1    3.71    6.61
   9 -11  -1    2.08    9.14
  -9  11   0   93.52   11.88
   9 -11   0   84.01   14.20
  -9  11   1   10.93    7.11
   9 -11   1   -1.37    9.62
  -9  11   2   81.72   11.67
   9 -11   2   50.30   12.51
   9 -11   3    3.97    9.99
   9 -11   4  157.53   18.14
   9 -11   5   16.87   10.83
   9 -11   6   79.96   14.60
   9 -12  -7   97.45   14.15
  -9  12  -6   66.07    9.63
   9 -12  -6   75.80   12.85
  -9  12  -5  118.57   12.13
   9 -12  -5   91.75   14.25
  -9  12  -4  129.73   12.63
   9 -12  -4  127.06   15.92
  -9  12  -3  170.96   14.46
   9 -12  -3  148.63   17.36
  -9  12  -2  126.60   13.29
   9 -12  -2  133.62   16.55
  -9  12  -1  120.47   13.50
   9 -12  -1  114.67   16.07
  -9  12   0   81.19   11.75
   9 -12   0   62.21   12.89
  -9  12   1  135.40   14.21
   9 -12   1  111.98   15.85
   9 -12   2  159.06   18.71
 -10   0 -18   61.57   13.16
 -10   0 -17   16.42   10.11
 -10   0 -16  221.97   18.89
 -10   0 -15    7.84    8.76
 -10   0 -14  314.45   20.06
 -10   0 -14  307.30   17.55
 -10   0 -13  -21.04    7.03
 -10   0 -13   16.65    9.37
 -10   0 -12  141.37   11.87
 -10   0 -12  146.88   13.62
 -10   0 -11    2.82    7.09
 -10   0 -11   -1.41    5.77
 -10   0 -10  662.98   23.36
 -10   0  -9   -3.59    6.96
 -10   0  -8 2303.48   38.43
 -10   0  -8 2280.79   37.78
 -10   0  -7   -2.24    6.05
 -10   0  -7   -2.66    4.07
 -10   0  -6 1194.52   25.09
 -10   0  -5    0.81    3.86
 -10   0  -4  341.39   12.84
 -10   0  -3   -2.89    3.69
 -10   0  -2 1423.80   24.80
  10   0   0 2346.54   33.13
  10   0   1    5.27    4.51
  10   0   2 1410.38   25.36
  10   0   3    1.00    4.20
  10   0   4  345.86   12.96
  10   0   5    1.71    4.10
  10   0   6 1244.55   24.87
  10   0   7    0.15    4.62
  10   0   7   -2.61    1.39
 -10   0   9   -0.11    6.46
 -10   0  10  718.92   25.27
 -10  -1 -19    7.03   10.36
 -10  -1 -18   36.33   11.41
 -10   1 -18   61.33   13.27
 -10  -1 -17   37.49   11.26
 -10   1 -17   63.50   13.08
 -10  -1 -16   23.63    9.71
 -10   1 -16   25.32   10.80
 -10  -1 -15  110.56   13.98
 -10  -1 -15   87.49   10.22
 -10   1 -15   99.18   14.32
 -10   1 -14   20.13   10.32
 -10  -1 -14   20.02    8.96
 -10  -1 -14   13.43    6.30
 -10  -1 -13  288.05   17.70
 -10  -1 -13  312.47   16.15
 -10   1 -13  300.71   17.76
 -10   1 -13  306.54   19.62
 -10   1 -12   45.76   10.12
 -10  -1 -12   40.64    7.24
 -10   1 -12   56.23    8.57
 -10  -1 -12   62.32   10.50
 -10  -1 -11  115.98   11.75
 -10   1 -11   98.74   10.68
 -10   1 -11  101.59   12.34
 -10   1 -10  388.78   19.15
 -10  -1 -10  404.58   16.70
 -10   1 -10  421.11   19.26
 -10  -1 -10  400.00   17.62
 -10  -1  -9   13.07    6.66
 -10   1  -9    4.29    7.22
 -10  -1  -9   16.39    4.92
 -10   1  -9   11.82    5.68
 -10  -1  -8  202.45   11.93
 -10  -1  -8  194.41   10.56
 -10   1  -8  199.33   13.45
 -10  -1  -7  458.68   15.02
 -10  -1  -7  473.40   16.11
 -10  -1  -6   29.36    4.68
 -10  -1  -6   24.85    5.56
 -10   1  -6   27.86    5.85
 -10  -1  -5  339.34   11.57
 -10   1  -5  309.11   14.07
 -10   1  -4  565.53   17.83
 -10  -1  -4  581.86   14.39
 -10   1  -3    6.90    4.24
 -10  -1  -3    8.60    3.22
 -10   1  -2   78.84    7.40
  10  -1  -1 1357.36   27.87
 -10   1  -1 1429.65   27.02
  10  -1   0   54.98    7.09
  10  -1   1 1418.77   27.69
  10   1   1 1389.82   22.96
  10   1   2   85.62    6.36
  10  -1   2   80.55    8.23
  10  -1   3   11.93    5.47
  10   1   3   11.82    3.85
  10   1   4  584.51   14.48
  10  -1   4  566.74   18.19
  10   1   5  343.34   11.50
  10  -1   5  318.03   14.40
 -10  -1   5  302.29   13.55
  10   1   6   32.64    4.89
  10  -1   6   32.87    6.67
  10  -1   7  501.04   18.21
 -10  -1   7  474.58   18.62
  10   1   8  208.39    7.03
 -10  -1   8  211.48   14.06
  10   1   9   13.20    2.63
 -10  -1   9   17.98    7.21
 -10   1   9    6.56    6.75
 -10  -1  10  441.59   19.98
 -10   1  10  419.69   19.74
 -10  -2 -19   -2.54   10.08
 -10   2 -18    4.61   10.82
 -10  -2 -18   -7.37   10.07
 -10   2 -17  141.12   17.35
 -10  -2 -17  142.10   15.82
 -10  -2 -16   39.95   10.70
 -10   2 -16   48.79   12.27
 -10  -2 -15  208.68   13.48
 -10   2 -15  238.03   19.76
 -10  -2 -15  192.96   16.62
 -10  -2 -14  138.23   10.97
 -10   2 -14  151.31   16.34
 -10  -2 -14  137.39   14.11
 -10  -2 -13  127.92   13.09
 -10  -2 -13  128.14   10.32
 -10   2 -13  135.61   15.13
 -10  -2 -12   54.26    9.55
 -10   2 -12   30.33    9.63
 -10  -2 -11  487.76   19.71
 -10   2 -11  485.42   23.05
 -10  -2 -11  468.31   17.15
 -10   2 -11  519.88   22.65
 -10   2 -10   51.38   10.66
 -10  -2 -10   62.65    6.83
 -10   2 -10   68.21    9.62
 -10  -2 -10   78.80    9.22
 -10  -2  -9  231.46   12.52
 -10  -2  -9  207.65   10.45
 -10   2  -9  222.47   14.96
 -10   2  -9  227.14   15.65
 -10   2  -8  447.36   19.95
 -10  -2  -8  432.46   15.52
 -10  -2  -8  432.06   13.50
 -10  -2  -7  120.94    8.63
 -10   2  -7  102.76    9.91
 -10  -2  -7  125.75    7.14
 -10  -2  -6   75.24    5.35
 -10  -2  -6   66.54    6.35
 -10  -2  -5 1384.21   19.19
 -10  -2  -5 1392.38   21.86
 -10   2  -4  382.27   16.35
  10  -2  -3  621.12   21.20
  10  -2  -2 1809.77   34.91
  10  -2  -1  414.88   16.79
  10  -2   0  163.69   11.11
  10   2   1  408.15   11.47
  10  -2   1  413.13   16.63
  10   2   2 1907.53   22.44
  10  -2   2 1859.13   34.63
  10  -2   3  597.83   11.17
 -10  -2   3  583.92   16.15
  10  -2   3  603.80   20.21
  10   2   3  604.93   12.29
  10  -2   4  376.97    8.14
  10   2   4  394.81    9.72
  10  -2   4  396.32   16.85
 -10  -2   4  356.01   13.64
  10   2   5 1394.48   17.89
  10  -2   5 1387.81   30.95
 -10  -2   5 1356.01   26.96
  10  -2   6   75.19    9.06
 -10  -2   7  119.90   10.04
  10  -2   7  119.94   11.00
 -10  -2   8  434.91   18.46
  10  -2   8  425.52   18.65
  10   2   9  220.74    9.00
 -10  -2   9  216.06   14.15
 -10   2   9  232.09   15.14
  10   2  10   65.95    5.44
 -10  -2  10   72.21    9.65
 -10  -3 -18   88.08   12.81
 -10  -3 -17  -10.46    8.95
 -10   3 -17   21.02   12.19
 -10   3 -16  145.92   17.65
 -10  -3 -16  118.73   14.31
 -10   3 -15   22.74   10.43
 -10  -3 -15    5.43    8.17
 -10  -3 -14   83.10   11.63
 -10   3 -14   84.03   13.35
 -10  -3 -13   15.06    7.85
 -10   3 -13   25.20   10.23
 -10   3 -12  204.76   17.54
 -10  -3 -12  196.02   10.69
 -10  -3 -12  202.38   14.58
 -10   3 -11   82.90   11.99
 -10  -3 -11   86.91   10.35
 -10  -3 -11   82.58    7.18
 -10  -3 -10  451.88   17.54
 -10   3 -10  429.48   22.06
 -10  -3 -10  430.82   13.56
 -10   3 -10  444.25   21.58
  10  -3  -9   17.56    5.85
 -10  -3  -9   16.83    6.21
 -10   3  -9   10.88    6.10
 -10  -3  -9    9.81    3.31
 -10   3  -9   14.56    7.94
 -10  -3  -8  366.62   13.58
 -10   3  -8  375.84   19.35
 -10  -3  -8  360.08   10.11
 -10  -3  -7   51.93    3.67
 -10  -3  -7   72.24    7.28
 -10   3  -7   54.29    8.77
 -10  -3  -6  265.00    9.86
 -10   3  -6  259.05   15.83
 -10  -3  -5  238.94    8.28
 -10   3  -5  248.86   14.80
 -10  -3  -4 1187.99   15.68
  10  -3  -4 1203.74   31.43
  10  -3  -3   74.55    8.99
  10  -3  -2   67.96    6.30
  10  -3  -2   70.26    9.04
  10  -3  -1  330.75   16.07
  10  -3  -1  309.47   11.50
  10  -3   0 1743.06   35.30
  10  -3   0 1741.29   25.13
  10  -3   1  326.31   10.68
 -10  -3   1  299.53    9.36
  10  -3   1  291.54   15.43
  10  -3   2   67.49    5.23
  10   3   2   63.76    3.97
 -10  -3   2   60.09    6.18
  10  -3   2   58.02    8.42
  10  -3   3   68.23    4.96
  10   3   3   70.88    3.25
  10  -3   3   72.17    9.03
 -10  -3   3   79.94    6.76
 -10  -3   4 1160.32   22.97
  10  -3   4 1211.40   30.64
 -10  -3   5  239.10   11.78
  10  -3   5  241.34   14.58
  10  -3   6  265.84   15.80
  10  -3   7   48.27    8.74
 -10  -3   7   54.04    7.44
  10  -3   8  345.02   18.29
 -10  -3   8  366.23   17.10
 -10  -3   9   21.40    7.53
  10   3   9    8.72    4.00
  10  -3   9   14.83    7.89
  10   3  10  416.07   13.99
 -10  -3  10  445.98   20.09
  10   3  11   79.66    7.08
 -10   4 -16   34.78   11.51
 -10   4 -15   48.37   12.54
 -10  -4 -14   13.30    6.95
 -10   4 -14   45.55   12.17
 -10   4 -13  132.44   15.49
 -10  -4 -13  122.87    8.06
 -10  -4 -13  118.82   12.15
 -10   4 -12    7.35    9.85
 -10  -4 -12    8.10    3.54
 -10  -4 -12   -3.04    8.30
 -10   4 -11   64.68   12.33
 -10  -4 -11   64.26    5.28
 -10  -4 -11   54.82    8.32
 -10   4 -10  143.41   15.19
 -10  -4 -10  137.71   10.69
 -10  -4 -10  138.48    6.51
 -10  -4  -9  190.58   11.04
 -10  -4  -9  164.46    5.53
  10  -4  -8   44.73    7.12
 -10   4  -8   42.12    8.14
 -10  -4  -8   30.98    5.39
  10  -4  -7   98.30    9.10
 -10  -4  -7  100.49    6.78
 -10   4  -7  115.76   12.10
  10  -4  -6  139.26   10.21
  10  -4  -6  138.78   13.19
 -10  -4  -6  143.98    6.78
 -10   4  -6  144.51   13.10
  10  -4  -5  423.69   16.53
  10  -4  -5  422.17   20.35
 -10  -4  -5  422.26    9.09
  10  -4  -4   36.26    6.04
  10  -4  -4   36.53    7.69
 -10  -4  -4   31.80    2.13
  10  -4  -3  230.67   11.72
  10  -4  -3  237.46   14.94
  10  -4  -2   88.19   10.13
  10  -4  -2   83.83    7.35
  10  -4  -1  311.61   16.81
  10  -4  -1  307.80   12.36
  10  -4   0    1.22    5.75
 -10  -4   0    6.56    1.93
  10  -4   0    3.12    3.59
  10  -4   1  303.29   11.55
 -10  -4   1  298.89    8.31
  10  -4   1  311.39   16.85
  10   4   2   65.14    3.35
 -10  -4   2   89.50    5.93
  10  -4   2   67.42    9.56
 -10  -4   3  240.76    9.92
  10  -4   3  235.99   15.09
 -10  -4   4   47.77    6.01
  10  -4   4   23.41    7.40
  10  -4   5  406.89   20.13
 -10  -4   5  428.98   15.18
  10  -4   6  132.60   12.75
  10  -4   7   96.89   11.50
 -10  -4   7   91.28    9.25
  10  -4   8   35.22    8.35
 -10  -4   8   40.79    7.82
  10   4   9  192.76   11.08
  10  -4   9  238.86   17.08
 -10  -4   9  208.04   13.88
 -10  -4  10  146.52   12.69
  10   4  10  151.70   10.09
  10   4  11   54.71    7.00
  10   4  12    7.70    5.07
 -10   5 -15  193.37   20.25
 -10   5 -14   14.71   11.14
 -10   5 -13  260.29   21.39
 -10   5 -12    8.90   10.12
 -10   5 -11  707.22   30.25
 -10   5 -10    3.30    9.91
  10  -5  -9   35.08    8.81
  10  -5  -8   11.69    7.78
  10  -5  -7  429.39   22.50
 -10   5  -6   16.35    7.02
  10  -5  -6   10.15    5.40
  10  -5  -6   16.46    6.94
  10  -5  -5 1101.04   27.29
  10  -5  -5 1060.33   32.83
 -10   5  -5 1085.95   33.06
 -10   5  -4   -3.53    6.50
  10  -5  -4    3.34    4.63
  10  -5  -4   13.83    7.90
  10  -5  -3  775.18   27.31
  10  -5  -3  823.52   22.73
  10  -5  -2    4.27    4.13
  10  -5  -2    5.08    6.33
  10  -5  -1  960.12   23.47
  10  -5  -1  915.58   29.49
  10   5   0    8.46    3.37
  10  -5   0    0.01    6.90
  10   5   1  948.36   15.50
 -10   5   1  987.75   30.11
  10  -5   1  947.03   30.19
 -10  -5   2    3.09    2.90
  10   5   2    3.18    1.28
  10  -5   3  753.61   27.25
 -10  -5   3  785.54   16.75
  10  -5   4   -3.19    8.09
 -10  -5   4    1.64    4.43
  10  -5   5 1032.99   32.31
 -10  -5   5 1070.31   23.93
  10  -5   6   12.30    8.27
  10  -5   7  420.31   21.67
 -10  -5   7  433.50   17.69
  10  -5   8   11.50    7.43
 -10  -5   8   13.60    6.57
  10  -5   9   48.53   10.12
 -10  -5   9   48.45    8.25
  10   5  10    0.34    5.18
  10   5  11  742.54   22.83
  10   5  12    6.61    5.44
  10   5  13  242.73   13.99
 -10   6 -15  103.65   16.49
 -10   6 -14   28.96   11.51
 -10   6 -13   67.03   13.49
  10  -6 -13   51.47   12.23
 -10   6 -12   69.91   13.63
  10  -6 -12   73.47   13.93
  10   6 -12   38.96   10.44
  10  -6 -11   -6.57    9.05
  10   6 -11  -16.05   10.45
 -10   6 -11  -10.02   11.41
  10  -6 -10  184.69   17.44
  10   6 -10  144.05   14.41
 -10   6 -10  186.80   17.28
  10  -6  -9   -7.27    9.20
  10   6  -9  -14.99    9.31
  10  -6  -8  248.61   18.66
  10   6  -8  215.12   14.91
  10  -6  -7  115.97   13.56
  10   6  -7  112.39   11.47
 -10   6  -6   37.55    4.98
  10  -6  -6   24.25    8.34
  10  -6  -5   29.03    8.45
 -10   6  -5   28.90    4.98
 -10   6  -4  312.70   18.52
  10  -6  -4  301.41   18.59
  10  -6  -4  304.62   15.16
 -10   6  -3  129.25   12.41
  10   6  -3  116.20    9.26
  10  -6  -3  110.05   12.27
 -10   6  -2  304.86   18.18
  10   6  -2  273.08   12.64
  10  -6  -2  287.13   18.19
 -10   6  -1  262.22   16.82
  10   6  -1  268.43   11.73
  10  -6  -1  235.78   16.78
 -10   6   0   18.18    6.06
  10   6   0   21.92    4.18
  10  -6   0   24.82    8.52
 -10   6   1  245.64   16.05
  10   6   1  234.98    8.94
  10  -6   1  263.79   17.56
  10  -6   2  302.33   18.93
  10   6   2  273.32    7.12
  10  -6   3  125.86   13.25
  10  -6   4  276.45   18.77
  10  -6   5   19.57    9.13
  10  -6   6   26.89    9.56
 -10  -6   7  105.82    9.71
  10  -6   7  104.59   13.57
  10  -6   8  231.85   18.28
 -10  -6   8  246.42   14.34
  10  -6   9   20.06    8.75
 -10  -6   9   -3.69    6.30
  10   6  10  175.49   12.84
  10   6  11   -2.65    5.73
  10   6  12   78.44    9.67
  10   6  13   73.37    9.15
  10   6  14   19.84    6.64
  10  -7 -16    6.25    8.24
  10  -7 -15   10.63    8.45
  10  -7 -14  129.99   16.52
  10   7 -14  128.78   15.73
  10  -7 -13   49.51   11.91
 -10   7 -13   60.32   14.21
  10   7 -13   44.10   11.04
 -10   7 -12   75.95   14.73
  10  -7 -12   61.91   12.21
  10   7 -12   43.78   10.28
  10  -7 -11   77.98   13.24
  10   7 -11   69.62   11.35
 -10   7 -11   80.63   14.13
 -10   7 -10  271.64    9.82
  10  -7 -10  264.70   21.17
  10   7 -10  214.94   16.68
 -10   7 -10  252.24   20.52
 -10   7  -9  117.74    7.42
  10  -7  -9  130.20   15.54
  10   7  -9   98.14   11.77
  10  -7  -8  453.62   25.28
 -10   7  -8  475.82   14.64
  10   7  -8  436.81   20.67
  10  -7  -7  387.70   22.92
  10   7  -7  350.75   17.53
  10  -7  -6  493.78   25.29
  10   7  -6  493.68   20.41
  10   7  -6  495.61   19.35
  10  -7  -5   88.15   12.19
  10   7  -5   91.49    9.55
  10   7  -5   78.04    8.05
 -10   7  -4   23.71    5.73
  10   7  -4   22.38    6.19
  10  -7  -4   15.22    7.89
 -10   7  -3  375.28   15.15
  10   7  -3  376.48   16.54
  10  -7  -3  367.91   21.59
 -10   7  -2  521.65   18.24
  10   7  -2  498.05   17.95
  10  -7  -2  487.26   24.64
  10   7  -1  143.74    9.72
  10  -7  -1  147.54   14.69
  10   7   0  294.21   12.15
  10  -7   0  299.22   19.69
  10  -7   1  149.89   14.87
  10   7   1  160.63    8.25
  10   7   2  456.54   10.55
  10  -7   2  451.94   24.31
  10  -7   3  349.78   21.71
  10  -7   4   14.54    8.64
  10  -7   5   75.15   12.16
  10  -7   6  504.36   25.88
  10  -7   7  396.25   23.87
  10  -7   8  438.38   24.89
  10   7   9   94.83   10.63
  10  -7   9  120.78   15.38
  10   7  10  264.52   16.50
  10   7  11   75.25   10.04
  10   7  12   55.55    9.17
  10   7  13   55.02    9.42
  10   7  14  139.58   12.28
  10  -8 -15  103.56   14.52
  10  -8 -14    4.64    7.84
  10   8 -14   -6.05    9.90
  10  -8 -13  177.30   18.67
  10   8 -13  180.71   17.15
 -10   8 -12    1.12   11.23
  10  -8 -12    8.81    8.53
  10   8 -12   -6.92    8.69
  10  -8 -11   88.43   13.83
 -10   8 -11   83.35   15.38
  10   8 -11   73.63   11.81
  10  -8 -10   56.86   11.90
  10   8 -10   29.62    9.18
 -10   8 -10   54.86   13.17
  10  -8  -9  147.44   16.31
  10   8  -9  127.64   13.07
  10  -8  -8   78.33   13.09
 -10   8  -8   83.37    7.70
  10   8  -8   66.87    9.88
  10  -8  -7  415.68   24.91
 -10   8  -7  418.21   15.84
  10   8  -7  405.90   19.19
  10  -8  -6   -2.69    8.49
 -10   8  -6    7.45    4.92
  10   8  -6    5.70    5.95
 -10   8  -5  304.59   14.65
  10   8  -5  292.19   16.19
  10   8  -5  288.53   14.42
  10  -8  -5  302.90   21.12
 -10   8  -4  146.30   10.68
  10   8  -4  113.92   10.74
  10  -8  -4  134.91   14.53
 -10   8  -3  268.53   14.37
  10   8  -3  276.96   14.97
  10  -8  -3  271.64   19.85
 -10   8  -2   13.04    6.67
  10   8  -2    3.58    4.78
  10  -8  -2    2.30    8.20
 -10   8  -1  528.94   20.22
  10   8  -1  522.32   18.03
  10  -8  -1  496.19   25.86
 -10   8   0   98.34   10.12
  10   8   0   90.15    7.57
  10  -8   0   95.84   13.71
  10  -8   1  479.42   25.61
  10   8   1  534.04   15.17
  10   8   2    4.84    2.26
  10  -8   2   11.65    9.53
  10  -8   3  261.02   19.98
  10  -8   4  110.94   14.79
  10  -8   5  267.69   20.35
  10  -8   6    9.99    9.64
  10  -8   7  374.55   23.73
  10  -8   8  100.23   14.67
  10   8   9  133.25   13.16
  10  -8   9  161.14   17.61
  10   8  10   49.38    9.56
  10   8  11   95.93   11.41
  10   8  12   -6.60    6.77
  10   8  13  186.04   14.33
  10   8  14   -0.38    6.49
  10  -9 -14  137.37   16.97
  10   9 -14  132.73   15.71
  10  -9 -13   29.12   10.42
  10   9 -13   -5.38   10.08
  10  -9 -12   93.39   14.10
  10   9 -12   72.61   11.97
  10  -9 -11   50.54   11.35
 -10   9 -11   49.60   12.72
  10   9 -11   20.99    8.55
  10  -9 -10   70.32   12.85
 -10   9 -10   74.25   14.17
  10   9 -10   54.29    9.87
  10  -9  -9   28.31   10.09
 -10   9  -9   27.58    5.44
  10   9  -9   14.24    7.56
 -10   9  -8  262.68   13.34
  10   9  -8  223.75   15.28
  10  -9  -8  245.89   20.40
  10  -9  -7    8.85    8.05
 -10   9  -7    8.15    5.10
  10   9  -7   -6.44    7.29
  10  -9  -6  118.22   15.26
 -10   9  -6  119.73   10.40
  10   9  -6  104.23    9.84
 -10   9  -5   48.43    7.73
  10   9  -5   35.96    7.55
  10  -9  -5   42.08   11.24
 -10   9  -4  207.50   13.51
  10   9  -4  225.75   14.50
  10  -9  -4  225.29   19.49
 -10   9  -3   57.47    8.46
  10   9  -3   50.53    7.63
  10  -9  -3   54.35   11.56
 -10   9  -2  345.00   17.22
  10   9  -2  343.43   15.96
  10  -9  -2  313.45   22.13
  10  -9  -1    2.16    8.56
  10   9  -1    3.87    4.37
 -10   9  -1    6.70    5.93
 -10   9   0  256.38   15.69
  10  -9   0  249.06   20.12
  10   9   0  222.72   11.67
  10  -9   1   -0.17    9.88
  10  -9   2  348.13   23.91
  10  -9   3   57.16   12.33
  10  -9   4  191.41   18.37
  10  -9   5   48.48   11.80
  10  -9   6  101.43   15.25
  10  -9   7    2.74    9.52
  10  -9   8  247.15   21.67
  10   9   9   22.35    8.25
  10   9  10   61.10   10.76
  10   9  11   35.48    8.78
  10   9  12   57.79   10.14
  10   9  13   17.88    8.18
  10   9  14  126.14   13.16
  10 -10 -12  112.28   14.93
  10 -10 -11    7.78    8.92
  10 -10 -10  245.42   20.65
  10 -10  -9   29.99   10.31
 -10  10  -9   41.99   12.70
 -10  10  -8  237.52   13.46
  10 -10  -8  224.65   19.78
 -10  10  -7   20.19    5.76
  10 -10  -7   44.42   11.73
 -10  10  -6  254.69   15.09
  10 -10  -6  248.50   21.24
 -10  10  -5    0.32    5.99
  10 -10  -5    4.79    8.22
 -10  10  -4  343.71   17.86
  10 -10  -4  363.53   24.92
 -10  10  -3   29.25    7.66
  10 -10  -3   49.88   12.34
 -10  10  -2  395.58   19.71
  10 -10  -2  376.77   24.92
 -10  10  -1   28.96    8.22
  10 -10  -1   11.11    9.13
 -10  10   0  341.45   19.19
  10 -10   0  306.89   22.94
 -10  10   1   21.66    7.93
  10 -10   1   12.56    9.89
  10 -10   2  348.29   25.06
  10 -10   3   41.66   12.29
  10 -10   4  339.04   25.24
  10 -10   5    5.76   10.43
  10 -10   6  268.37   22.49
  10 -10   7   31.62   11.52
  10  10   8  235.95   18.41
  10 -10   8  247.86   21.75
  10  10   9   33.90    9.66
  10  10  10  236.30   18.56
  10 -11 -10    5.24    8.07
  10 -11  -9   65.20   12.47
  10 -11  -8    8.39    8.27
 -10  11  -7   72.43    9.08
  10 -11  -7   66.93   12.17
 -10  11  -6    8.82    5.79
  10 -11  -6    4.55    8.32
 -10  11  -5  136.97   12.16
  10 -11  -5  132.67   16.19
 -10  11  -4   -2.50    6.08
  10 -11  -4   12.94    9.64
 -10  11  -3  106.15   11.73
  10 -11  -3   88.45   14.26
 -10  11  -2    9.01    7.07
  10 -11  -2   -5.05    9.69
 -10  11  -1   91.11   11.41
  10 -11  -1   81.49   14.52
 -10  11   0    9.36    7.60
  10 -11   0   -2.09    9.28
 -10  11   1  106.62   12.52
  10 -11   1   89.34   14.54
  10 -11   2    1.90    9.23
  10 -11   3  103.34   16.29
  10 -11   4    7.03    9.17
  10 -11   5  156.20   18.25
  10 -12  -7   75.34   13.82
  10 -12  -6  118.56   15.96
 -10  12  -5   68.05    9.74
  10 -12  -5   69.64   12.78
 -10  12  -4  108.99   11.99
  10 -12  -4   96.39   14.49
 -10  12  -3  151.59   13.99
  10 -12  -3  173.34   18.57
 -10  12  -2  173.77   14.51
  10 -12  -2  175.85   18.86
 -10  12  -1   88.03   11.80
  10 -12  -1   88.51   14.90
 -10  12   0  105.95   12.79
  10 -12   0   86.82   14.51
  10 -12   1   88.87   15.24
 -11   0 -18   10.46   10.35
 -11   0 -17  109.45   15.05
 -11   0 -16   10.55    9.77
 -11   0 -15  161.99   16.23
 -11   0 -14   -9.57    6.15
 -11   0 -14   20.49    9.28
 -11   0 -13  421.66   19.55
 -11   0 -13  435.80   21.91
 -11   0 -12   -4.51    7.82
 -11   0 -12    3.17    5.25
 -11   0 -11  174.76   14.11
 -11   0 -11  186.57   12.99
 -11   0 -10    6.99    7.12
 -11   0  -9 1146.64   29.45
 -11   0  -8   -2.01    6.54
 -11   0  -8   -3.71    5.23
 -11   0  -7 1221.83   27.25
 -11   0  -6   -2.95    4.05
 -11   0  -5 1889.78   31.07
 -11   0  -4    2.41    3.57
 -11   0  -3 1099.86   23.06
  11   0   0   18.17    5.67
  11   0   1 1269.68   25.21
  11   0   2   -0.46    4.42
  11   0   3 1121.60   23.49
  11   0   4    1.71    3.93
  11   0   5 1899.62   31.53
  11   0   6   -2.44    4.28
  11   0   7 1306.85   27.06
 -11   0   7 1256.30   30.99
  11   0   8    0.79    0.96
 -11   0   8   -8.61    6.55
 -11   0   9 1238.18   32.76
 -11  -1 -19    3.74    9.69
 -11  -1 -18   14.30   10.30
 -11   1 -18   30.31   11.45
 -11   1 -17   30.29   11.50
 -11  -1 -17   30.77   10.59
 -11  -1 -16   94.82   13.40
 -11   1 -16   88.24   14.09
 -11  -1 -15   42.22   10.97
 -11   1 -15   40.50   10.98
 -11   1 -14   83.35   12.85
 -11  -1 -14   72.09   11.63
 -11  -1 -14   72.45    9.18
 -11   1 -13   10.83    8.67
 -11  -1 -13    9.97    5.37
 -11  -1 -13   23.18    9.02
 -11  -1 -12   83.28    9.06
 -11   1 -12   74.55    9.71
 -11   1 -12   77.40   12.06
 -11  -1 -12   85.70   11.31
 -11  -1 -11   82.55   10.61
 -11   1 -11   73.86   10.89
 -11   1 -11   95.54   10.62
 -11   1 -10  158.46   12.82
 -11   1 -10  171.21   13.97
 -11  -1 -10  148.05   11.99
 -11  -1  -9  623.28   20.80
 -11   1  -9  606.68   22.87
 -11   1  -9  617.28   22.72
 -11  -1  -9  610.48   19.48
 -11  -1  -8  209.85   12.48
 -11  -1  -8  204.22   11.09
 -11  -1  -7   80.63    7.28
 -11  -1  -7   68.11    7.80
 -11  -1  -6  234.49   10.61
 -11  -1  -5  135.89    7.85
 -11   1  -5  114.08    9.29
 -11   1  -4  267.88   13.06
 -11  -1  -4  271.50   10.61
 -11   1  -3   16.65    5.06
 -11   1  -2  789.14   21.32
  11  -1  -2  799.14   23.11
  11  -1  -1  559.99   18.99
  11  -1   0  515.93   17.98
  11   1   0  484.33   15.21
  11  -1   1  600.26   18.98
  11   1   1  610.63   16.37
  11   1   2  825.00   18.36
  11  -1   2  798.89   22.02
  11  -1   3   27.67    6.62
  11   1   3   23.59    4.75
  11   1   4  283.62   10.93
  11  -1   4  290.32   13.93
  11   1   5  134.17    7.94
  11  -1   5  125.19    9.92
  11   1   6  228.42   10.30
  11  -1   6  235.47   13.08
  11  -1   7   84.68    8.98
 -11  -1   7   73.76    8.79
  11  -1   8  210.55   12.97
 -11   1   8  181.10   13.10
 -11  -1   8  200.77   13.40
  11   1   9  613.12   11.45
 -11   1   9  624.67   23.82
 -11  -1   9  634.31   23.12
 -11  -1  10  160.33   13.15
 -11  -2 -19   -8.67   10.94
 -11  -2 -18   31.38    9.99
 -11  -2 -17   31.76   10.28
 -11   2 -17   51.69   13.21
 -11   2 -16  180.76   17.99
 -11  -2 -16  143.64   15.32
 -11   2 -15   44.66   11.77
 -11  -2 -15   54.65   11.07
 -11  -2 -14  250.34   17.67
 -11  -2 -14  248.86   13.96
 -11   2 -14  236.05   19.08
 -11  -2 -13   95.28   11.81
 -11  -2 -13   81.06    8.36
 -11   2 -13   91.67   13.70
 -11  -2 -12  448.29   19.93
 -11   2 -12  488.56   24.36
 -11  -2 -11   29.01    8.13
 -11  -2 -11   26.91    5.58
 -11   2 -11   18.54    6.95
 -11   2 -11   14.01    8.56
 -11   2 -10  179.87   14.67
 -11  -2 -10  202.14   12.95
 -11   2 -10  197.77   14.67
 -11  -2 -10  181.75   10.37
 -11   2  -9  234.62   16.23
 -11  -2  -9  216.58   12.64
 -11   2  -9  221.21   15.18
 -11  -2  -9  216.14   10.76
 -11  -2  -8   57.09    7.43
 -11  -2  -8   50.28    5.61
 -11   2  -8   64.62    9.11
 -11  -2  -7  513.53   16.13
 -11   2  -7  522.14   21.35
 -11  -2  -7  507.31   13.97
 -11  -2  -6  974.25   17.76
 -11  -2  -6  978.77   20.26
 -11  -2  -5  268.16    9.08
  11  -2  -3  230.38   14.02
  11  -2  -2   27.00    7.04
  11  -2  -1  898.62   24.98
  11  -2   0 1567.94   32.65
  11   2   1  922.69   18.24
  11  -2   1  939.43   25.29
  11   2   2   32.71    4.42
  11  -2   2   29.23    6.65
  11  -2   3  220.44   13.43
  11   2   3  233.16    8.73
  11   2   4  975.69   16.35
  11  -2   4  955.00   26.22
  11  -2   4  937.67   13.31
 -11  -2   4  897.31   21.68
  11  -2   5  257.90    6.23
  11   2   5  285.30    9.08
  11  -2   5  266.53   14.72
  11  -2   6  978.27   27.46
  11  -2   7  512.35   20.47
 -11  -2   7  531.60   19.88
 -11  -2   8   65.53    9.28
  11  -2   8   65.69    9.29
  11   2   9  220.23    9.09
 -11  -2   9  221.79   14.26
 -11   2   9  226.90   15.14
  11   2  10  190.60    8.50
 -11  -2  10  214.05   14.80
  11   2  11   16.92    3.84
 -11  -3 -19   17.33    8.72
 -11  -3 -18  -10.38   10.25
 -11  -3 -17   58.41   10.97
 -11   3 -17   88.31   15.40
 -11   3 -16   42.29   13.00
 -11  -3 -16  -15.19    9.85
 -11  -3 -15  154.15   14.89
 -11   3 -15  185.54   19.09
 -11  -3 -14   -2.78    7.90
 -11   3 -14    1.52   10.12
 -11   3 -13  156.76   16.74
 -11  -3 -13  141.22   13.23
 -11  -3 -12   16.82    7.88
 -11   3 -12    8.34    8.56
 -11  -3 -12   28.50    5.38
 -11  -3 -11  207.32   10.24
 -11   3 -11  233.09   18.21
 -11  -3 -11  223.13   13.90
 -11   3 -10  332.93   20.09
 -11   3 -10  317.82   18.79
 -11  -3 -10  294.05   11.40
 -11  -3 -10  314.85   15.11
 -11  -3  -9  835.62   21.39
 -11   3  -9  914.11   30.40
 -11  -3  -9  813.17   16.88
 -11  -3  -8   45.25    4.14
 -11  -3  -8   55.22    6.81
 -11   3  -8   52.68    9.02
 -11  -3  -7  119.64    5.36
 -11  -3  -7  141.72    8.55
 -11   3  -7  129.01   12.38
 -11  -3  -6   98.31    6.71
 -11   3  -6   95.40   10.43
 -11  -3  -5  167.23    7.47
  11  -3  -5  167.64   13.30
 -11   3  -5  154.95   12.36
 -11   3  -4  162.60   12.07
 -11  -3  -4  162.86    6.66
  11  -3  -4  154.66   12.43
  11  -3  -3  795.45   25.89
  11  -3  -2   16.91    6.14
  11  -3  -1  252.49   14.62
  11  -3  -1  259.92   10.89
  11  -3   0  355.68   17.26
  11  -3   0  390.06   12.32
  11  -3   1  269.24   10.04
 -11  -3   1  252.67    9.19
  11  -3   1  249.75   14.77
  11  -3   2   22.50    3.85
  11   3   2   19.29    3.09
  11  -3   2   14.49    6.11
 -11  -3   2   11.05    3.81
  11  -3   3  772.11   15.01
  11  -3   3  815.77   25.77
  11   3   3  751.42   11.83
 -11  -3   3  779.54   18.30
  11   3   4  144.57    4.41
  11  -3   4  168.53   12.87
 -11  -3   4  167.11    9.70
 -11  -3   5  175.03   10.55
  11  -3   5  155.88   12.61
  11  -3   6   94.81   10.56
 -11  -3   7  127.52   10.60
  11  -3   7  126.65   12.13
  11  -3   8   51.73    9.48
 -11  -3   8   61.14    8.93
  11  -3   9  831.38   28.59
 -11  -3   9  829.39   25.98
  11   3  10  278.73   11.84
 -11  -3  10  330.61   17.45
  11   3  11  192.83   10.05
  11   3  12   23.22    4.87
 -11   4 -16   68.77   14.38
 -11   4 -15   25.59   11.64
 -11  -4 -15   -3.40    8.06
 -11  -4 -14   38.74    8.84
 -11   4 -14   31.36   11.29
 -11   4 -13   38.86   12.49
 -11  -4 -13   25.45    7.50
 -11  -4 -12  311.47   17.06
 -11   4 -12  328.08   22.36
 -11  -4 -12  296.19   10.65
 -11   4 -11   58.79   12.04
 -11  -4 -11   49.22    4.49
 -11  -4 -11   46.85    7.93
 -11  -4 -10  150.89   11.08
 -11   4 -10  156.75   15.50
 -11  -4  -9    4.83    5.93
 -11  -4  -8   14.26    4.91
 -11   4  -8   19.99    7.20
 -11  -4  -7   27.03    4.63
  11  -4  -7   25.22    6.08
  11  -4  -7   20.37    7.90
 -11   4  -7   26.80    7.56
  11  -4  -6  279.92   14.11
  11  -4  -6  289.70   18.26
 -11  -4  -6  294.36    9.24
 -11   4  -6  323.64   18.60
  11  -4  -5  220.91   12.38
  11  -4  -5  196.47   14.88
 -11  -4  -5  221.67    6.79
 -11   4  -5  220.18   15.20
  11  -4  -4  538.19   18.17
  11  -4  -4  532.46   22.86
 -11  -4  -4  509.99    7.91
  11  -4  -3   55.88    6.66
  11  -4  -3   64.06    9.41
  11  -4  -2   51.16    9.02
  11  -4  -2   47.98    6.09
 -11  -4  -1   18.98    1.88
  11  -4  -1   21.09    7.18
  11  -4  -1   21.84    4.85
  11  -4   0 1008.55   21.59
 -11  -4   0 1008.13   13.04
  11  -4   0 1009.90   30.23
  11  -4   1   20.68    4.15
 -11  -4   1   25.11    3.79
  11  -4   1   15.71    6.51
  11  -4   2   43.73    5.02
 -11  -4   2   47.88    5.09
  11   4   2   40.56    3.07
  11  -4   2   39.12    8.12
  11  -4   3   65.34    9.91
 -11  -4   3   75.75    6.54
 -11  -4   4  539.28   16.10
  11  -4   4  539.99   22.79
  11  -4   5  204.39   15.15
 -11  -4   5  215.92   11.55
  11  -4   6  269.88   17.23
 -11  -4   7   27.91    6.88
  11  -4   7   28.85    7.96
 -11  -4   8   19.01    6.58
  11  -4   8   24.62    8.51
  11  -4   9   14.04    7.80
 -11  -4   9   14.22    6.64
  11   4  10  152.85   10.39
  11   4  11   56.58    7.16
  11   4  12  296.98   13.70
  11   4  13   31.12    5.84
 -11   5 -15   21.18   12.23
 -11   5 -14  227.41   21.21
 -11   5 -13   13.63   11.27
 -11   5 -12  267.07   21.18
 -11   5 -11   25.53    9.82
 -11   5 -10  476.80   25.05
  11  -5  -9   -1.67    7.69
  11  -5  -8  143.48   14.74
  11  -5  -7    4.89    7.62
  11  -5  -6  626.58   26.95
 -11   5  -6  620.76   26.35
 -11   5  -5   -3.17    6.45
  11  -5  -5    8.24    5.03
  11  -5  -5    7.40    6.97
 -11   5  -4  862.34   29.39
  11  -5  -4  858.69   24.01
  11  -5  -4  833.03   29.49
  11  -5  -3   41.36    9.43
  11  -5  -3   33.27    6.31
 -11   5  -3   39.41    7.73
  11  -5  -2  981.33   31.20
  11  -5  -2  927.53   23.81
 -11   5  -2  954.16   30.37
  11  -5  -1  102.88    8.69
 -11   5  -1  115.85   11.68
  11  -5  -1  122.86   12.38
  11  -5   0 1033.79   24.07
 -11   5   0 1096.30   32.07
  11  -5   0 1079.08   32.73
  11   5   1  117.58    5.76
 -11   5   1  110.54   11.09
 -11  -5   1   98.60    4.75
  11  -5   1  111.81   12.22
  11   5   2  816.06   11.05
 -11  -5   2  923.68   16.30
  11  -5   2  891.42   30.16
 -11  -5   3   30.72    4.65
  11  -5   3   34.75    9.33
 -11  -5   4  813.80   19.49
  11  -5   4  857.18   29.83
 -11  -5   5   -0.10    4.69
  11  -5   5   -6.98    8.35
  11  -5   6  624.43   26.49
 -11  -5   7    3.58    5.70
  11  -5   7   -0.03    7.86
 -11  -5   8  174.23   12.44
  11  -5   8  153.35   15.22
  11  -5   9   -2.60    8.08
 -11  -5   9   -2.76    6.32
  11   5  10  488.39   18.58
  11   5  11   30.40    6.77
  11   5  12  247.62   13.98
  11   5  13    9.28    5.09
 -11   6 -14   83.72   15.18
  11  -6 -14   64.23   13.37
  11  -6 -13   19.98    9.81
 -11   6 -13   45.89   13.13
 -11   6 -12   -8.95   11.41
  11  -6 -12    4.09    8.15
 -11   6 -11   60.73   12.74
  11  -6 -11   40.53   11.00
  11  -6 -10   22.93    8.71
 -11   6 -10   16.67    9.42
  11  -6  -9   54.35   10.49
  11  -6  -8    4.77    7.23
  11  -6  -7  429.42   23.67
  11  -6  -6  377.55   21.96
  11  -6  -5    0.44    6.92
  11  -6  -4   52.45   10.11
  11  -6  -4   47.25    7.08
  11  -6  -3  338.12   15.62
  11  -6  -3  307.15   19.01
 -11   6  -2  143.74   12.91
  11   6  -2  129.93    9.04
  11  -6  -2  137.05   13.87
 -11   6  -1  201.00   15.03
  11   6  -1  182.99    9.77
  11  -6  -1  184.61   15.29
  11   6   0   59.82    5.55
 -11   6   0   49.58    8.76
  11  -6   0   57.58    9.85
 -11   6   1  203.70   15.11
  11   6   1  192.68    8.00
  11  -6   1  186.05   15.48
  11  -6   2  149.21   14.66
  11   6   2  111.23    4.42
  11  -6   3  290.71   19.33
  11  -6   4   40.70    9.57
 -11  -6   5   -1.19    5.23
  11  -6   5   -4.51    7.75
  11  -6   6  348.73   21.54
  11  -6   7  383.96   22.54
 -11  -6   7  430.60   17.63
 -11  -6   8   -6.26    6.51
  11  -6   8    8.75    8.50
 -11  -6   9   57.49    8.55
  11  -6   9   59.95   11.71
  11   6  10   21.72    6.59
  11   6  11   61.65    8.61
  11   6  12   13.71    5.99
  11   6  13   38.22    7.75
  11   6  14   89.70    9.65
  11  -7 -15   17.40    9.56
  11  -7 -14   32.21   10.97
  11  -7 -13   77.57   13.84
 -11   7 -13  107.34   16.46
 -11   7 -12   69.71   14.59
  11  -7 -12   79.84   13.99
 -11   7 -11  106.53   15.04
  11  -7 -11   96.21   14.76
 -11   7 -10   64.65   13.16
  11  -7 -10   74.54   12.65
  11  -7  -9  434.41   26.06
  11  -7  -8   66.13   12.38
  11  -7  -7  410.75   24.14
  11  -7  -6  424.05   23.95
  11   7  -6  398.63   18.35
  11  -7  -5  101.45   12.93
  11   7  -5  106.18    9.96
  11   7  -4  173.73   11.75
  11  -7  -4  171.93   16.16
  11   7  -3  320.34   14.96
  11  -7  -3  340.40   21.23
  11   7  -2  351.63   15.03
  11  -7  -2  349.35   21.66
  11   7  -1  255.49   12.28
  11  -7  -1  223.12   17.57
  11   7   0  204.96   10.23
  11  -7   0  195.14   16.64
  11  -7   1  249.48   18.79
  11   7   1  251.59    9.74
  11   7   2  290.67    7.71
  11  -7   2  323.89   21.12
  11  -7   3  330.35   21.77
  11  -7   4  183.47   16.78
  11  -7   5   70.37   12.20
  11  -7   6  410.04   24.34
  11  -7   7  358.18   23.31
  11  -7   8   58.49   12.39
  11  -7   9  394.29   24.61
  11   7  10   51.08    9.16
  11   7  11   97.57   10.93
  11   7  12   47.34    8.29
  11   7  13   75.22    9.82
  11   7  14   29.18    7.42
  11  -8 -15   -0.55    8.41
  11  -8 -14  138.91   17.58
  11  -8 -13    2.11    8.10
  11  -8 -12  119.03   15.92
 -11   8 -12  117.92   17.11
 -11   8 -11   -9.28   11.99
  11  -8 -11   28.84   10.35
 -11   8 -10  193.45   19.46
  11  -8 -10  185.24   18.49
  11  -8  -9   69.87   12.84
  11  -8  -8  326.15   22.97
  11  -8  -7    6.67    8.27
 -11   8  -7    8.23    4.90
 -11   8  -6  407.31   16.09
  11  -8  -6  363.71   23.54
  11  -8  -5   86.30   13.76
 -11   8  -5  118.13    9.75
  11   8  -5   96.90    9.95
 -11   8  -4  247.55   13.47
  11   8  -4  268.76   15.16
  11  -8  -4  253.77   20.12
  11   8  -3   -1.19    5.20
  11  -8  -3    4.61    8.58
  11   8  -2  547.20   19.33
  11  -8  -2  530.35   27.09
  11   8  -1   58.02    6.93
  11  -8  -1   71.36   12.18
  11  -8   0  251.23   19.46
  11   8   0  269.29   11.82
  11  -8   1   66.84   12.18
  11   8   1   60.48    5.49
  11  -8   2  546.97   28.18
  11  -8   3   -5.00    9.19
  11  -8   4  256.99   20.62
  11  -8   5  107.79   14.41
  11  -8   6  358.86   24.46
  11  -8   7   21.85   10.44
  11  -8   8  316.78   22.91
  11  -8   9   52.56   11.86
  11   8  10  179.23   14.89
  11   8  11    0.74    6.50
  11   8  12  112.29   12.10
  11   8  13   -7.75    7.00
  11   8  14  154.97   13.63
  11   8  15    9.12    6.75
  11  -9 -13  138.31   16.64
  11  -9 -12   44.86   11.21
  11  -9 -11   88.76   13.99
 -11   9 -10   39.04   11.99
  11  -9 -10   48.90   12.02
  11  -9  -9  154.97   17.24
  11  -9  -8   14.30    9.27
 -11   9  -8   26.17    5.77
 -11   9  -7  339.85   15.48
  11  -9  -7  329.94   23.75
  11  -9  -6   10.53    8.34
 -11   9  -6   21.43    6.08
 -11   9  -5  120.37   10.61
  11  -9  -5   99.30   14.30
 -11   9  -4   44.07    7.69
  11   9  -4   35.33    7.05
  11  -9  -4   26.59    9.97
 -11   9  -3  324.33   16.74
  11   9  -3  302.43   15.68
  11  -9  -3  282.07   21.53
 -11   9  -2   11.91    6.15
  11   9  -2   11.01    5.18
  11  -9  -2    3.77    8.28
  11  -9  -1  119.06   15.00
  11  -9   0   23.11   10.07
  11  -9   1  133.74   16.61
  11  -9   2   -1.17    9.19
  11  -9   3  291.21   22.49
  11  -9   4   43.21   11.68
  11  -9   5   85.33   14.04
  11  -9   6   20.68   11.04
  11  -9   7  332.45   24.58
  11  -9   8   23.47   11.19
  11   9   9  150.13   14.48
  11  -9   9  175.83   18.95
  11   9  10   29.83    8.78
  11   9  11   81.50   11.34
  11   9  12   44.78    9.13
  11   9  13  104.37   12.73
  11   9  14   31.61    8.46
  11 -10 -12    2.13    8.68
  11 -10 -11  169.90   18.26
  11 -10 -10   29.11   10.94
 -11  10  -9  190.85   19.31
  11 -10  -9  181.07   18.68
  11 -10  -8   28.92   10.60
 -11  10  -7  223.14   13.32
  11 -10  -7  265.02   22.20
 -11  10  -6   24.81    6.32
  11 -10  -6   22.90   10.65
 -11  10  -5  240.09   14.73
  11 -10  -5  201.55   19.54
 -11  10  -4    7.62    6.82
  11 -10  -4    8.42    8.79
 -11  10  -3  352.00   18.32
  11 -10  -3  360.67   25.15
 -11  10  -2   23.50    8.05
  11 -10  -2   11.59    9.31
  11 -10  -1  369.64   25.76
  11 -10   0   51.05   12.41
  11 -10   1  367.86   25.53
  11 -10   2   11.44   10.65
  11 -10   3  300.11   24.27
  11 -10   4    9.72   10.21
  11 -10   5  208.32   20.69
  11 -10   6   17.29   10.61
  11 -10   7  240.21   21.83
  11  10   9  176.37   16.35
  11  10  10   27.52    9.44
  11 -11 -10   24.18   10.00
  11 -11  -9   -8.44    8.81
  11 -11  -8   27.64    9.83
  11 -11  -7    3.39    8.46
 -11  11  -6  110.06   10.85
  11 -11  -6   96.98   14.59
 -11  11  -5    6.55    6.46
  11 -11  -5    3.72    8.76
 -11  11  -4  141.85   12.41
  11 -11  -4  169.65   18.28
 -11  11  -3   17.27    7.57
  11 -11  -3   12.43    9.37
 -11  11  -2  160.06   13.66
  11 -11  -2  139.72   17.37
  11 -11  -1   11.45   10.10
  11 -11   0   61.37   13.36
  11 -11   1    5.95    9.21
  11 -11   2  144.51   17.62
  11 -11   3   -2.69    9.56
  11 -11   4  139.52   17.76
 -11  12  -5  107.54   11.55
  11 -12  -5   97.96   14.67
 -11  12  -4  113.91   12.12
  11 -12  -4   93.69   14.74
 -11  12  -3  166.50   13.86
  11 -12  -3  121.24   16.40
  11 -12  -2   92.00   15.23
  11 -12  -1  134.88   17.23
 -12   0 -18  177.14   17.69
 -12   0 -17    0.63    9.83
 -12   0 -16  110.25   14.45
 -12   0 -15    6.07    9.05
 -12   0 -14  284.64   19.46
 -12   0 -13    7.63    8.21
 -12   0 -13    6.64    5.30
 -12   0 -12  137.52   11.78
 -12   0 -12  134.85   13.55
 -12   0 -11   -2.15    5.15
 -12   0 -11    3.43    7.58
 -12   0 -10  911.27   27.41
 -12   0 -10  897.41   26.84
 -12   0  -9   -2.15    7.28
 -12   0  -8 1327.08   30.39
 -12   0  -7   -3.51    5.49
 -12   0  -6  768.47   21.55
 -12   0  -5   -1.68    3.68
 -12   0  -4 1203.37   25.43
 -12   0  -3   -4.24    4.06
  12   0  -1   -1.29    4.81
  12   0   0  744.27   20.99
  12   0   1   11.90    5.39
  12   0   2 2350.80   35.71
  12   0   3   -0.65    4.68
  12   0   4 1173.14   25.19
  12   0   5   -7.10    5.22
  12   0   6  778.36   21.34
  12   0   7    7.23    5.10
 -12   0   7   -5.12    7.06
  12   0   8 1355.11   28.91
 -12   0   8 1338.46   33.31
 -12   0   9   -7.48    7.13
 -12  -1 -18   49.86   11.66
 -12   1 -18   49.93   11.78
 -12  -1 -17   61.61   12.29
 -12   1 -17   63.33   13.49
 -12  -1 -16   56.79   11.77
 -12   1 -16   46.55   12.08
 -12  -1 -15   74.17   12.37
 -12   1 -15   85.27   13.42
 -12   1 -14   37.27   11.31
 -12  -1 -14   29.95    9.95
 -12  -1 -14   27.71    6.64
 -12   1 -13   90.63   12.97
 -12  -1 -13   83.96    9.19
 -12  -1 -13   97.71   12.31
 -12  -1 -12   60.93   10.27
 -12  -1 -12   67.09    8.31
 -12   1 -12   67.14    9.17
 -12   1 -12   71.18   11.56
 -12  -1 -11   56.32    9.61
 -12   1 -11   52.41   10.63
 -12   1 -11   53.92    8.58
 -12   1 -10   60.18   10.63
 -12  -1 -10   76.38    9.87
 -12   1 -10   65.04    9.34
 -12  -1  -9  285.23   14.86
 -12   1  -9  300.27   17.15
 -12   1  -9  267.59   15.79
 -12  -1  -9  282.06   13.98
 -12   1  -8  292.64   15.85
 -12  -1  -8  294.66   14.54
 -12  -1  -8  288.23   13.40
 -12  -1  -7  357.81   14.94
 -12  -1  -7  370.77   14.20
 -12  -1  -6  149.50    8.99
 -12  -1  -5  406.18   13.79
 -12   1  -4  196.68   11.74
 -12  -1  -4  196.65    9.62
 -12   1  -3  403.04   16.09
 -12   1  -2   12.29    4.30
  12  -1  -2    7.48    4.91
  12  -1  -1  259.34   13.85
  12  -1   0 1622.74   32.35
  12   1   0 1661.36   29.07
  12  -1   1  275.17   13.83
  12   1   1  284.00   12.13
  12  -1   2   16.90    6.04
  12   1   2   19.64    4.81
  12  -1   3  385.27   16.57
  12   1   3  397.54   13.71
  12   1   4  217.91   10.15
  12  -1   4  186.71   11.91
  12   1   5  391.30   13.56
  12  -1   5  357.46   16.04
  12   1   6  159.17    9.14
  12  -1   6  165.45   11.64
 -12  -1   6  155.20   11.04
  12   1   7  372.73   13.56
  12  -1   7  357.75   16.56
 -12  -1   7  377.10   17.37
  12  -1   8  294.78   15.34
 -12  -1   8  293.41   16.15
  12   1   9  285.66    8.17
 -12   1   9  269.73   16.37
 -12  -1   9  279.74   16.34
 -12  -2 -19   10.06    8.87
 -12  -2 -18   13.03    9.38
 -12  -2 -17   47.66   11.23
 -12   2 -17   84.90   14.70
 -12  -2 -16   21.41    9.17
 -12   2 -16   38.56   12.22
 -12   2 -15  204.25   18.79
 -12  -2 -15  182.73   16.11
 -12  -2 -14  104.20   12.60
 -12   2 -14   76.88   13.11
 -12  -2 -14   95.78    9.30
 -12   2 -13  316.02   21.06
 -12  -2 -13  305.16   18.08
 -12  -2 -13  234.38   13.13
 -12   2 -12   11.84    8.73
 -12  -2 -12   10.88    7.62
 -12  -2 -11  424.57   18.82
 -12   2 -11  421.35   20.92
 -12  -2 -11  425.12   16.11
 -12   2 -11  424.48   22.45
 -12   2 -10   79.70   12.17
 -12  -2 -10  104.17   10.30
 -12  -2 -10   75.49    7.38
 -12   2 -10   88.18   10.70
 -12   2  -9  147.42   12.85
 -12  -2  -9  154.16   11.01
 -12  -2  -9  144.09    9.12
 -12   2  -9  139.81   13.34
 -12  -2  -8  465.48   16.67
 -12   2  -8  480.69   21.41
 -12  -2  -8  480.67   14.85
 -12  -2  -7  264.30   10.56
 -12  -2  -7  272.35   12.43
 -12   2  -7  283.00   16.38
 -12  -2  -6  288.09   10.42
 -12  -2  -6  302.58   12.17
 -12   2  -6  301.53   16.23
  12  -2  -3  641.85   23.07
  12  -2  -2  430.48   18.82
  12  -2  -1  352.70   16.71
  12  -2   0  260.38   14.47
  12   2   1  377.55   12.66
  12  -2   1  339.45   16.63
  12   2   2  421.67   12.65
  12  -2   2  414.85   18.27
  12  -2   3  618.66   21.79
  12   2   3  650.39   15.12
  12  -2   4  301.97    8.19
  12   2   4  291.68   10.01
 -12  -2   4  281.97   12.72
  12  -2   4  292.56   15.50
  12  -2   5  393.36    8.27
  12   2   5  448.49   11.89
  12  -2   5  400.29   18.35
  12   2   6  317.25   10.33
  12  -2   6  279.50   15.81
  12  -2   7  259.14   15.48
 -12  -2   7  272.26   14.86
  12  -2   8  461.81   20.58
 -12  -2   8  508.46   20.14
  12   2   9  141.32    7.54
 -12  -2   9  162.45   12.87
  12  -2   9  149.95   12.96
  12   2  10   75.26    5.82
  12   2  11  442.22   12.37
 -12  -3 -19  -41.48   10.46
 -12  -3 -18   72.82   11.84
 -12  -3 -17   -1.99    9.22
 -12   3 -16  117.98   16.58
 -12  -3 -16  117.91   13.70
 -12  -3 -15   13.82    7.91
 -12   3 -15   26.36   12.01
 -12  -3 -14  131.47   13.47
 -12   3 -14  116.75   15.77
 -12  -3 -13    6.17    7.13
 -12   3 -13   13.66   10.29
 -12  -3 -13   10.05    4.48
 -12   3 -12  304.84   21.16
 -12  -3 -12  281.37   12.22
 -12  -3 -12  300.97   16.64
 -12   3 -11   30.63    9.98
 -12  -3 -11   35.71    5.12
 -12  -3 -10  215.44   13.11
 -12  -3 -10  201.67    9.52
 -12   3 -10  188.79   16.56
 -12  -3  -9   76.65    5.75
 -12  -3  -9   90.27    9.46
 -12   3  -9   75.94   10.49
 -12  -3  -8  293.04    9.21
 -12  -3  -8  318.24   13.06
 -12   3  -8  306.15   18.02
 -12   3  -7   -1.41    5.85
 -12  -3  -7    4.62    4.51
 -12  -3  -6  343.35   11.49
 -12   3  -6  328.50   18.12
 -12   3  -5   95.21   10.24
  12  -3  -5   77.68   10.29
 -12  -3  -5  101.79    6.30
 -12   3  -4  263.45   15.51
  12  -3  -4  267.27   16.30
 -12   3  -3  212.99   13.90
  12  -3  -3  209.79   14.64
  12  -3  -2  371.08   18.24
  12  -3  -1   30.84    7.17
  12  -3   0  707.97   24.22
  12  -3   0  707.76   17.16
  12  -3   1   28.37    7.47
  12  -3   1   32.86    4.59
  12   3   2  411.62   10.99
  12  -3   2  383.69   11.66
 -12  -3   2  350.38   12.27
  12  -3   2  366.54   18.39
  12  -3   3  200.28    8.19
 -12  -3   3  198.57   10.16
  12  -3   3  210.31   13.94
  12   3   3  210.33    7.34
  12  -3   4  263.81    8.73
  12   3   4  250.96    6.89
  12  -3   4  242.31   15.36
 -12  -3   4  263.55   12.09
  12  -3   5   90.64   10.43
  12  -3   6  326.67   18.16
  12  -3   7   -0.44    6.56
 -12  -3   7    2.40    5.78
 -12  -3   8  297.02   15.81
  12  -3   8  317.01   18.45
  12  -3   9   72.43   11.24
 -12  -3   9   71.58    9.55
  12   3  10  185.36   10.03
  12   3  11   36.17    5.51
  12   3  12  296.35   12.02
 -12   4 -16   41.53   13.13
 -12  -4 -16    9.46    7.80
 -12   4 -15  105.00   15.76
 -12  -4 -15   82.91   11.26
 -12  -4 -14    0.65    6.69
 -12   4 -14   14.30   10.68
 -12   4 -13   66.73   13.53
 -12  -4 -13   50.51    8.93
 -12   4 -12   57.38   12.21
 -12  -4 -12   65.61    5.27
 -12  -4 -12   54.40    8.69
 -12   4 -11  250.65   19.42
 -12  -4 -11  243.20   14.27
 -12  -4 -11  217.87    7.85
 -12  -4 -10   57.57    8.17
 -12  -4 -10   29.28    2.62
 -12   4 -10   40.56   10.26
 -12  -4  -9   84.02    8.12
 -12  -4  -8    8.55    5.30
 -12   4  -7   30.54    7.69
 -12  -4  -7   50.31    5.52
  12  -4  -7   32.15    8.81
 -12   4  -6   14.66    5.97
  12  -4  -6   16.66    5.66
 -12  -4  -6   16.76    3.59
  12  -4  -6    8.12    6.49
 -12   4  -5  406.94   20.45
 -12  -4  -5  401.86    9.15
  12  -4  -5  403.90   16.53
  12  -4  -5  393.46   21.05
 -12   4  -4  194.14   14.45
  12  -4  -4  165.52   10.83
  12  -4  -4  185.80   14.61
 -12  -4  -4  175.15    5.22
 -12  -4  -3  371.32    6.32
  12  -4  -3  421.75   15.92
  12  -4  -3  409.31   20.24
 -12   4  -3  412.61   20.06
  12  -4  -2    6.97    6.75
  12  -4  -2    7.15    4.05
 -12  -4  -2    3.17    1.28
  12  -4  -1  334.43   18.05
  12  -4  -1  322.24   13.22
 -12  -4  -1  310.76    7.11
  12  -4   0  413.11   14.40
 -12  -4   0  390.90    9.21
  12  -4   0  413.66   20.10
 -12  -4   1  320.33    9.61
  12  -4   1  337.14   12.69
  12  -4   1  344.27   18.58
  12  -4   2    5.09    3.27
  12   4   2    4.82    1.94
 -12  -4   2   11.45    4.46
  12  -4   2    6.76    7.02
 -12  -4   3  414.59   13.32
  12  -4   3  423.02   20.70
 -12  -4   4  180.02   10.23
  12  -4   4  176.91   14.30
  12  -4   5  410.32   20.64
  12  -4   6   14.63    7.16
 -12  -4   7   31.07    7.28
  12  -4   7   29.22    8.88
 -12  -4   8   10.27    6.40
  12  -4   8    2.57    7.15
 -12  -4   9   87.91    9.84
  12  -4   9   76.46   11.84
  12   4  10   33.35    6.21
  12  -4  10   39.91   10.23
  12   4  11  237.52   12.42
  12   4  12   73.59    7.87
  12   4  13   65.59    7.36
 -12   5 -15  224.32   21.12
 -12   5 -14    9.90   11.62
 -12   5 -13  277.66   22.34
 -12   5 -12   84.77   14.12
 -12   5 -11  299.96   21.80
  12  -5 -10    4.19    8.09
  12  -5  -9  301.92   21.62
  12  -5  -8   -0.23    7.82
  12  -5  -7  539.28   26.39
  12  -5  -6   18.59    8.21
 -12   5  -5  662.72   26.52
  12  -5  -5  619.84   20.94
  12  -5  -5  647.78   27.09
 -12   5  -4    9.44    6.21
  12  -5  -4    5.12    4.54
  12  -5  -4   10.17    7.60
  12  -5  -3  928.01   25.07
 -12   5  -3  943.29   30.86
  12  -5  -3  927.67   31.27
  12  -5  -2   11.92    8.01
  12  -5  -2   15.94    5.12
 -12   5  -2   15.54    6.07
  12  -5  -1  675.15   20.18
 -12   5  -1  714.20   26.87
  12  -5  -1  695.64   26.97
  12  -5   0   -1.91    4.37
 -12   5   0    1.34    4.78
  12  -5   0   -2.53    7.30
 -12  -5   1  669.17   11.98
  12  -5   1  690.52   27.00
 -12  -5   2   11.56    3.48
  12   5   2    9.70    1.83
  12   5   2    6.65    1.61
  12  -5   2   25.97    8.65
 -12  -5   3  929.97   19.25
  12  -5   3  908.30   31.31
  12  -5   4   -0.81    7.98
 -12  -5   4    7.01    4.43
 -12  -5   5  578.24   18.38
  12  -5   5  614.70   26.83
  12  -5   6   11.50    8.19
 -12  -5   7  505.01   19.43
  12  -5   7  513.33   25.19
 -12  -5   8   -4.68    5.99
  12  -5   8   -2.88    7.68
 -12  -5   9  306.69   16.60
  12  -5   9  277.58   19.63
  12   5  10    1.52    5.77
  12  -5  10   -4.24    7.59
  12   5  11  281.52   15.01
  12   5  12   65.99    8.19
  12   5  13  274.41   14.38
  12  -6 -15  -22.23   11.67
 -12   6 -14   34.84   12.84
  12  -6 -14   35.07   10.79
 -12   6 -13   86.53   15.95
  12  -6 -13   54.89   12.36
  12  -6 -12   33.21   11.01
 -12   6 -12   48.10   13.55
 -12   6 -11   11.52    9.70
  12  -6 -11    8.27    8.88
  12  -6 -10   77.74   13.60
  12  -6  -9  120.25   15.17
  12  -6  -8   74.34   12.37
  12  -6  -7   74.53   11.87
  12  -6  -6  247.11   18.67
  12  -6  -5  116.89   13.65
  12  -6  -4   21.13    9.02
  12  -6  -3  162.43   15.64
  12  -6  -3  141.07   10.69
  12  -6  -2  258.66   13.94
  12  -6  -2  257.95   18.29
  12   6  -1   14.71    4.39
  12  -6  -1   14.21    7.99
  12   6   0  147.01    8.13
  12  -6   0  170.51   15.53
  12   6   1   13.33    2.94
  12  -6   1   13.39    8.20
  12  -6   2  240.48   17.91
  12   6   2  202.90    5.44
  12  -6   3  159.49   15.55
  12  -6   4   15.95    8.52
 -12  -6   4   20.39    4.80
 -12  -6   5  123.44    9.08
  12  -6   5  109.18   13.39
  12  -6   6  234.39   18.45
  12  -6   7   77.70   12.00
 -12  -6   7   77.36    8.72
  12  -6   8   84.81   13.29
 -12  -6   8   85.50    9.30
  12  -6   9  133.85   15.36
 -12  -6   9  125.79   11.14
  12   6  10   73.69    9.30
  12  -6  10   97.00   13.74
  12   6  11    3.49    5.92
  12   6  12   49.30    7.88
  12   6  13   54.63    8.42
  12   6  14   34.26    7.01
  12  -7 -15   27.01   10.32
  12  -7 -14   64.57   12.85
 -12   7 -13   54.14   14.40
  12  -7 -13   45.98   12.25
  12  -7 -12   50.88   12.38
 -12   7 -12   39.24   12.56
  12  -7 -11   74.76   14.18
 -12   7 -11   74.16   13.70
  12  -7 -10  241.12   21.01
  12  -7  -9   82.52   13.39
  12  -7  -8  442.22   26.00
  12  -7  -7   67.55   12.41
  12  -7  -6  200.49   17.80
  12   7  -6  174.91   12.54
  12  -7  -5  354.70   22.54
  12   7  -5  326.13   15.98
  12   7  -4  187.59   12.03
  12  -7  -4  174.67   16.32
  12   7  -3  166.09   11.01
  12  -7  -3  190.49   17.13
  12   7  -2  351.90   14.74
  12  -7  -2  339.24   21.79
  12   7  -1  345.43   13.83
  12  -7  -1  385.22   23.21
  12   7   0  228.36   10.48
  12  -7   0  247.87   18.83
  12   7   1  354.81   11.07
  12  -7   1  344.67   21.71
  12   7   2  271.96    6.28
  12  -7   2  354.69   22.69
  12  -7   3  179.16   17.06
  12  -7   4  178.01   17.12
  12  -7   5  330.90   22.05
  12  -7   6  165.32   17.37
  12  -7   7   60.86   11.87
  12  -7   8  426.73   25.52
  12  -7   9   97.96   14.42
  12   7  10  243.74   16.32
  12  -7  10  260.13   21.42
  12   7  11   53.73    8.97
  12   7  12   34.70    7.78
  12   7  13   32.02    7.47
  12   7  14   60.76    8.91
  12  -8 -14   -1.48    8.70
  12  -8 -13  109.00   16.06
  12  -8 -12   13.85    9.88
  12  -8 -11  111.75   15.92
 -12   8 -11  103.75   16.40
  12  -8 -10   11.93    9.19
 -12   8 -10    2.21   11.26
  12  -8  -9  335.51   24.22
  12  -8  -8    1.79    7.54
  12  -8  -7  410.82   25.93
  12  -8  -6   28.41   10.40
  12   8  -5  271.35   15.55
  12  -8  -5  276.10   20.97
  12  -8  -4    6.89    8.53
  12   8  -4   29.31    6.86
  12   8  -3  464.05   18.34
  12  -8  -3  552.62   28.39
  12   8  -2   14.75    5.11
  12  -8  -2   23.87   10.01
  12   8  -1  266.01   12.66
  12  -8  -1  258.21   20.07
  12   8   0  287.96   11.81
  12  -8   0  264.70   20.32
  12  -8   1  273.94   20.61
  12   8   1  262.59    9.71
  12   8   2    9.10    1.68
  12  -8   2    7.41    9.64
  12  -8   3  456.21   26.51
  12  -8   4   11.54    9.37
  12  -8   5  273.13   21.36
  12  -8   6   24.45   10.69
  12  -8   7  434.27   26.85
  12  -8   8   33.35   11.24
  12  -8   9  295.74   22.72
  12   8  10    6.18    6.59
  12   8  11   95.10   11.34
  12   8  12   -0.19    7.09
  12   8  13  106.95   11.95
  12   8  14    3.92    6.56
  12  -9 -13   64.60   13.44
  12  -9 -12   96.85   14.91
  12  -9 -11   64.50   12.88
  12  -9 -10  163.85   18.15
 -12   9 -10  143.46   17.42
  12  -9  -9   12.76    9.99
  12  -9  -8  273.24   22.25
  12  -9  -7   26.92   11.12
  12  -9  -6  222.52   20.76
  12  -9  -5   15.98    9.08
  12  -9  -4  150.35   17.17
  12  -9  -3   25.25   10.40
  12  -9  -2  188.13   18.62
  12  -9  -1   20.96   10.26
  12  -9   0  112.63   15.37
  12  -9   1   21.56   10.80
  12  -9   2  188.57   19.12
  12  -9   3   13.92    9.68
  12  -9   4  129.04   16.50
  12  -9   5   14.52    9.38
  12  -9   6  219.05   20.88
  12  -9   7   41.81   12.43
  12  -9   8  253.66   21.94
  12  -9   9   26.84   11.47
  12   9  10  140.76   13.93
  12   9  11   43.64    9.75
  12   9  12   70.10   10.70
  12   9  13   48.64    9.81
  12 -10 -11   -5.10    9.32
  12 -10 -10  112.82   15.73
  12 -10  -9   53.09   12.68
  12 -10  -8  173.74   18.56
  12 -10  -7   21.12   10.56
  12 -10  -6  267.65   22.43
  12 -10  -5   16.53    9.56
  12 -10  -4  225.59   21.05
  12 -10  -3    2.85    8.82
  12 -10  -2  326.43   24.42
  12 -10  -1   43.12   12.04
  12 -10   0  499.12   29.72
  12 -10   1   41.76   12.38
  12 -10   2  317.35   24.42
  12 -10   3   -0.35   10.66
  12 -10   4  223.93   21.52
  12 -10   5   19.06   11.48
  12 -10   6  219.72   21.33
  12 -10   7   45.91   12.58
  12  10   9   29.28    9.59
  12 -11  -8   -1.61    8.32
  12 -11  -7   45.03   11.50
  12 -11  -6   10.04    9.62
  12 -11  -5  111.10   15.38
  12 -11  -4    5.94    9.56
  12 -11  -3  131.20   16.45
  12 -11  -2  -12.21   11.54
  12 -11  -1  154.58   18.38
  12 -11   0   12.77   10.32
  12 -11   1  174.03   19.59
  12 -11   2    0.54    9.68
  12 -11   3  145.80   18.58
 -13   0 -18    2.35    9.59
 -13   0 -17  171.19   17.24
 -13   0 -16   -3.99    8.36
 -13   0 -15  168.43   16.25
 -13   0 -14    7.58    9.01
 -13   0 -13  186.49   13.67
 -13   0 -13  168.44   15.40
 -13   0 -12   -4.90    7.94
 -13   0 -12    4.82    5.62
 -13   0 -11  420.70   20.80
 -13   0 -11  424.40   19.26
 -13   0 -10   -2.67    7.49
 -13   0 -10   -1.77    4.87
 -13   0  -9 1124.89   29.72
 -13   0  -8    8.91    7.31
 -13   0  -7 1211.92   28.54
 -13   0  -6   -1.58    3.57
 -13   0  -5  234.21   12.42
 -13   0  -4   -0.16    3.57
 -13   0  -3  600.00   18.54
  13   0  -1 1903.64   35.40
  13   0   0   35.23    6.80
  13   0   1 1896.58   33.61
  13   0   2    5.45    5.15
  13   0   3  606.56   19.49
  13   0   4   -3.17    4.62
  13   0   5  220.33   12.22
  13   0   6   -2.46    5.36
  13   0   7 1177.47   27.24
  13   0   8    6.71    6.24
 -13   0   8  -14.72    7.58
 -13   0   9 1135.69   31.81
 -13  -1 -18   43.34   11.26
 -13  -1 -17   70.00   13.00
 -13   1 -17   74.55   14.10
 -13  -1 -16   34.33   10.44
 -13   1 -16   53.60   12.52
 -13   1 -15   29.09   10.81
 -13  -1 -15   19.83    9.33
 -13  -1 -14  240.52   17.85
 -13  -1 -14  211.52   13.80
 -13   1 -14  241.15   18.94
 -13   1 -13   79.53   12.80
 -13  -1 -13   87.53    9.53
 -13  -1 -13   78.77   11.61
 -13   1 -12   35.15   10.17
 -13  -1 -12   35.11    9.07
 -13   1 -12   36.57    7.71
 -13  -1 -12   37.69    6.83
 -13  -1 -11   20.46    7.99
 -13   1 -11   16.58    8.55
 -13   1 -11   25.48    7.03
 -13  -1 -10  137.28   12.37
 -13   1 -10  128.05   13.08
 -13   1 -10  143.16   12.19
 -13  -1  -9   58.53    7.30
 -13   1  -9   64.21   10.34
 -13  -1  -9   61.90    9.07
 -13   1  -9   72.98    9.49
 -13  -1  -8  402.14   16.96
 -13   1  -8  411.09   18.97
 -13  -1  -8  372.74   15.38
 -13  -1  -7   29.07    6.49
 -13  -1  -7   39.06    5.93
 -13  -1  -6  370.31   14.37
 -13  -1  -5  207.71   10.46
  13  -1  -2  299.94   15.85
  13  -1  -1  202.07   13.09
  13  -1   0   34.28    7.04
  13   1   0   27.00    5.42
  13  -1   1  194.89   12.65
  13   1   1  215.21   11.21
  13   1   2  323.51   13.20
  13  -1   2  321.08   15.71
  13  -1   3  506.86   19.42
  13   1   3  523.71   16.46
  13   1   4  271.77   11.87
  13  -1   4  264.73   14.24
  13   1   5  209.95   10.79
  13  -1   5  205.10   12.94
  13   1   6  378.02   14.04
  13  -1   6  375.49   17.40
 -13  -1   6  362.65   16.94
  13   1   7   44.61    6.17
  13  -1   7   43.28    7.71
 -13  -1   7   26.87    7.18
  13  -1   8  438.17   18.92
 -13  -1   8  397.28   18.72
  13   1   9   61.11    4.35
 -13  -1   9   67.51    9.75
  13  -1   9   73.39    9.30
  13   1  10  130.88    5.35
 -13  -2 -19    1.15    9.00
 -13  -2 -18   28.78   10.43
 -13  -2 -17   29.65   10.02
 -13   2 -17   34.42   12.08
 -13   2 -16  113.70   16.23
 -13  -2 -16  110.52   13.44
 -13   2 -15   28.70   11.38
 -13  -2 -15   14.50    8.87
 -13  -2 -14   96.64   12.51
 -13   2 -14   92.36   14.42
 -13   2 -13   98.90   14.20
 -13  -2 -13  119.80   12.58
 -13  -2 -13   92.98    8.83
 -13  -2 -12  357.06   18.42
 -13   2 -12  349.34   21.40
 -13   2 -11   17.68    8.93
 -13  -2 -11   15.75    4.79
 -13  -2 -11   29.58    8.45
 -13   2 -10  355.17   20.42
 -13  -2 -10  353.83   16.60
 -13   2 -10  370.42   19.79
 -13  -2 -10  361.82   14.56
 -13   2  -9  365.94   19.26
 -13  -2  -9  368.73   16.12
 -13  -2  -9  353.14   13.80
 -13  -2  -8  298.02   12.07
 -13  -2  -8  307.03   14.19
 -13   2  -8  323.10   18.13
 -13  -2  -7  208.54    9.79
 -13  -2  -7  206.51   11.26
 -13   2  -7  200.24   14.34
 -13   2  -6  320.27   16.93
 -13  -2  -6  292.24   10.93
 -13  -2  -6  303.62   12.40
 -13   2  -5  285.63   15.86
 -13   2  -4  184.90   12.74
  13  -2  -4  199.35   14.22
  13  -2  -3  481.52   20.99
  13  -2  -2 1715.00   37.42
  13  -2  -1   76.45    9.67
  13  -2   0   17.32    6.37
  13  -2   1   67.37    9.19
  13   2   1   68.62    6.53
  13   2   2 1747.40   27.07
  13  -2   2 1727.24   37.02
  13  -2   3  504.93   20.54
  13   2   3  517.87   14.55
  13   2   4  206.55    9.08
  13  -2   4  202.22   13.82
  13   2   5  278.23   10.37
  13  -2   5  274.47    7.52
  13  -2   5  250.09   15.26
  13   2   6  312.28   10.81
  13  -2   6  303.72   16.84
 -13  -2   6  281.26   14.76
  13  -2   7  189.92   14.18
 -13  -2   7  212.12   13.66
  13  -2   8  278.19   16.66
 -13  -2   8  320.93   16.67
 -13  -2   9  362.36   17.99
  13  -2   9  373.06   19.29
  13   2  10  351.76   11.41
  13   2  11   28.36    4.30
 -13  -3 -18  -19.66   10.93
 -13  -3 -17   64.42   11.28
 -13  -3 -16   -3.82    8.87
 -13   3 -16    6.50   10.75
 -13  -3 -15  165.08   14.98
 -13   3 -15  180.35   18.69
 -13  -3 -14    0.43    7.04
 -13   3 -14   14.56   10.56
 -13  -3 -13   83.80   10.96
 -13   3 -13   99.44   14.23
 -13  -3 -12  198.40   13.94
 -13   3 -12  182.29   17.53
 -13  -3 -12  181.41    9.79
 -13   3 -11  348.74   21.58
 -13  -3 -11  336.19   16.54
 -13  -3 -11  352.28   12.67
 -13  -3 -10  108.69    7.09
 -13  -3 -10  121.15   10.55
 -13   3 -10  105.69   13.18
 -13  -3  -9   26.96    3.80
 -13  -3  -9   45.00    7.24
 -13   3  -9   21.66    7.71
 -13  -3  -8  245.44    8.72
 -13  -3  -8  268.93   12.57
 -13   3  -8  250.50   16.85
 -13  -3  -7  489.78   15.03
 -13   3  -7  492.75   22.41
 -13   3  -6   31.69    7.33
 -13  -3  -6   33.98    5.22
 -13   3  -5  391.52   19.54
 -13  -3  -5  388.27   11.67
  13  -3  -5  391.71   20.96
 -13   3  -4  283.17   16.52
  13  -3  -4  245.67   16.34
 -13   3  -3  358.67   18.26
  13  -3  -3  362.69   19.06
  13  -3  -2   43.83    8.42
 -13   3  -2   32.86    7.13
  13  -3  -1  757.46   26.05
  13  -3   0  219.60   14.90
  13  -3   1  805.62   18.24
  13   3   1  801.65   17.97
  13  -3   1  796.97   26.56
  13  -3   2   34.81    4.73
  13   3   2   31.69    4.31
 -13  -3   2   25.99    4.67
  13  -3   2   33.99    8.35
  13  -3   3  335.49   10.90
 -13  -3   3  347.51   13.61
  13  -3   3  356.38   18.60
  13   3   3  349.80   10.21
  13  -3   4  272.49    9.13
  13   3   4  274.59    8.20
  13  -3   4  269.78   16.44
 -13  -3   4  278.54   13.04
  13   3   5  388.76    8.75
  13  -3   5  400.61   20.15
 -13  -3   6   28.38    6.52
  13  -3   6   32.00    8.25
 -13  -3   7  461.58   18.51
  13  -3   7  460.10   22.04
 -13  -3   8  266.18   15.19
  13  -3   8  266.90   17.50
  13  -3   9   21.41    8.24
 -13  -3   9   27.00    7.69
  13   3  10   98.92    7.69
  13  -3  10  111.85   13.01
  13   3  11  315.44   12.64
  13   3  12  176.83    9.48
 -13  -4 -16   65.08    9.98
 -13   4 -15   29.84   12.12
 -13  -4 -15    5.52    7.90
 -13   4 -14   41.08   12.79
 -13  -4 -14   44.68    8.67
 -13   4 -13   52.08   13.35
 -13  -4 -13   33.65    7.86
 -13   4 -12  210.91   18.97
 -13  -4 -12  186.43   13.37
 -13  -4 -11   34.12    7.22
 -13  -4 -11   25.16    2.85
 -13   4 -11   22.21   10.78
 -13  -4 -10    7.45    7.03
 -13  -4  -9  112.49    8.95
 -13  -4  -8  237.16   10.94
 -13  -4  -7    8.64    5.09
  13  -4  -7    0.30    7.78
 -13   4  -6  106.77   11.76
  13  -4  -6  105.66    9.75
 -13  -4  -6  120.96    6.47
  13  -4  -6  110.13   12.74
 -13   4  -5   46.74    8.56
  13  -4  -5   34.79    6.42
 -13  -4  -5   40.69    3.79
  13  -4  -5   32.28    7.93
 -13   4  -4  542.82   23.42
  13  -4  -4  513.65   18.28
  13  -4  -4  502.38   23.49
 -13  -4  -4  511.54    9.42
 -13  -4  -3   30.37    2.61
  13  -4  -3   39.57    6.43
  13  -4  -3   29.97    8.25
 -13   4  -3   29.37    7.18
  13  -4  -2  129.98   12.40
  13  -4  -2  138.75    9.64
 -13   4  -2  146.51   12.52
  13  -4  -1  279.46   17.26
  13  -4  -1  294.49   13.21
 -13   4  -1  311.99   17.87
 -13  -4  -1  275.20    7.78
  13  -4   0 1057.39   23.32
 -13  -4   0 1041.58   16.36
  13  -4   0 1095.34   32.87
  13  -4   1  305.70   12.51
 -13  -4   1  285.69    9.81
  13  -4   1  280.00   17.45
  13  -4   2  139.71    8.40
  13   4   2  140.05    6.41
  13  -4   2  143.33   13.16
 -13  -4   2  139.34    7.97
  13  -4   3   36.59    4.85
 -13  -4   3   37.80    5.70
  13   4   3   27.25    2.42
  13  -4   3   37.11    8.83
 -13  -4   4  479.16   15.98
  13  -4   4  518.53   23.27
  13  -4   5   43.82    9.27
  13  -4   6  105.38   12.61
  13  -4   7   -2.57    7.43
 -13  -4   7    2.40    5.62
  13  -4   8  213.08   16.75
 -13  -4   8  220.32   13.85
  13  -4   9   91.10   12.17
 -13  -4   9  109.59   11.03
  13   4  10   -1.46    4.98
  13  -4  10   11.95    8.84
  13   4  11   30.99    5.98
  13   4  12  196.47   11.41
  13   4  13   41.24    6.26
 -13   5 -15   14.06   12.03
 -13   5 -14  256.45   22.55
 -13   5 -13   -2.62   10.44
 -13   5 -12  391.03   25.11
 -13   5 -11   52.64   12.24
  13  -5 -10  337.74   24.05
  13  -5  -9   -6.84    8.98
  13  -5  -8  237.13   19.41
  13  -5  -7   13.79    8.34
  13  -5  -6  991.85   35.11
  13  -5  -5   24.60    8.78
  13  -5  -4  539.58   19.48
  13  -5  -4  501.08   24.12
  13  -5  -3   14.54    8.24
  13  -5  -3    6.16    4.98
 -13   5  -3    6.98    6.38
  13  -5  -2  952.40   32.39
  13  -5  -2  921.26   24.42
 -13   5  -2  986.13   32.21
  13  -5  -1   48.05    9.87
  13  -5  -1   49.42    6.48
 -13   5  -1   51.09    8.95
  13  -5   0   74.35   10.76
  13  -5   0   76.25    7.60
 -13  -5   0   67.15    3.30
 -13   5   0   74.32   10.04
 -13  -5   1   47.21    4.07
  13  -5   1   40.61    5.76
  13  -5   1   48.20   10.00
  13   5   2  866.33   13.14
  13   5   2  896.80   12.41
  13  -5   2  930.71   32.04
 -13  -5   2  961.02   17.88
 -13  -5   3    9.81    4.26
  13  -5   3    7.82    8.07
  13  -5   4  490.58   24.29
 -13  -5   4  509.85   16.29
  13  -5   5    4.03    8.04
  13  -5   6  904.54   33.41
  13  -5   7   20.88    8.75
 -13  -5   7   28.02    7.31
 -13  -5   8  246.63   14.63
  13  -5   8  233.73   18.20
  13  -5   9    7.78    8.09
 -13  -5   9    8.60    6.44
  13  -5  10  309.32   21.10
  13   5  11   42.87    7.37
  13   5  12  361.63   16.53
  13   5  13   -0.90    4.82
  13   5  14  213.31   12.41
  13  -6 -15   11.45    9.35
  13  -6 -14   13.31    8.72
 -13   6 -13   46.36   13.95
  13  -6 -13   22.42    9.87
  13  -6 -12   15.52    9.81
 -13   6 -12    3.72   11.07
  13  -6 -11   90.50   15.06
 -13   6 -11  107.51   15.58
  13  -6 -10   33.64    9.87
  13  -6  -9  175.36   18.27
  13  -6  -8  546.92   28.72
  13  -6  -7    6.86    8.36
  13  -6  -6   12.58    8.90
  13  -6  -5  425.57   23.67
  13  -6  -4  188.12   16.80
  13  -6  -3   51.03   10.62
  13  -6  -2   34.74    8.80
  13  -6  -2   41.84    6.86
  13   6  -1  144.20    8.91
  13  -6  -1  149.39   14.66
  13   6   0   22.22    4.23
  13  -6   0   30.16    9.24
  13   6   1  150.47    7.05
  13  -6   1  153.83   15.05
  13   6   2   25.21    2.15
  13  -6   2   39.68    9.69
  13  -6   3   66.48   11.43
 -13  -6   3   55.06    5.48
 -13  -6   4  176.25    9.76
  13  -6   4  187.72   16.56
  13  -6   5  408.91   23.70
  13  -6   6   14.13    8.31
 -13  -6   7    2.10    5.03
  13  -6   7   12.22    8.92
  13  -6   8  507.15   27.09
 -13  -6   8  512.71   19.91
  13  -6   9  173.04   17.38
 -13  -6   9  165.11   12.58
  13  -6  10   37.01   10.82
  13   6  11   91.97   10.21
  13   6  12   11.63    5.79
  13   6  13   50.19    7.97
  13   6  14   35.38    6.97
  13  -7 -14   16.13    9.23
  13  -7 -13   74.78   14.34
  13  -7 -12   29.46   11.37
 -13   7 -12   44.15   13.12
 -13   7 -11   73.41   13.81
  13  -7 -11   77.05   14.22
  13  -7 -10  129.83   16.58
  13  -7  -9  294.98   23.01
  13  -7  -8  222.25   19.67
  13  -7  -7  296.81   22.02
  13  -7  -6   12.03    8.77
  13  -7  -5  208.78   18.24
  13   7  -5  208.36   13.24
  13   7  -4  368.24   16.22
  13  -7  -4  398.07   23.89
  13  -7  -3  108.08   13.84
  13   7  -3  108.05    9.07
  13   7  -2  133.97    9.42
  13  -7  -2  127.87   14.90
  13   7  -1  454.02   15.45
  13  -7  -1  432.84   24.53
  13   7   0  410.60   13.39
  13  -7   0  398.89   24.03
  13   7   1  444.08   12.01
  13  -7   1  450.01   25.23
  13  -7   2  133.57   15.44
  13  -7   3   96.24   14.24
  13  -7   4  391.52   24.23
  13  -7   5  197.62   18.00
  13  -7   6    7.10    9.66
  13  -7   7  272.14   21.12
  13  -7   8  249.56   20.96
  13  -7   9  313.14   22.98
  13   7  10  115.98   11.71
  13  -7  10  171.31   18.38
  13   7  11   88.42   10.65
  13   7  12   35.03    8.01
  13   7  13   68.14    9.36
  13   7  14   17.00    7.36
  13  -8 -13   -7.06    8.07
  13  -8 -12   70.10   13.28
  13  -8 -11   -0.84    9.01
 -13   8 -11   -2.86   11.61
  13  -8 -10  191.65   19.67
  13  -8  -9   21.77   10.34
  13  -8  -8  252.80   21.70
  13  -8  -7   10.58    8.98
  13  -8  -6  362.23   24.77
  13  -8  -5   -4.02    8.41
  13   8  -5    2.44    4.94
  13   8  -4  282.61   15.15
  13  -8  -4  287.86   21.85
  13   8  -3  120.35    9.95
  13  -8  -3  136.11   15.81
  13   8  -2  361.17   15.33
  13  -8  -2  378.04   24.49
  13   8  -1  140.86    9.35
  13  -8  -1  151.15   16.40
  13   8   0  174.27    9.11
  13  -8   0  153.83   16.51
  13  -8   1  146.44   16.71
  13   8   1  138.34    6.90
  13  -8   2  366.67   24.09
  13  -8   3  123.21   15.93
  13  -8   4  294.21   22.84
  13  -8   5    0.98    8.49
  13  -8   6  378.75   25.44
  13  -8   7    1.24    9.35
  13  -8   8  227.95   20.77
  13  -8   9   -2.23    8.06
  13   8  10  160.53   14.41
  13  -8  10  175.16   18.78
  13   8  11   -3.67    7.35
  13   8  12   53.33    9.24
  13   8  13   -4.73    6.62
  13   8  14  115.49   11.98
  13  -9 -12   60.74   13.30
  13  -9 -11   88.68   14.32
  13  -9 -10   14.36    9.70
  13  -9  -9  251.06   22.14
  13  -9  -8   31.66   11.00
  13  -9  -7  145.26   17.51
  13  -9  -6   17.27   10.61
  13  -9  -5  182.50   19.13
  13  -9  -4   71.89   14.29
  13  -9  -3  148.27   16.96
  13  -9  -2    8.32    8.55
  13  -9  -1  171.79   18.37
  13  -9   0   13.87   10.13
  13  -9   1  154.10   17.54
  13  -9   2   -0.56    9.31
  13  -9   3  145.31   17.35
  13  -9   4   51.07   12.31
  13  -9   5  212.13   20.66
  13  -9   6    7.00    9.03
  13  -9   7  144.16   17.87
  13  -9   8   60.60   13.44
  13  -9   9  255.59   22.51
  13   9  10   -3.12    7.44
  13   9  11   71.76   10.99
  13   9  12   50.65    9.59
  13   9  13   64.88   10.46
  13 -10 -10   -0.03    8.62
  13 -10  -9   72.22   13.97
  13 -10  -8   45.52   11.56
  13 -10  -7  178.13   19.03
  13 -10  -6   13.17    9.83
  13 -10  -5  216.41   20.82
  13 -10  -4   49.56   12.75
  13 -10  -3  220.56   20.97
  13 -10  -2   25.42   11.23
  13 -10  -1  426.16   27.98
  13 -10   0   75.18   14.72
  13 -10   1  443.28   28.85
  13 -10   2   23.14   10.58
  13 -10   3  210.44   21.04
  13 -10   4   31.79   12.39
  13 -10   5  248.85   22.74
  13 -10   6    2.63   10.37
  13  10   9   64.58   11.58
  13 -11  -6   48.80   11.83
  13 -11  -5    7.01    9.26
  13 -11  -4  123.39   16.80
  13 -11  -3    9.03    9.62
  13 -11  -2   63.10   13.55
  13 -11  -1    0.36    9.76
  13 -11   0  342.71   25.60
  13 -11   1   15.90   11.31
  13 -11   2   66.10   14.03
 -14   0 -18  164.66   17.11
 -14   0 -17   13.88   10.02
 -14   0 -16  145.50   15.65
 -14   0 -15    7.68    8.97
 -14   0 -14  370.38   21.84
 -14   0 -13    5.91    8.62
 -14   0 -13    0.22    5.59
 -14   0 -12   61.53   10.76
 -14   0 -12   74.63    9.34
 -14   0 -11    2.31    7.77
 -14   0 -11   -0.01    5.72
 -14   0 -10  823.47   27.12
 -14   0 -10  841.97   26.20
 -14   0  -9   -4.89    5.42
 -14   0  -9   -5.52    7.84
 -14   0  -5   -0.96    3.87
 -14   0  -4  298.36   14.20
  14   0  -1    0.93    4.77
  14   0   0  431.17   17.67
  14   0   1   12.77    5.87
  14   0   2 1896.49   34.82
  14   0   3    1.40    5.00
  14   0   4  294.35   14.36
  14   0   5   -6.11    6.37
  14   0   6  393.85   16.87
  14   0   7    8.18    5.59
  14   0   8  720.95   22.64
 -14   0   8  922.26   29.10
 -14  -1 -18   39.62   11.13
 -14  -1 -17   81.08   13.05
 -14   1 -17   63.30   13.06
 -14  -1 -16   55.56   11.39
 -14   1 -16   57.20   12.28
 -14   1 -15   61.95   12.76
 -14  -1 -15   58.70   11.05
 -14   1 -14   10.28    9.73
 -14  -1 -14   11.88    8.41
 -14   1 -13  176.84   16.63
 -14  -1 -13  169.95   15.01
 -14  -1 -13  180.31   12.61
 -14  -1 -12   74.85   10.96
 -14   1 -12   84.94   12.53
 -14  -1 -12   90.62    9.41
 -14   1 -12   91.94   10.99
 -14   1 -11  125.59   13.74
 -14   1 -11  126.64   12.13
 -14  -1 -11  115.49   11.97
 -14   1 -10    8.86    5.77
 -14   1 -10   24.75    9.19
 -14  -1 -10    9.37    7.15
 -14   1  -9  192.74   14.94
 -14  -1  -9  191.87   13.35
 -14   1  -9  207.91   14.50
 -14  -1  -8   73.36    7.77
 -14   1  -8   70.03    8.82
 -14  -1  -8   63.62    8.77
 -14   1  -7  232.04   14.52
 -14  -1  -7  244.11   12.46
 -14  -1  -6   12.77    4.13
 -14  -1  -5  211.29   10.98
  14  -1  -2  379.93   18.03
  14  -1  -1   18.26    6.31
  14  -1   0  513.92   19.95
  14   1   0  524.30   18.23
  14  -1   1   16.59    6.14
  14   1   1   18.13    5.28
  14   1   2  406.80   15.43
  14  -1   2  395.65   17.58
  14  -1   3  214.11   13.60
  14   1   3  222.78   11.64
  14  -1   4  223.16   13.55
  14   1   4  228.58   11.66
  14   1   5  229.29   11.72
  14  -1   5  209.49   13.52
  14   1   6   23.51    5.28
 -14  -1   6   12.73    5.97
  14  -1   6   17.23    6.38
  14   1   7  239.81   12.17
  14  -1   7  239.13   14.80
 -14  -1   7  230.59   14.31
  14  -1   8   64.87    9.23
 -14  -1   8   68.90    9.03
  14  -1   9  228.99   14.86
  14   1  10   10.67    2.36
 -14  -2 -18   11.57    9.24
 -14  -2 -17   63.42   11.59
 -14   2 -17   81.88   14.63
 -14   2 -16   32.49   11.90
 -14  -2 -16   28.30    9.60
 -14  -2 -15  123.51   13.35
 -14   2 -15  130.28   16.38
 -14  -2 -14   84.30   11.73
 -14   2 -14   90.14   14.49
 -14   2 -13  112.21   14.28
 -14  -2 -13  110.53   12.22
 -14  -2 -13  107.94    9.25
 -14  -2 -12   27.64    8.12
 -14   2 -12   15.06    9.59
 -14   2 -11  271.47   18.76
 -14  -2 -11  300.26   16.35
 -14  -2 -11  288.36   13.40
 -14  -2 -10  310.36   13.51
 -14  -2 -10  303.16   15.69
 -14   2 -10  314.62   18.47
 -14   2 -10  300.39   18.96
 -14  -2  -9  156.58   11.56
 -14  -2  -9  163.79    9.84
 -14   2  -9  146.95   13.21
 -14  -2  -8  191.68   10.06
 -14  -2  -8  191.99   12.08
 -14   2  -8  206.32   15.04
 -14   2  -7  991.51   30.28
 -14  -2  -7  971.49   23.18
 -14  -2  -7 1002.09   21.50
 -14   2  -6  174.51   13.37
 -14   2  -5  204.98   14.11
 -14   2  -4  244.98   14.89
  14  -2  -4  221.49   15.95
 -14   2  -3  583.98   22.24
  14  -2  -3  541.14   22.96
  14  -2  -2  211.18   14.47
 -14   2  -2  212.55   13.84
  14  -2  -1  392.08   18.67
  14  -2   0   64.84    9.27
  14   2   0   64.56    7.05
  14   2   1  368.15   14.21
  14  -2   1  374.35   18.54
  14   2   2  229.49   10.87
  14  -2   2  188.97   13.67
  14  -2   3  591.78   22.86
  14   2   3  588.65   16.42
  14   2   4  243.44   10.49
  14  -2   4  217.84   14.63
  14  -2   5  219.94    7.24
  14   2   5  221.50    9.94
  14  -2   5  209.25   14.54
  14  -2   6  148.60    5.12
  14   2   6  178.13    8.86
  14  -2   6  176.15   13.68
 -14  -2   6  155.14   11.81
  14  -2   7  996.28   30.52
 -14  -2   7  971.03   27.58
  14  -2   8  199.93   15.02
 -14  -2   8  189.47   13.38
  14  -2   9  156.61   14.20
 -14  -2   9  166.27   13.08
  14   2  10  279.65   10.40
  14   2  11  282.17    9.91
 -14  -3 -17  -23.45   10.59
 -14  -3 -16   74.23   11.42
 -14   3 -16   96.01   15.59
 -14  -3 -15    9.09    7.79
 -14   3 -15   20.82   11.60
 -14   3 -14  137.10   17.13
 -14  -3 -14  117.01   12.67
 -14  -3 -13   43.10    8.96
 -14   3 -13   48.17   11.67
 -14  -3 -12  212.03   14.47
 -14  -3 -12  212.70   10.37
 -14   3 -12  242.24   19.70
 -14  -3 -11  136.51    8.14
 -14  -3 -11  123.38   11.33
 -14   3 -11  129.85   14.63
 -14  -3 -10  120.06    7.17
 -14  -3 -10  143.51   11.28
 -14  -3  -9   -1.16    2.89
 -14  -3  -9    5.39    5.79
 -14  -3  -8  166.60   10.58
 -14   3  -8  156.97   14.08
 -14   3  -7  174.27   14.08
 -14  -3  -7  180.99   10.14
 -14   3  -6  477.40   21.86
  14  -3  -6  462.43   23.96
 -14  -3  -6  458.79   14.07
 -14   3  -5  179.43   13.83
  14  -3  -5  158.43   14.46
 -14  -3  -5  154.56    8.11
 -14   3  -4  396.99   19.90
  14  -3  -4  371.16   20.42
  14  -3  -3  190.03   14.76
 -14   3  -3  184.98   14.18
  14  -3  -2  930.05   29.82
 -14   3  -2  976.24   29.91
  14  -3  -1   67.13    9.29
 -14   3  -1   75.12    9.59
  14  -3   0  632.15   24.47
  14  -3   1   74.99   10.07
  14  -3   1   74.39    6.39
  14   3   1   69.34    6.27
  14   3   2  962.57   19.17
  14  -3   2  930.44   19.28
  14  -3   2  904.72   29.44
  14  -3   3  186.13    8.56
 -14  -3   3  173.64   10.30
  14  -3   3  179.22   14.06
  14   3   3  200.47    8.63
  14  -3   4  385.79   11.17
  14   3   4  402.36   10.91
  14  -3   4  384.63   19.96
  14  -3   5  152.79    6.70
  14   3   5  164.67    6.54
  14  -3   5  155.68   13.86
  14  -3   6  458.41   22.49
 -14  -3   6  461.63   18.37
 -14  -3   7  167.77   12.33
  14  -3   7  166.45   14.65
 -14  -3   8  162.11   12.36
  14  -3   8  148.62   14.13
  14  -3   9    7.77    7.63
 -14  -3   9   10.39    6.66
  14   3  10  127.47    8.62
  14  -3  10  128.57   14.01
  14   3  11  114.90    8.14
  14   3  12  213.81   10.13
 -14   4 -15   63.42   14.30
 -14  -4 -15   48.78    9.13
 -14   4 -14   14.39   11.60
 -14  -4 -14   17.68    7.16
 -14   4 -13   54.98   13.27
 -14  -4 -13   44.55    8.57
 -14  -4 -12   88.65   10.04
 -14   4 -12   86.19   14.10
 -14  -4 -11  172.90   12.08
 -14   4 -11  167.05   17.37
 -14  -4 -10    9.73    5.59
 -14  -4  -9   13.23    5.67
 -14  -4  -8  157.67    9.34
  14  -4  -8  124.49   14.31
 -14  -4  -7  281.36   10.65
  14  -4  -7  254.01   19.35
  14  -4  -6   -2.97    7.80
 -14  -4  -6    5.16    4.18
 -14   4  -5  261.71   16.86
  14  -4  -5  244.51   13.47
  14  -4  -5  231.16   17.46
 -14  -4  -5  252.54    8.10
 -14   4  -4  138.31   12.67
  14  -4  -4  143.04   10.40
  14  -4  -4  142.54   13.98
 -14  -4  -4  123.66    5.39
  14  -4  -3  251.01   17.15
  14  -4  -3  252.46   13.18
 -14   4  -3  267.53   16.90
  14  -4  -2   34.93    7.93
  14  -4  -2   50.79    6.79
 -14   4  -2   53.59    8.48
  14  -4  -1  350.64   19.53
  14  -4  -1  373.72   14.93
 -14   4  -1  363.44   19.44
  14  -4   0  376.49   14.50
 -14  -4   0  381.65   10.86
  14  -4   0  354.38   19.98
  14  -4   1  381.15   14.04
 -14  -4   1  348.21   11.62
  14  -4   1  355.86   20.22
  14  -4   2   52.69    5.82
  14   4   2   51.96    4.60
 -14  -4   2   46.37    5.63
  14  -4   2   42.58    9.17
 -14  -4   3  248.28   11.41
  14  -4   3  245.46   10.61
  14  -4   3  288.29   18.43
  14   4   3  239.11    7.41
 -14  -4   4  139.22    9.66
  14  -4   4  123.66   12.97
  14  -4   5  256.07   17.68
  14  -4   6   -0.33    8.03
 -14  -4   6    6.86    5.62
 -14  -4   7  264.40   14.68
  14  -4   7  244.07   18.18
  14  -4   8  147.33   15.02
 -14  -4   8  136.56   11.38
 -14  -4   9    3.93    6.51
  14  -4   9    2.03    7.29
  14  -4  10   12.25    8.59
  14   4  11  157.99   10.58
  14   4  12   74.67    7.64
  14   4  13   47.05    6.47
 -14   5 -14    3.33   10.99
 -14   5 -13  326.16   24.37
 -14   5 -12   26.11   10.42
 -14   5 -11  399.19   25.24
  14  -5 -11  327.81   25.14
  14  -5 -10   -3.30    9.07
  14  -5  -9  398.94   25.46
 -14  -5  -9  363.81   13.08
  14  -5  -8    6.21    8.83
  14  -5  -7  448.21   25.42
  14  -5  -6   42.87   10.71
  14  -5  -5  829.80   32.07
  14  -5  -4   15.91    8.93
  14  -5  -3  402.26   22.49
  14  -5  -3  423.86   17.26
  14  -5  -2   10.41    8.12
  14  -5  -2   11.48    4.82
  14  -5  -1  308.05   14.25
  14  -5  -1  297.11   19.34
  14  -5   0  259.18   12.73
  14  -5   0  286.81   19.15
 -14  -5   0  268.00    6.89
  14  -5   1  320.84   13.78
 -14  -5   1  296.36    9.20
  14  -5   1  310.04   19.62
 -14  -5   2   17.12    4.23
  14   5   2   14.20    2.48
  14  -5   2   16.83    8.77
  14  -5   3  403.02   22.54
 -14  -5   3  426.77   13.86
 -14  -5   4    7.89    4.87
  14  -5   4    5.57    7.40
  14  -5   5  795.33   31.69
 -14  -5   6   33.14    6.47
  14  -5   6   50.81   11.37
  14  -5   7  462.02   24.79
 -14  -5   7  441.67   18.11
  14  -5   8    0.65    7.61
 -14  -5   8    6.42    5.82
 -14  -5   9  370.92   18.04
  14  -5   9  338.65   22.31
  14  -5  10   -6.58    9.48
  14   5  11  337.26   16.22
  14   5  12   23.25    6.09
  14   5  13  302.54   14.42
  14  -6 -14   87.93   15.28
 -14   6 -13   69.01   14.54
  14  -6 -13   55.91   13.59
 -14   6 -12   23.34   12.59
  14  -6 -12   37.89   11.97
  14  -6 -11   21.65   10.20
 -14   6 -11   14.56   11.04
  14  -6 -10  213.12   20.49
  14  -6  -9  137.88   16.74
  14  -6  -8   91.45   13.46
  14  -6  -7  128.03   15.29
  14  -6  -6   78.99   12.87
  14  -6  -5   59.44   11.63
  14  -6  -4  184.70   16.91
  14  -6  -3   30.57    9.64
  14  -6  -2  172.38   11.56
  14  -6  -2  192.53   16.97
  14  -6  -1   -3.29    8.72
  14  -6  -1   -3.71    5.05
  14   6   0  190.57    8.90
  14  -6   0  203.74   17.67
  14   6   1    1.81    2.53
  14  -6   1    3.85    7.83
  14   6   2  129.74    4.44
  14  -6   2  175.95   16.34
 -14  -6   3   28.86    4.61
  14  -6   3   22.05    9.29
  14  -6   4  149.27   15.82
 -14  -6   4  173.84    9.67
  14  -6   5   34.93    9.83
 -14  -6   6   76.66    7.83
  14  -6   6   76.45   12.30
  14  -6   7  130.79   15.43
 -14  -6   7  128.06   10.59
 -14  -6   8   91.79    9.75
  14  -6   8   83.49   13.58
  14  -6   9  138.52   16.26
  14  -6  10  235.35   20.17
  14   6  11    4.94    5.18
  14   6  12   39.28    7.33
  14   6  13   38.58    7.10
  14  -7 -13   50.61   12.80
 -14   7 -12   72.68   15.09
  14  -7 -12   55.91   13.29
  14  -7 -11   57.74   13.64
 -14   7 -11   53.19   13.63
  14  -7 -10  188.96   19.56
  14  -7  -9  215.19   20.47
  14  -7  -8  220.63   20.29
  14  -7  -7   55.43   11.93
  14  -7  -6   76.86   12.93
  14  -7  -5  255.34   20.19
  14   7  -4  296.06   14.56
  14  -7  -4  289.68   21.32
  14  -7  -3   83.52   13.33
  14   7  -3   77.85    8.01
  14   7  -2  269.96   12.81
  14  -7  -2  259.68   20.01
  14   7  -1  272.50   12.14
  14  -7  -1  253.84   19.94
  14   7   0  471.36   14.16
  14  -7   0  454.26   25.61
  14   7   1  263.31    9.10
  14  -7   1  256.44   20.16
  14  -7   2  302.17   21.51
  14  -7   3   71.96   12.15
  14  -7   4  301.46   22.17
  14  -7   5  239.00   20.06
  14  -7   6   55.58   12.60
  14  -7   7   40.76   11.11
  14  -7   8  241.43   20.94
  14  -7   9  194.07   18.97
  14  -7  10  150.09   17.58
  14   7  11   42.15    8.25
  14   7  12   46.33    8.37
  14   7  13   56.07    8.37
  14  -8 -12   -9.91    9.34
  14  -8 -11   88.53   14.85
  14  -8 -10    2.43    8.70
  14  -8  -9  216.98   20.97
  14  -8  -8    4.54    9.14
  14  -8  -7  165.43   18.35
  14  -8  -6    6.78    9.55
  14   8  -5  277.78   15.21
  14  -8  -5  251.33   21.28
  14  -8  -4    2.33    8.57
  14   8  -4    3.04    5.40
  14   8  -3  299.46   14.58
  14  -8  -3  356.92   24.53
  14   8  -2  160.29   10.53
  14  -8  -2  194.13   19.06
  14   8  -1  215.75   11.06
  14  -8  -1  222.16   19.61
  14  -8   0  210.65   19.14
  14  -8   1  230.48   19.63
  14  -8   2  160.99   17.83
  14  -8   3  319.16   23.47
  14  -8   4   -6.49   10.48
  14  -8   5  252.06   21.48
  14  -8   6    8.03    9.79
  14  -8   7  159.24   18.44
  14  -8   8    4.13    8.67
  14  -8   9  209.11   20.44
  14  -8  10    6.96    9.94
  14   8  11   78.34   11.08
  14   8  12    3.92    6.66
  14   8  13   81.94   10.71
  14  -9 -11   30.61   11.01
  14  -9 -10  131.98   17.19
  14  -9  -9   -2.33    9.00
  14  -9  -8  184.58   20.03
  14  -9  -7   58.54   13.43
  14  -9  -6  133.46   17.22
  14  -9  -5   35.42   11.01
  14  -9  -4  164.17   18.75
  14  -9  -3   12.70    9.94
  14  -9  -2  181.01   19.15
  14  -9  -1   16.69   10.22
  14  -9   0  161.70   18.40
  14  -9   1   20.87   10.12
  14  -9   2  168.48   18.43
  14  -9   3   12.73   10.28
  14  -9   4  167.04   18.87
  14  -9   5   48.62   13.45
  14  -9   6  164.34   19.06
  14  -9   7   54.58   13.46
  14  -9   8  170.62   19.11
  14   9  10  115.34   13.19
  14   9  11   23.04    8.70
  14   9  12   33.42    8.92
  14 -10  -8  161.65   18.72
  14 -10  -7   21.09   10.28
  14 -10  -6  229.15   21.65
  14 -10  -5    9.13    9.78
  14 -10  -4  256.03   22.68
  14 -10  -3   45.13   12.17
  14 -10  -2  221.58   21.52
  14 -10  -1   45.59   12.29
  14 -10   0  620.10   33.88
  14 -10   1   52.16   13.82
  14 -10   2  232.31   22.00
  14 -10   3   51.15   12.58
  14 -10   4  243.05   22.56
  14 -10   5   -2.93   10.40
  14 -11  -3   59.82   13.50
  14 -11  -2   -4.41   10.63
 -15   0 -17  198.68   18.00
 -15   0 -16    3.33    9.15
 -15   0 -15  181.21   17.30
 -15   0 -14   -4.19    8.81
 -15   0 -13  331.29   17.93
 -15   0 -13  318.41   20.12
 -15   0 -12   -0.44    5.40
 -15   0 -12    6.27    8.25
 -15   0 -11  101.07   11.89
 -15   0 -11  102.71   10.40
 -15   0 -10   -3.36    5.16
 -15   0 -10    1.25    7.35
 -15   0  -9  598.73   22.08
 -15   0  -9  591.27   22.89
  15   0  -2   -1.41    5.65
  15   0  -1 1095.66   29.10
  15   0   0   35.84    7.55
  15   0   1 1101.67   27.96
  15   0   2    3.90    5.51
  15   0   3 1312.72   30.39
  15   0   4    3.25    5.22
  15   0   5  507.15   19.47
  15   0   6   -2.68    5.43
  15   0   7  134.89   10.84
  15   0   8   -2.26    5.14
  15   0   9  360.19    5.48
 -15  -1 -18   17.72    9.52
 -15  -1 -17   37.79   10.34
 -15   1 -17   45.30   11.84
 -15   1 -16  116.59   15.43
 -15  -1 -16  100.55   13.25
 -15   1 -15   55.09   12.87
 -15  -1 -15   54.04   10.93
 -15   1 -14   59.76   12.16
 -15  -1 -14   47.63   10.37
 -15  -1 -13   11.52    5.16
 -15  -1 -13   20.39    8.73
 -15   1 -13   27.44    9.73
 -15  -1 -12   48.09    7.41
 -15  -1 -12   55.47   10.19
 -15   1 -12   53.22   11.65
 -15   1 -11   62.16    8.97
 -15  -1 -11   66.23    8.09
 -15   1 -11   58.84   11.10
 -15  -1 -11   63.38   10.17
 -15  -1 -10  357.21   18.23
 -15   1 -10  368.90   20.23
 -15   1 -10  378.72   18.89
 -15   1  -9   49.09    8.35
 -15  -1  -9   31.85    7.81
 -15   1  -8   93.60   10.26
 -15  -1  -8   96.04    8.71
 -15  -1  -8   82.35    9.38
 -15   1  -7  102.60   10.56
 -15  -1  -7   95.31    8.50
 -15   1  -6   85.05    9.58
 -15  -1  -6   95.39    8.36
 -15   1  -5    8.69    4.97
  15  -1  -3  143.23   12.95
  15  -1  -2  204.61   14.45
  15  -1  -1  762.70   25.56
  15   1  -1  752.79   23.49
  15  -1   0   10.62    6.11
  15   1   0    2.95    4.72
  15  -1   1  747.59   24.45
  15   1   1  736.14   21.50
  15   1   2  212.68   12.09
  15  -1   2  194.33   13.32
  15  -1   3  135.50   11.79
  15   1   3  144.91   10.29
  15  -1   4  120.82   11.04
  15   1   4  111.98    9.07
  15   1   5    9.18    4.86
  15  -1   5    1.69    5.66
  15   1   6  104.19    8.80
  15  -1   6  105.15   10.84
  15   1   7   93.32    8.70
  15  -1   7   95.56   10.47
 -15  -1   7   83.11    9.75
  15   1   8  109.99    9.47
  15  -1   8  107.92   11.24
 -15  -1   8   82.09    9.74
  15  -1   9   50.25    9.21
  15   1  10  334.35    8.53
 -15  -2 -18   28.03    9.76
 -15  -2 -17   28.40    9.97
 -15   2 -16   97.44   14.72
 -15  -2 -16   87.49   12.28
 -15  -2 -15   51.89   10.36
 -15   2 -15   52.16   12.86
 -15   2 -14  153.63   17.30
 -15  -2 -14  136.74   13.47
 -15   2 -13   59.38   12.42
 -15  -2 -13   70.81   10.54
 -15  -2 -12  299.62   17.30
 -15   2 -12  276.66   20.27
 -15  -2 -11   33.15    5.79
 -15  -2 -11   38.27    8.41
 -15   2 -11   16.15    9.34
 -15  -2 -10  112.79    8.68
 -15   2 -10  127.81   13.77
 -15  -2 -10  137.97   12.01
 -15  -2  -9  212.75   11.04
 -15  -2  -9  225.47   13.70
 -15   2  -9  237.16   16.17
 -15   2  -8  280.53   17.21
 -15  -2  -8  284.81   12.42
 -15  -2  -8  267.96   14.00
 -15   2  -7   95.74   11.03
 -15  -2  -7   72.11    8.05
 -15  -2  -7   80.08    6.86
 -15   2  -6 1364.04   35.75
 -15   2  -5  213.56   14.68
 -15   2  -4  486.93   21.40
  15  -2  -4  443.12   21.87
  15  -2  -3   92.59   11.24
 -15   2  -3   91.10   10.20
  15  -2  -2   44.03    8.34
 -15   2  -2   43.67    7.62
  15  -2  -1  307.64   17.47
  15  -2   0  707.67   25.25
  15   2   0  729.03   21.23
  15   2   1  310.36   13.54
  15  -2   1  290.44   17.05
  15  -2   2   40.14    8.42
  15   2   2   44.75    6.20
  15  -2   3  105.63   11.32
  15   2   3  109.89    8.31
  15   2   4  506.01   15.64
  15  -2   4  478.18   21.43
  15   2   5  204.13   10.09
  15  -2   5  188.30   14.46
 -15  -2   5  184.98   12.26
  15  -2   6 1251.51   15.65
  15   2   6 1400.59   24.75
  15  -2   6 1324.96   35.48
 -15  -2   6 1354.79   31.77
 -15  -2   7   82.69    9.63
  15   2   7   88.74    7.15
  15  -2   7   81.81   10.88
  15  -2   8  272.88   17.38
 -15  -2   8  269.27   15.70
  15  -2   9  215.89   15.75
  15   2  10  118.56    7.19
  15  -2  10  124.58   12.90
  15   2  11   27.39    4.06
 -15  -3 -17   30.87    9.65
 -15  -3 -16    5.09    7.31
 -15   3 -16    7.97   10.88
 -15   3 -15  151.97   17.84
 -15  -3 -15  129.99   13.02
 -15   3 -14    4.03   10.37
 -15  -3 -14   -0.28    7.06
 -15  -3 -13  171.08   13.55
 -15   3 -13  151.42   16.66
 -15  -3 -12   60.11    9.06
 -15   3 -12   38.62   11.82
 -15  -3 -11  174.90    8.85
 -15  -3 -11  184.27   12.61
 -15   3 -11  171.72   16.74
 -15  -3 -10  146.09    7.78
 -15  -3 -10  171.14   12.12
 -15  -3  -9  288.60   10.20
 -15  -3  -9  272.80   13.63
 -15  -3  -8   23.11    6.37
 -15   3  -7  379.83   20.12
 -15  -3  -7  315.05   13.09
 -15   3  -6  138.56   12.76
  15  -3  -6  145.40   15.11
 -15  -3  -6  131.25    8.57
 -15   3  -5  180.51   13.92
  15  -3  -5  178.37   15.49
  15  -3  -4  227.94   16.58
 -15   3  -4  272.30   16.93
  15  -3  -3  830.48   29.62
 -15   3  -3  889.99   29.56
  15  -3  -2   37.01    8.34
 -15   3  -2   52.14    8.46
  15  -3  -1  579.24   24.32
  15  -3   0  193.89   14.84
  15   3   1  604.54   17.52
  15  -3   1  617.57   25.12
  15   3   2   47.19    5.62
  15  -3   2   57.15    5.87
  15  -3   2   45.00    9.12
  15  -3   3  821.94   18.04
 -15  -3   3  828.70   21.84
  15  -3   3  875.51   29.67
  15   3   3  908.85   18.96
  15  -3   4  229.28    9.32
  15   3   4  233.17    9.15
  15  -3   4  246.35   16.86
  15  -3   5  173.05    7.42
  15   3   5  186.23    7.73
  15  -3   5  158.63   13.98
 -15  -3   5  134.59   10.15
  15  -3   6  128.99   13.29
 -15  -3   6  134.71   11.28
  15  -3   7  314.64   19.76
 -15  -3   7  333.87   16.72
 -15  -3   8   25.65    7.50
  15  -3   8   27.40    9.06
  15  -3   9  281.72   18.79
  15  -3  10  146.61   15.27
  15   3  11  173.06    9.60
  15   3  12   56.60    5.99
 -15   4 -15   25.88   11.02
 -15   4 -14   22.48   11.39
 -15  -4 -14   -0.62    7.45
 -15  -4 -13   50.68    8.69
 -15   4 -13   66.21   14.58
 -15   4 -12  164.59   18.07
 -15  -4 -12  140.30   11.41
 -15   4 -11   82.42   13.82
 -15  -4 -11   79.14    8.92
 -15  -4 -10  107.52    9.27
 -15  -4  -9   12.19    5.47
 -15  -4  -8  102.05    8.04
  15  -4  -8   88.30   13.31
 -15  -4  -7  156.26    8.57
  15  -4  -7  121.42   14.88
  15  -4  -6  291.74   20.24
 -15  -4  -6  314.37   10.48
 -15  -4  -5   78.30    5.44
  15  -4  -5   69.49   11.30
  15  -4  -4  322.79   15.38
 -15   4  -4  357.83   19.79
  15  -4  -4  328.68   20.35
 -15  -4  -4  311.46    8.90
  15  -4  -3  148.87   14.39
  15  -4  -3  140.37   10.33
 -15   4  -3  150.75   13.58
  15  -4  -2   49.88   10.00
  15  -4  -2   45.52    6.68
 -15   4  -2   55.79    8.83
  15  -4  -1   99.90   12.26
  15  -4  -1  114.57    9.02
 -15   4  -1  145.45   13.17
  15  -4   0  465.90   16.36
 -15  -4   0  473.14   12.96
  15  -4   0  465.86   22.89
  15  -4   1  107.11    8.24
  15   4   1  103.71    7.29
 -15  -4   1   96.37    7.04
  15  -4   1   99.83   12.52
 -15  -4   2   46.39    5.86
  15   4   2   46.83    4.75
  15  -4   2   43.45    5.75
  15  -4   2   49.02    9.75
  15  -4   3  160.99   14.61
  15   4   3  140.56    6.56
  15   4   4  287.97    6.75
  15  -4   4  341.60   20.32
  15  -4   5   75.18   11.70
 -15  -4   6  311.02   15.15
  15  -4   6  311.80   20.22
 -15  -4   7  151.56   11.94
  15  -4   7  149.60   15.33
 -15  -4   8  103.76   10.56
  15  -4   8   86.54   12.66
  15  -4   9    6.43    8.24
  15  -4  10   83.82   13.20
  15   4  11   81.68    8.09
  15   4  12  142.42    9.70
 -15   5 -14  209.75   21.11
 -15   5 -13    3.63   11.14
 -15   5 -12  217.85   20.56
  15  -5 -12  193.60   21.06
  15  -5 -11   14.07    9.97
 -15  -5 -11    8.28    4.82
 -15   5 -11   11.87   10.52
  15  -5 -10  468.59   29.09
 -15  -5 -10  466.12   15.87
  15  -5  -9   -0.90    8.15
 -15  -5  -9   -7.36    4.84
  15  -5  -8  395.00   25.12
 -15  -5  -8  372.98   11.57
  15  -5  -7   42.62   11.66
 -15  -5  -7   23.80    3.10
  15  -5  -6  663.66   30.53
  15  -5  -5   68.30   12.30
  15  -5  -4  620.76   28.56
  15  -5  -3   42.88   10.26
  15  -5  -3   31.02    6.39
  15  -5  -2  254.67   18.40
  15  -5  -2  285.42   14.07
  15  -5  -1    1.67    7.70
  15  -5  -1    0.32    4.81
  15  -5   0  458.53   16.93
 -15  -5   0  426.10    9.45
  15  -5   0  396.95   22.69
  15  -5   1   -3.59    4.80
 -15  -5   1    3.94    3.19
  15  -5   1   -3.61    8.17
  15  -5   2  250.17   12.03
  15   5   2  244.74    8.26
 -15  -5   2  248.99   10.19
  15  -5   2  264.24   18.62
  15  -5   3   35.62    9.89
 -15  -5   3   29.28    5.41
 -15  -5   4  598.10   17.95
  15  -5   4  637.95   28.77
  15  -5   5   59.38   11.96
  15  -5   6  666.11   29.72
 -15  -5   6  676.78   21.08
 -15  -5   7   37.06    7.30
  15  -5   7   28.12    9.48
  15  -5   8  391.47   23.78
 -15  -5   8  390.21   17.66
  15  -5   9    2.80    8.28
  15  -5  10  489.13   26.78
  15   5  11   10.43    5.55
  15  -5  11   14.93   10.07
  15   5  12  194.79   12.14
  15   5  13    2.12    4.79
  15  -6 -14    8.39    9.87
 -15   6 -13  160.17   18.31
  15  -6 -13   90.76   15.76
 -15   6 -12   20.44   11.19
  15  -6 -12   19.00   11.56
 -15   6 -11   79.23   15.02
  15  -6 -11   60.88   13.68
  15  -6 -10   67.21   14.10
  15  -6  -9  132.69   16.81
  15  -6  -8   11.96    9.16
  15  -6  -7  158.93   17.36
  15  -6  -6  168.12   16.85
  15  -6  -5   53.25   11.26
  15  -6  -4   60.84   11.87
  15  -6  -3  210.95   18.20
  15  -6  -2    7.08    8.15
  15  -6  -1  322.97   15.32
  15  -6  -1  328.07   21.93
  15  -6   0   38.00   10.46
  15   6   1  325.89   10.07
  15  -6   1  352.07   22.31
  15   6   2    2.74    1.33
  15   6   2    2.90    1.34
 -15  -6   2    4.35    2.77
  15  -6   2    2.18    8.10
  15  -6   3  208.41   18.31
 -15  -6   3  212.46    9.59
  15  -6   4   58.64   12.42
 -15  -6   4   55.09    6.41
  15  -6   5   57.19   12.14
 -15  -6   6  156.50   10.75
  15  -6   6  156.91   16.52
 -15  -6   7  169.11   11.57
  15  -6   7  158.99   16.87
  15  -6   8   12.88    9.09
 -15  -6   8    8.21    5.50
  15  -6   9  127.44   16.16
  15  -6  10   77.95   13.36
  15   6  11   58.57    8.37
  15  -6  11   78.88   14.49
  15   6  12    7.55    5.51
  15   6  13  130.71   10.69
  15  -7 -13   51.56   13.38
  15  -7 -12   50.24   12.67
 -15   7 -11  109.10   17.00
  15  -7 -11  107.24   16.63
  15  -7 -10   98.20   15.77
  15  -7  -9  236.77   21.68
  15  -7  -8   50.63   12.45
  15  -7  -7   40.52   11.57
  15  -7  -6  168.11   17.57
  15  -7  -5   47.09   11.56
  15  -7  -4  205.05   18.56
  15   7  -3  450.33   16.86
  15  -7  -3  511.81   28.41
  15   7  -2  136.57    9.39
  15  -7  -2  145.33   16.13
  15   7  -1  368.23   13.74
  15  -7  -1  394.75   25.00
  15   7   0  273.35   10.81
  15  -7   0  276.26   20.99
  15   7   1  362.56   10.38
  15  -7   1  359.92   23.43
  15  -7   2  159.64   16.95
  15  -7   3  550.94   28.78
  15  -7   4  206.74   19.07
  15  -7   5   42.81   11.94
  15  -7   6  168.23   17.63
 -15  -7   7   43.29    6.98
  15  -7   7   37.42   11.31
  15  -7   8   41.98   12.06
  15  -7   9  214.58   20.65
  15  -7  10  106.06   15.84
  15   7  11   78.94   10.36
  15  -7  11   80.55   14.21
  15   7  12   54.98    8.77
  15   7  13   33.52    7.77
  15  -8 -11   -2.39    8.57
  15  -8 -10  154.55   18.51
  15  -8  -9    6.29    9.36
  15  -8  -8  162.08   18.63
  15  -8  -7   20.04   10.17
  15  -8  -6  136.26   16.97
  15  -8  -5   15.77    9.05
  15   8  -4  169.10   11.68
  15  -8  -4  165.07   18.60
  15  -8  -3    4.89   10.02
  15  -8  -2  336.77   23.88
  15  -8  -1  162.43   17.71
  15  -8   0  162.09   18.04
  15  -8   1  185.76   18.86
  15  -8   2  334.55   24.16
  15  -8   3   -4.40    9.83
  15  -8   4  186.01   18.95
  15  -8   5    9.69   10.39
  15  -8   6  112.01   16.68
  15  -8   7   24.09   10.83
  15  -8   8  143.23   17.27
  15  -8   9    2.18    9.33
  15  -8  10  191.11   20.09
  15   8  11   -1.86    6.66
  15   8  12   36.21    8.47
  15   8  13  -14.53    7.33
  15  -9 -10    7.86    9.60
  15  -9  -9  126.84   17.04
  15  -9  -8   51.37   13.31
  15  -9  -7  165.99   18.92
  15  -9  -6   56.72   13.14
  15  -9  -5   90.99   15.34
  15  -9  -4   35.39   11.72
  15  -9  -3  220.52   21.09
  15  -9  -2    0.94    9.20
  15  -9  -1  123.56   16.18
  15  -9   0   25.63   10.85
  15  -9   1  114.12   16.71
  15  -9   2  -11.13   11.72
  15  -9   3  222.95   21.74
  15  -9   4   28.21   11.87
  15  -9   5   78.78   15.61
  15  -9   6   60.78   14.32
  15  -9   7  176.12   20.07
  15   9  10   -7.85    7.69
  15   9  11   40.12    9.24
  15   9  12   35.41    8.98
  15 -10  -7  206.49   20.94
  15 -10  -6    5.19    9.78
  15 -10  -5  232.19   22.19
  15 -10  -4    2.06    9.69
  15 -10  -3  173.38   19.51
  15 -10  -2   40.69   12.14
  15 -10  -1  351.51   26.37
  15 -10   0   51.07   13.40
  15 -10   1  360.18   26.33
  15 -10   2   41.81   12.99
  15 -10   3  195.93   20.68
  15 -10   4   15.16   10.37
 -16   0 -17   24.47   10.79
 -16   0 -16  223.89   18.67
 -16   0 -15    7.13    8.88
 -16   0 -14  190.40   16.81
 -16   0 -13    9.19    8.87
 -16   0 -12  223.11   16.98
 -16   0 -12  230.90   14.72
 -16   0 -11   -3.60    5.42
 -16   0 -11    9.69    8.53
 -16   0 -10  200.68   13.47
 -16   0 -10  202.35   15.85
 -16   0  -9   -0.01    4.61
 -16   0  -9   -7.97    7.96
 -16   0  -8  137.06   11.46
  16   0  -2 1662.29   38.19
  16   0  -1    4.37    5.86
  16   0   0 2109.04   40.41
  16   0   1    8.56    6.38
  16   0   2 1696.79   35.61
  16   0   3    1.07    5.65
  16   0   4  400.67   17.69
  16   0   5    3.76    5.49
  16   0   6  357.99   17.31
  16   0   7    0.74    5.37
  16   0   8  155.75   12.30
  16   0   9    0.04    1.09
  16   0   9    4.47    6.08
 -16  -1 -18   44.61   11.21
 -16  -1 -17   70.10   12.55
 -16   1 -17   86.51   14.07
 -16   1 -16   33.75   11.40
 -16  -1 -16   34.49   10.60
 -16   1 -15   77.88   13.62
 -16  -1 -15   65.26   11.43
 -16   1 -14   40.75   11.41
 -16  -1 -14   45.91   10.58
 -16   1 -13   30.10    9.89
 -16  -1 -13   25.52    9.41
 -16  -1 -12   59.18    7.88
 -16  -1 -12   67.99   10.45
 -16   1 -12   54.17   11.48
 -16   1 -11   26.10    7.20
 -16  -1 -11   28.08    6.15
 -16   1 -11   12.67    8.77
 -16  -1 -11   28.31    8.57
 -16   1 -10   53.84    8.54
 -16  -1 -10   52.97    9.23
 -16   1 -10   48.21   10.40
 -16   1  -9  193.13   14.10
 -16  -1  -9  209.11   14.40
 -16   1  -8   87.25   10.11
 -16  -1  -8   81.54    9.68
 -16   1  -7   34.37    7.19
 -16  -1  -7   27.96    5.44
 -16   1  -6   15.47    5.87
 -16  -1  -6   21.55    4.99
 -16   1  -5  175.61   12.89
 -16   1  -4  144.21   11.77
  16  -1  -3   18.55    7.18
  16  -1  -2  204.24   14.78
  16  -1  -1  223.04   14.93
  16   1  -1  210.35   13.65
  16  -1   0  646.43   23.98
  16   1   0  686.84   22.57
  16  -1   1  209.75   14.12
  16   1   1  224.46   12.99
  16   1   2  224.26   12.76
  16  -1   2  226.74   14.73
  16  -1   3   13.97    6.37
  16   1   3   21.26    6.14
  16  -1   4  138.21   12.06
  16   1   4  142.15   10.26
  16   1   5  199.50   11.81
  16  -1   5  218.03   14.67
  16   1   6   22.11    6.18
  16  -1   6   26.47    7.65
  16   1   7   37.76    6.86
  16  -1   7   36.70    8.30
 -16  -1   7   23.90    7.03
  16   1   8   89.57    8.82
  16  -1   8   91.24   10.98
  16  -1   9  199.92   14.66
  16   1  10   53.29    3.88
 -16  -2 -17   36.71   10.44
 -16   2 -16   26.46   11.05
 -16  -2 -16   37.19    9.89
 -16  -2 -15  124.14   13.39
 -16   2 -15  145.97   17.12
 -16  -2 -14   42.59    9.48
 -16   2 -14   33.01   11.70
 -16  -2 -13  141.23   13.39
 -16   2 -13  120.29   15.61
 -16  -2 -12   47.04    9.39
 -16   2 -12   52.84   11.70
 -16   2 -11  351.82   21.71
 -16  -2 -11  333.60   17.49
 -16  -2 -10   20.87    5.00
 -16  -2 -10   23.00    7.30
 -16   2  -9  366.21   19.50
 -16  -2  -9  365.47   14.38
 -16  -2  -9  348.75   16.76
 -16   2  -8  166.95   13.67
 -16  -2  -8  141.17    9.12
 -16  -2  -8  134.96   10.79
 -16   2  -7  159.08   13.27
 -16  -2  -7  137.73   10.49
 -16   2  -6   27.49    7.27
 -16   2  -5 1250.91   34.44
  16  -2  -5 1190.64   37.35
 -16   2  -4  123.93   11.77
  16  -2  -4  124.70   13.31
  16  -2  -3  198.83   15.38
 -16   2  -3  236.26   15.35
  16  -2  -2  466.32   22.26
  16  -2  -1   72.66   10.29
  16  -2   0   49.54    8.93
  16   2   0   40.14    6.58
  16  -2   1   67.92    9.94
  16   2   1   73.97    7.85
  16   2   2  481.56   16.90
  16  -2   2  492.95   21.92
  16  -2   3  217.08   15.60
  16   2   3  217.23   11.67
  16  -2   4  138.82   13.09
  16   2   4  144.86    9.57
  16   2   5 1266.47   25.29
  16  -2   5 1191.71   33.97
 -16  -2   5 1200.24   30.05
  16  -2   6   38.06    3.51
  16   2   6   34.19    5.65
  16  -2   6   32.85    8.38
 -16  -2   6   20.96    6.42
  16   2   7  175.32    9.89
  16  -2   7  134.38   13.38
 -16  -2   7  155.08   12.29
  16  -2   8  144.19   13.84
 -16  -2   8  144.38   12.41
  16  -2   9  344.54   19.85
  16  -2  10   36.99    9.51
  16   2  11  335.65   10.66
 -16  -3 -16   58.17   10.41
 -16  -3 -15   15.31    7.49
 -16   3 -15   29.75   12.16
 -16   3 -14  122.08   16.40
 -16  -3 -14  121.43   12.66
 -16   3 -13   11.37   10.35
 -16  -3 -13   17.32    7.67
 -16   3 -12  268.83   21.16
 -16  -3 -12  279.48   16.04
 -16   3 -11   27.16    9.71
 -16  -3 -11   32.46    7.93
 -16  -3 -10  180.45    8.51
 -16  -3 -10  222.11   13.34
 -16  -3  -9  110.87    9.85
 -16  -3  -8  432.96   16.27
 -16  -3  -7  178.50   10.54
  16  -3  -7  189.37   17.59
 -16   3  -6  364.00   19.81
 -16  -3  -6  297.76   12.46
  16  -3  -6  319.95   21.11
 -16   3  -5  142.03   13.06
  16  -3  -5  145.67   14.99
 -16   3  -4  413.87   20.78
  16  -3  -4  410.85   22.53
  16  -3  -3   44.57    9.87
 -16   3  -3   46.18    7.84
  16  -3  -2  170.47   14.84
 -16   3  -2  186.25   13.95
  16  -3  -1   92.89   11.55
  16  -3   0 1113.92   34.16
  16   3   0 1195.27   27.08
  16  -3   1   86.46   11.17
  16   3   1   77.39    7.53
  16   3   2  173.15    9.69
  16  -3   2  177.74    9.47
  16  -3   2  175.07   14.86
  16  -3   3   49.98    5.38
  16  -3   3   51.23    9.85
  16   3   3   53.51    5.84
  16  -3   4  412.08   12.47
  16   3   4  428.58   12.97
  16  -3   4  411.69   21.47
  16  -3   5  130.15    6.76
  16   3   5  142.64    7.64
  16  -3   5  132.06   13.44
 -16  -3   5  132.88   10.65
  16   3   6  338.37   10.33
  16  -3   6  296.46   19.36
 -16  -3   6  308.38   15.61
  16  -3   7  191.58   16.16
 -16  -3   7  194.51   13.11
 -16  -3   8  446.62   19.23
  16  -3   8  451.02   23.62
  16  -3   9  104.44   13.39
  16  -3  10  205.05   17.35
  16   3  11   21.95    4.66
  16   3  12  251.90   10.68
 -16   4 -14   60.65   12.98
 -16  -4 -13   72.39    9.31
 -16   4 -13   74.16   14.89
 -16   4 -12   90.21   15.16
 -16  -4 -12   75.97    9.18
 -16   4 -11   93.99   14.59
 -16  -4 -11   99.92    9.74
 -16  -4 -10  102.11    9.11
 -16  -4  -9  234.62   11.88
  16  -4  -9  214.89   19.64
  16  -4  -8   14.51    7.80
 -16  -4  -8   18.96    5.14
  16  -4  -7  293.51   21.55
 -16  -4  -7  283.62   11.19
  16  -4  -6  192.50   17.14
 -16  -4  -6  201.35    9.00
  16  -4  -5  244.01   18.83
 -16  -4  -5  246.32    9.13
  16  -4  -4   94.62   12.72
 -16  -4  -4   85.43    5.56
  16  -4  -3  111.38   12.97
  16  -4  -3  101.28    9.21
  16  -4  -2  161.15   14.81
  16  -4  -2  147.42   10.34
  16  -4  -1   70.76   10.90
  16  -4  -1   79.67    7.94
  16  -4   0  126.05    9.19
 -16  -4   0  136.60    7.66
  16  -4   0  129.39   13.58
  16  -4   1   68.49    7.00
  16   4   1   67.14    6.47
 -16  -4   1   60.65    6.13
  16  -4   1   65.12   10.67
  16   4   2  155.35    8.28
  16  -4   2  163.19    9.52
 -16  -4   2  151.72    9.31
  16  -4   2  138.31   14.43
  16  -4   3  102.64    7.48
 -16  -4   3  101.93    8.41
  16   4   3  105.97    6.34
  16  -4   3   96.27   12.63
  16  -4   4   86.42    6.49
  16   4   4   82.97    4.61
  16  -4   4   99.14   12.46
 -16  -4   5  231.45   12.74
  16  -4   5  228.73   18.06
 -16  -4   6  182.28   12.06
  16  -4   6  181.61   16.31
 -16  -4   7  296.63   15.40
  16  -4   7  250.62   19.35
  16  -4   8   11.80    8.41
 -16  -4   8   20.94    6.88
  16  -4   9  234.00   18.85
  16  -4  10  103.03   13.91
  16   4  11   90.18    8.47
  16  -4  11  115.06   14.48
  16   4  12   75.32    7.58
 -16   5 -13  185.44   19.69
  16  -5 -13  121.25   17.89
 -16   5 -12   14.72   11.24
  16  -5 -12   20.88   11.20
  16  -5 -11  326.57   25.99
  16  -5 -10   -6.54   10.00
 -16  -5 -10  -10.74    5.61
  16  -5  -9  342.02   24.69
 -16  -5  -9  333.70   12.08
  16  -5  -8   75.89   13.41
 -16  -5  -8   78.97    5.86
  16  -5  -7  532.84   28.91
 -16  -5  -7  478.87   10.95
  16  -5  -6   13.30    9.30
 -16  -5  -6    4.69    1.57
  16  -5  -5  818.86   33.76
  16  -5  -4   56.60   11.84
  16  -5  -3  470.88   25.16
  16  -5  -2   -1.61    7.66
  16  -5  -2    4.58    4.56
  16  -5  -1  279.50   13.82
 -16  -5  -1  282.09    6.84
  16  -5  -1  296.55   20.45
  16  -5   0   -1.30    8.62
  16  -5   0    2.22    4.67
 -16  -5   0    3.88    2.68
  16  -5   1  315.02   13.99
 -16  -5   1  308.52   10.24
  16   5   1  293.70   11.46
  16  -5   1  295.08   20.65
  16  -5   2    0.25    4.23
  16   5   2   -0.29    2.24
 -16  -5   2    4.21    4.03
  16  -5   2    1.64    8.37
 -16  -5   3  469.42   15.15
  16  -5   3  463.21   24.96
  16  -5   4   61.65   11.75
 -16  -5   4   62.60    7.22
  16  -5   5  781.54   32.47
 -16  -5   6    8.55    6.05
  16  -5   6    6.98    7.93
  16  -5   7  494.22   26.97
 -16  -5   7  534.83   19.88
 -16  -5   8   93.95    9.91
  16  -5   8   94.35   14.24
  16  -5   9  335.99   23.30
  16  -5  10   -2.47    8.28
  16   5  11  304.16   15.36
  16  -5  11  329.38   23.42
  16   5  12   25.91    6.20
  16  -6 -13    3.72    9.93
  16  -6 -12   88.71   15.67
 -16   6 -12  116.80   16.24
  16  -6 -11   10.27    9.53
  16  -6 -10   69.72   14.36
  16  -6  -9   43.95   12.21
  16  -6  -8   77.10   13.58
  16  -6  -7   13.63    8.86
  16  -6  -6  126.82   15.81
  16  -6  -5   50.75   11.04
  16  -6  -4  169.21   16.89
  16  -6  -3   87.83   13.04
  16  -6  -2  422.45   24.99
  16  -6  -1   10.26    9.19
  16  -6   0  240.18   13.12
  16  -6   0  218.64   18.57
  16   6   1    5.22    2.87
  16  -6   1    6.26    8.57
  16   6   2  358.04    7.76
  16  -6   2  419.38   24.86
 -16  -6   2  411.91   11.33
 -16  -6   3   92.37    6.78
  16  -6   3   94.64   13.60
 -16  -6   4  157.84    9.36
  16  -6   4  138.94   15.79
  16  -6   5   45.68   11.01
 -16  -6   6  108.43    9.17
  16  -6   6   88.38   14.34
 -16  -6   7   25.89    6.39
  16  -6   7    9.58    8.86
 -16  -6   8   79.24    9.27
  16  -6   8   78.66   13.90
  16  -6   9   46.49   12.28
  16  -6  10   61.96   13.01
  16   6  11   -1.13    5.51
  16  -6  11   23.44   11.42
  16   6  12  102.55   10.09
  16  -7 -12   43.05   12.91
  16  -7 -11   74.80   14.65
  16  -7 -10  137.85   17.61
  16  -7  -9   46.96   12.43
  16  -7  -8   73.76   14.18
  16  -7  -7   91.72   14.48
  16  -7  -6  114.93   15.83
  16  -7  -5   42.11   11.35
  16  -7  -4   20.66   10.12
  16  -7  -3  425.83   25.84
  16   7  -2  548.02   17.43
  16  -7  -2  628.81   31.22
  16   7  -1  155.59    9.12
  16  -7  -1  188.95   18.47
  16   7   0  432.44   13.20
  16  -7   0  435.21   26.42
  16  -7   1  183.25   17.65
  16  -7   2  628.07   31.01
  16  -7   3  450.37   27.00
  16  -7   4    9.46    8.80
  16  -7   5   43.45   11.60
  16  -7   6  100.41   15.22
 -16  -7   6   98.26    8.51
  16  -7   7  102.69   15.64
  16  -7   8   57.25   12.53
  16  -7   9   54.06   13.17
  16  -7  10  123.04   16.71
  16   7  11   54.48    9.05
  16  -7  11   70.62   13.64
  16   7  12   36.63    7.88
  16  -8 -10   14.90   10.84
  16  -8  -9  121.22   17.04
  16  -8  -8    6.31    9.72
  16  -8  -7  128.81   17.12
  16  -8  -6  -12.36   11.01
  16  -8  -5  126.24   16.62
  16  -8  -4   31.71   11.38
  16  -8  -3  182.08   19.08
  16  -8  -2    8.69    9.35
  16  -8  -1  211.85   20.25
  16  -8   0  109.40   15.41
  16  -8   1  205.65   19.98
  16  -8   2    7.00    8.96
  16  -8   3  155.81   18.22
  16  -8   4   17.45   10.77
  16  -8   5  121.94   16.63
  16  -8   6   -5.35    9.12
  16  -8   7  112.39   16.32
  16  -8   8    3.37    9.53
  16  -8   9  120.05   16.88
  16   8  11   63.15   10.22
  16   8  12   -4.62    6.77
  16  -9  -8  132.22   17.88
  16  -9  -7   51.94   12.75
  16  -9  -6  117.80   17.12
  16  -9  -5   35.96   12.42
  16  -9  -4  126.57   17.25
  16  -9  -3   22.65   11.51
  16  -9  -2  209.28   20.69
  16  -9  -1   -5.38    9.90
  16  -9   0   72.48   14.44
  16  -9   1   -4.31    9.63
  16  -9   2  176.72   19.43
  16  -9   3   14.61   10.22
  16  -9   4  128.76   17.73
  16  -9   5   34.93   12.05
  16  -9   6   99.27   15.92
  16   9  11   18.31    8.44
  16 -10  -4  174.20   19.85
  16 -10  -3    1.63    9.82
  16 -10  -2  199.93   20.45
  16 -10  -1   24.98   11.51
  16 -10   0  259.17   23.32
  16 -10   1   24.77   12.19
  16 -10   2  240.92   22.31
 -17   0 -17  189.20   17.54
 -17   0 -16   18.66    9.74
 -17   0 -15  121.56   14.64
 -17   0 -14    4.53    8.06
 -17   0 -13  224.04   17.86
 -17   0 -12   -8.51    5.94
 -17   0 -12   -1.43    8.19
 -17   0 -11  209.34   14.06
 -17   0 -11  210.47   17.01
 -17   0 -10   -1.11    4.88
 -17   0 -10    6.23    7.91
 -17   0  -9  276.57   16.87
 -17   0  -9  252.81   15.26
 -17   0  -8   -6.19    5.80
 -17   0  -7  192.48   13.08
 -17   0  -6   -3.44    4.82
  17   0  -2    0.62    6.31
  17   0  -1 2295.19   44.95
  17   0   0   26.05    7.66
  17   0   1 2345.62   43.37
  17   0   2    3.46    5.80
  17   0   3  607.63   22.76
  17   0   4    1.74    5.75
  17   0   5  251.50   14.87
  17   0   6   -4.39    6.17
  17   0   7  172.37   13.14
  17   0   8   -0.72    5.41
  17   0   9  286.69   16.26
 -17  -1 -17   39.29   10.82
 -17   1 -16   53.01   11.98
 -17  -1 -16   59.38   11.35
 -17   1 -15   80.65   13.60
 -17  -1 -15   75.68   11.67
 -17  -1 -14   54.89   11.05
 -17   1 -14   70.13   12.92
 -17   1 -13   29.93   10.09
 -17  -1 -13   42.19   10.16
 -17   1 -12    8.52    8.63
 -17  -1 -12   26.12    6.14
 -17  -1 -12   12.32    7.75
 -17  -1 -11  120.51   10.12
 -17   1 -11  121.60   14.37
 -17  -1 -11  110.34   12.20
 -17  -1 -10   23.19    8.10
 -17   1 -10   27.68    9.64
 -17   1 -10   24.46    7.12
 -17  -1 -10   26.72    6.00
 -17   1  -9   29.53    7.11
 -17  -1  -9   30.49    8.05
 -17   1  -8   33.98    7.17
 -17   1  -7   86.66   10.27
 -17   1  -6  253.69   15.87
 -17   1  -5  133.41   11.68
 -17   1  -4   48.65    8.16
  17  -1  -4   38.58    8.85
  17  -1  -3  142.63   13.75
  17  -1  -2  160.40   13.93
  17  -1  -1  275.36   16.71
  17   1  -1  282.81   15.97
  17   1   0   80.96    9.26
  17  -1   0   84.26   10.27
  17  -1   1  281.48   16.81
  17   1   1  279.33   14.90
  17   1   2  158.60   11.61
  17  -1   2  159.18   13.29
  17  -1   3  148.24   12.70
  17   1   3  157.40   11.73
  17  -1   4   48.81    8.87
  17   1   4   56.77    7.82
  17   1   5  137.78   10.74
  17  -1   5  143.76   12.57
  17   1   6  245.85   13.73
  17  -1   6  241.90   15.93
  17   1   7  100.31    9.53
  17  -1   7   88.96   10.84
 -17  -1   7   67.13    8.98
  17  -1   8   25.12    1.82
  17   1   8   43.16    7.14
  17  -1   8   28.40    8.38
  17  -1   9   30.00    7.83
  17   1  10   28.77    3.18
  17  -1  10   31.14    8.64
 -17  -2 -17   13.55    8.96
 -17   2 -16   60.28   13.14
 -17  -2 -16   54.01   10.53
 -17  -2 -15   32.19    9.11
 -17   2 -15   28.08   10.98
 -17   2 -14  123.43   15.61
 -17  -2 -14  116.34   12.65
 -17   2 -13   24.72   11.03
 -17  -2 -13   21.73    8.07
 -17   2 -12  128.43   15.57
 -17  -2 -12  119.81   12.30
 -17  -2 -11   55.91    9.64
 -17   2 -11   42.46   10.43
 -17  -2 -10  316.25   17.00
 -17  -2 -10  323.87   13.83
 -17  -2  -9    5.88    3.50
 -17  -2  -9    7.04    6.39
 -17   2  -8  648.69   25.34
 -17  -2  -8  595.08   20.80
 -17   2  -7  169.83   13.75
 -17   2  -6   40.79    8.12
 -17   2  -5    5.94    5.47
  17  -2  -5   18.39    8.12
  17  -2  -4  955.46   33.48
 -17   2  -4 1031.63   31.59
  17  -2  -3  198.66   15.81
 -17   2  -3  239.70   15.97
  17  -2  -2   36.25    8.20
  17  -2  -1  169.09   14.32
  17   2  -1  186.79   12.82
  17  -2   0  236.49   16.25
  17   2   0  240.09   13.95
  17   2   1  185.48   11.70
  17  -2   1  185.22   14.49
  17  -2   2   31.87    8.63
  17   2   2   42.77    6.68
  17  -2   3  207.47   15.83
  17   2   3  236.35   12.56
  17  -2   4  956.30   31.48
  17   2   4 1035.15   24.52
 -17  -2   5   11.91    5.88
  17   2   5   15.83    5.17
  17  -2   5   24.49    8.50
  17  -2   6   48.66    4.07
  17   2   6   55.31    6.92
  17  -2   6   39.97    9.44
 -17  -2   6   39.78    7.81
  17  -2   7  119.35    4.64
  17   2   7  158.03    9.86
  17  -2   7  158.31   14.83
 -17  -2   7  148.70   12.20
  17  -2   8  592.38   25.66
  17  -2   9    8.64    7.54
  17  -2  10  343.57   20.56
  17   2  11   40.20    4.46
 -17  -3 -15   94.87   11.35
 -17   3 -15   81.86   13.92
 -17  -3 -14   53.07    9.55
 -17   3 -14   63.06   13.46
 -17  -3 -13  211.65   14.93
 -17   3 -13  219.10   20.33
 -17  -3 -12   25.07    7.94
 -17   3 -12   11.18    9.28
 -17   3 -11  245.20   20.27
 -17  -3 -11  269.57   15.03
 -17  -3 -10   23.96    7.01
 -17  -3  -9  308.54   14.98
 -17  -3  -8   43.86    7.14
  17  -3  -7  329.88   23.15
 -17  -3  -7  319.83   13.94
  17  -3  -6  244.02   19.11
 -17  -3  -6  280.41   12.55
 -17   3  -5  643.83   26.21
  17  -3  -5  631.53   29.08
  17  -3  -4   98.95   12.96
 -17   3  -4  108.17   11.85
  17  -3  -3  120.63   13.73
 -17   3  -3  131.47   12.69
  17  -3  -2   78.42   11.33
  17  -3  -1  395.78   21.50
  17  -3   0    4.41    7.09
  17   3   0   -1.23    4.81
  17   3   1  398.66   15.75
  17  -3   1  387.90   21.50
  17   3   2   75.75    7.38
  17  -3   2   72.25   11.11
  17  -3   3  138.29    8.33
  17  -3   3  144.32   14.40
  17   3   3  125.92    8.74
  17  -3   4   99.96    6.95
  17   3   4  102.59    7.52
 -17  -3   4   87.87    8.91
  17  -3   4  107.62   12.93
  17  -3   5  593.65   14.18
  17   3   5  632.69   16.13
  17  -3   5  637.36   27.37
 -17  -3   5  590.36   20.97
  17  -3   6  264.49    8.45
  17   3   6  291.61   10.45
  17  -3   6  284.26   19.18
 -17  -3   6  275.67   15.02
  17  -3   7  321.12   20.75
 -17  -3   7  329.56   16.54
  17  -3   8   35.07    9.81
  17  -3   9  306.20   20.65
  17  -3  10   20.73    9.26
  17   3  11  249.01   11.34
  17  -3  11  256.03   19.51
 -17   4 -14  131.12   17.32
 -17   4 -13   25.03   10.49
 -17  -4 -12   84.88    9.52
 -17   4 -12   55.24   13.65
 -17  -4 -11  164.34   11.21
 -17  -4 -10  166.04   10.88
  17  -4 -10  165.86   19.20
 -17  -4  -9  116.10    8.88
  17  -4  -9   94.28   14.64
  17  -4  -8  263.82   21.68
 -17  -4  -8  272.18   11.92
  17  -4  -7   42.20   11.01
 -17  -4  -7   58.67    6.50
 -17  -4  -6  277.68   10.75
  17  -4  -6  248.22   19.80
  17  -4  -5  103.85   13.94
 -17  -4  -5  115.13    6.96
  17  -4  -4  234.84   18.85
  17  -4  -3  116.73    9.97
  17  -4  -3   89.05   12.52
  17  -4  -2  123.43   14.12
  17  -4  -2  129.57    9.81
  17  -4  -1  183.18   15.92
  17  -4  -1  183.46   11.35
  17  -4   0    1.90    7.14
  17  -4   0   12.84    4.66
  17  -4   1  174.91   10.51
  17   4   1  186.55   10.58
 -17  -4   1  170.09    9.47
  17  -4   1  174.09   16.05
  17   4   2  128.45    8.28
  17  -4   2  123.18    8.56
 -17  -4   2  138.97    9.38
  17  -4   2  106.86   13.22
  17  -4   3  111.46    7.97
  17  -4   3  111.06   13.29
  17   4   3   97.75    6.63
  17  -4   4  219.74   10.00
  17   4   4  223.10    8.02
  17  -4   4  242.95   18.63
 -17  -4   5  112.28    9.99
  17   4   5  101.90    4.13
  17  -4   5   95.54   12.75
 -17  -4   6  257.34   14.03
  17  -4   6  236.40   18.87
 -17  -4   7   66.57    8.83
  17  -4   7   59.90   11.92
 -17  -4   8  257.65   15.01
  17  -4   8  251.15   19.88
  17  -4   9  133.10   15.64
  17  -4  10  194.17   18.14
  17   4  11  137.84    9.92
  17  -4  11  174.45   17.39
  17  -5 -13   -5.33   11.08
 -17   5 -13    9.68    9.65
  17  -5 -12  253.20   24.09
 -17   5 -12  268.55   22.50
  17  -5 -11   15.90    9.95
  17  -5 -10  189.16   20.31
  17  -5  -9   14.49    9.47
 -17  -5  -9   13.56    3.96
  17  -5  -8  550.11   30.59
 -17  -5  -8  540.87   13.28
 -17  -5  -7   25.27    3.20
  17  -5  -7   28.71   10.37
  17  -5  -6  502.66   28.02
 -17  -5  -6  420.99    8.37
  17  -5  -5   14.16    8.72
  17  -5  -4  884.30   34.84
  17  -5  -3    6.72    7.26
  17  -5  -2  365.09   22.77
  17  -5  -1   -1.09    8.44
  17  -5  -1   -2.32    4.81
 -17  -5  -1    2.86    2.19
 -17  -5   0  246.13    8.60
  17  -5   0  255.76   13.12
  17  -5   0  250.93   19.54
  17  -5   1    3.28    4.20
  17   5   1    1.67    3.37
 -17  -5   1    5.23    3.68
  17  -5   1   -0.19    8.39
  17   5   2  371.33   11.62
  17  -5   2  358.46   14.20
 -17  -5   2  367.65   12.65
  17  -5   2  405.53   23.91
 -17  -5   3   15.31    5.10
  17  -5   3   10.18    9.21
  17   5   3    7.30    1.88
  17  -5   4  883.91   34.76
  17  -5   5   10.59    9.56
 -17  -5   5   24.10    5.46
  17  -5   6  453.77   26.37
 -17  -5   6  445.16   17.45
 -17  -5   7   22.83    6.75
  17  -5   7   17.48   10.39
  17  -5   8  546.26   29.15
 -17  -5   8  511.28   20.21
  17  -5   9   22.62    9.96
  17  -5  10  180.75   18.58
  17  -5  11   17.49   10.50
  17   5  12  224.09   13.08
  17  -6 -12    5.16    9.75
  17  -6 -11   95.53   16.36
  17  -6 -10   27.70   11.75
  17  -6  -9   49.93   13.05
  17  -6  -8   10.28    9.95
  17  -6  -7   96.98   15.28
  17  -6  -6   83.69   13.15
  17  -6  -5  121.03   15.95
  17  -6  -4    4.69    8.45
  17  -6  -3  291.44   21.35
  17  -6  -2  188.74   17.90
  17  -6  -1  295.85   21.82
  17  -6   0   -0.62    4.94
  17  -6   0   -2.82    7.70
 -17  -6   1  282.66    7.79
  17   6   1  280.68   10.73
  17  -6   1  307.95   22.14
  17   6   2  165.27    5.94
  17   6   2  167.08    5.63
 -17  -6   2  192.84    8.12
  17  -6   2  206.19   18.64
 -17  -6   3  304.93   11.50
  17  -6   3  300.45   21.65
  17  -6   4  -15.60   10.95
 -17  -6   4    3.43    4.34
  17  -6   5  102.32   15.31
  17  -6   6   71.69   12.89
 -17  -6   6   72.55    8.14
 -17  -6   7   73.28    8.54
  17  -6   7   76.71   13.56
  17  -6   8   -0.22    9.50
  17  -6   9   51.51   12.58
  17  -6  10   25.04   11.15
  17  -6  11  129.23   16.47
  17   6  12   -2.55    5.60
  17  -7 -11   71.35   14.83
  17  -7 -10   90.88   15.51
  17  -7  -9   83.15   15.17
  17  -7  -8   44.33   12.16
  17  -7  -7   99.52   15.69
  17  -7  -6  158.23   18.35
  17  -7  -5   88.05   14.48
  17  -7  -4   29.58   11.02
  17  -7  -3   67.22   13.86
  17  -7  -2  642.40   32.07
  17  -7  -1  531.52   29.58
  17  -7   0   68.94   13.67
  17   7   1  479.75   12.12
  17  -7   1  557.22   30.01
  17  -7   2  689.43   33.17
  17  -7   3   65.06   13.20
  17  -7   4   16.56   10.29
  17  -7   5   83.49   14.36
  17  -7   6  128.18   17.34
  17  -7   7   68.24   13.81
  17  -7   8   31.07   11.26
  17  -7   9   52.30   13.14
  17  -7  10   80.34   14.06
  17   7  11   62.49    9.25
  17   7  12   36.50    8.27
  17  -8  -9    7.50   10.67
  17  -8  -8  134.17   17.56
  17  -8  -7   -3.69    9.14
  17  -8  -6  114.79   16.63
  17  -8  -5   -7.66   10.54
  17  -8  -4  150.62   17.97
  17  -8  -3    4.73    9.20
  17  -8  -2  196.50   19.91
  17  -8  -1   16.25    9.79
  17  -8   0  136.81   16.97
  17  -8   1   22.98   11.33
  17  -8   2  188.12   19.72
  17  -8   3   16.02    9.89
  17  -8   4  161.43   18.33
  17  -8   5   -8.01   10.43
  17  -8   6  102.66   16.55
  17  -8   7   -7.35   10.27
  17  -8   8  123.87   16.95
  17   8  11   11.50    6.90
  17   8  12   66.52   10.06
  17  -9  -7  125.08   17.63
  17  -9  -6   47.17   13.49
  17  -9  -5   75.19   15.11
  17  -9  -4   30.19   11.42
  17  -9  -3   83.27   15.17
  17  -9  -2    1.54    9.45
  17  -9  -1  135.97   17.65
  17  -9   0    1.88    9.22
  17  -9   1  130.51   17.31
  17  -9   2    4.69   10.16
  17  -9   3   93.85   16.04
  17  -9   4   41.88   13.87
  17  -9   5   83.51   15.77
  17   9  11   52.61   10.27
 -18   0 -17   20.04   10.21
 -18   0 -16  166.02   16.57
 -18   0 -15    4.73    8.81
 -18   0 -14  102.87   13.87
 -18   0 -13   10.02    8.58
 -18   0 -12  253.94   18.53
 -18   0 -11   12.56    5.92
 -18   0 -11   11.91    8.85
 -18   0 -10  296.64   16.46
 -18   0 -10  288.50   18.52
 -18   0  -9   -3.33    4.70
 -18   0  -8  339.79   17.38
 -18   0  -7   -4.07    5.51
 -18   0  -6  322.67   16.87
  18   0  -3   -1.81    6.73
  18   0  -2 1096.38   33.13
  18   0  -1    8.66    6.72
  18   0   0 1405.20   35.54
  18   0   1    8.40    6.46
  18   0   2 1130.99   31.26
  18   0   3    1.86    6.20
  18   0   4  171.82   13.19
  18   0   5    2.83    5.84
  18   0   6  315.07   17.27
  18   0   7   -4.71    6.68
  18   0   8  380.01   18.81
  18   0   9    2.54    5.62
 -18  -1 -17   57.29   11.37
 -18   1 -16   25.78   10.50
 -18  -1 -16   45.69   10.91
 -18   1 -15   57.83   12.06
 -18  -1 -15   50.10   10.70
 -18  -1 -14   70.02   11.27
 -18   1 -14   76.07   13.20
 -18  -1 -13   83.95   11.92
 -18   1 -13   87.15   13.41
 -18   1 -12   24.54    9.71
 -18  -1 -12   46.43    9.96
 -18  -1 -11   38.45    8.97
 -18  -1 -11   32.20    6.44
 -18   1 -11   17.51    8.86
 -18   1 -10  101.62   12.75
 -18  -1 -10   96.20    9.45
 -18  -1 -10   88.20   11.34
 -18   1 -10   81.76   10.10
 -18  -1  -9   29.61    8.06
 -18   1  -9   26.04    6.83
 -18  -1  -9   21.08    5.31
 -18   1  -8   21.99    6.50
 -18   1  -7  144.18   12.38
 -18   1  -6  118.83   11.64
 -18   1  -5   71.86    9.41
  18  -1  -4   72.41   11.34
  18  -1  -3  186.59   15.48
  18  -1  -2  266.54   17.84
  18   1  -2  242.13   15.90
  18  -1  -1   39.07    8.63
  18   1  -1   40.22    7.91
  18  -1   0  185.15   14.38
  18   1   0  187.14   13.28
  18  -1   1   41.40    8.45
  18   1   1   48.02    7.61
  18  -1   2  257.84   16.81
  18   1   2  257.92   14.75
  18  -1   3  192.76   14.64
  18   1   3  200.40   13.35
  18  -1   4   63.69    9.76
  18   1   4   61.15    8.48
  18  -1   5   91.46   11.02
  18   1   5   71.78    8.68
  18   1   6  121.51   10.58
  18  -1   6  108.03   11.95
  18   1   7  149.62   11.57
  18  -1   7  118.68   12.44
  18  -1   8   26.90    2.27
  18   1   8   36.60    7.06
  18  -1   8   25.51    8.30
  18  -1   9   27.72    7.89
  18   1  10   76.79    4.69
  18  -1  10   91.13   11.76
 -18  -2 -16   23.82    8.87
 -18  -2 -15   60.17   10.43
 -18   2 -15   67.08   12.96
 -18   2 -14   40.16   11.69
 -18  -2 -14   33.05    8.70
 -18  -2 -13  128.30   13.05
 -18   2 -13  139.32   16.39
 -18  -2 -12   21.16    8.11
 -18   2 -12   13.73    9.15
 -18  -2 -11   78.95   10.53
 -18   2 -11   82.81   13.45
 -18  -2 -10   84.91   10.45
 -18  -2 -10   66.97    7.00
 -18  -2  -9  281.69   15.71
 -18  -2  -8   -2.45    6.27
 -18   2  -7  488.70   22.50
 -18   2  -6  434.13   21.21
  18  -2  -6  417.77   24.75
 -18   2  -5  268.58   16.74
  18  -2  -5  248.41   18.98
  18  -2  -4    4.58    7.85
 -18   2  -4    2.86    5.37
  18  -2  -3  343.88   20.76
  18  -2  -2  173.52   15.16
  18  -2  -1  259.79   17.66
  18   2  -1  261.95   15.45
  18  -2   0  223.85   16.40
  18   2   0  203.71   13.31
  18   2   1  264.85   14.50
  18  -2   1  267.16   17.84
  18   2   2  167.71   11.60
  18  -2   2  151.81   14.13
  18  -2   3  348.43   20.41
  18   2   3  362.85   15.90
  18  -2   4    8.33    8.00
  18   2   4    6.38    5.01
  18   2   5  263.71   13.25
  18  -2   5  254.06   17.69
  18  -2   6  404.10   10.53
  18   2   6  440.49   16.62
  18  -2   6  392.77   21.61
 -18  -2   6  391.85   18.22
  18  -2   7  385.40    8.64
  18   2   7  483.85   16.92
  18  -2   7  429.99   22.87
  18  -2   8    0.24    7.34
  18  -2   9  294.65   19.71
  18  -2  10   81.28   11.77
 -18  -3 -14  132.95   12.49
 -18   3 -14  141.69   16.82
 -18   3 -13   14.60   10.32
 -18  -3 -13   22.85    7.86
 -18  -3 -12  200.07   13.85
 -18   3 -12  188.93   19.00
 -18  -3 -11   39.83    7.97
 -18   3 -11   11.76    9.76
 -18  -3 -10  217.39   13.30
 -18  -3  -9   24.05    6.41
 -18  -3  -8  365.41   15.86
  18  -3  -8  379.73   25.18
 -18  -3  -7   -0.84    5.30
  18  -3  -7   -4.70    8.76
 -18  -3  -6   98.56    8.51
  18  -3  -6  108.21   14.50
  18  -3  -5  236.54   18.99
  18  -3  -4  686.38   30.25
  18  -3  -3  226.55   17.71
  18  -3  -2  215.71   16.96
  18  -3  -1    4.74    6.82
  18   3   0  280.64   14.75
  18  -3   0  302.95   19.47
  18  -3   1    0.61    7.46
  18   3   1    5.70    4.53
  18   3   2  228.80   12.23
  18  -3   2  220.66   17.34
  18  -3   3  217.13   10.42
  18  -3   3  230.64   17.71
  18   3   3  220.04   11.73
  18  -3   4  696.39   16.86
 -18  -3   4  679.07   21.86
  18   3   4  736.04   19.28
  18  -3   4  704.06   28.96
  18  -3   5  221.05    9.14
  18   3   5  250.37   11.09
  18  -3   5  246.06   18.42
 -18  -3   5  223.07   13.64
  18  -3   6   95.58    5.60
  18   3   6  116.47    7.40
  18  -3   6  106.28   13.50
 -18  -3   6  109.05   10.55
 -18  -3   7    1.36    5.81
  18  -3   7    3.84    7.77
  18  -3   8  383.01   22.88
  18  -3   9   37.42   10.31
  18  -3  10  204.37   18.08
  18   3  11   26.11    4.98
  18  -3  11   41.16   10.62
 -18   4 -13   46.31   13.38
 -18   4 -12   66.38   13.21
 -18  -4 -11  192.01   11.90
  18  -4 -11  171.10   19.90
 -18  -4 -10  140.33   10.25
  18  -4 -10  112.17   16.65
 -18  -4  -9  121.76    9.13
  18  -4  -9   86.87   14.42
  18  -4  -8  145.06   17.16
 -18  -4  -8  148.02    9.34
  18  -4  -7  135.43   16.13
 -18  -4  -7  150.23    8.93
  18  -4  -6   38.47   10.34
 -18  -4  -6   51.95    5.85
 -18  -4  -5  292.58   10.83
  18  -4  -5  266.17   20.46
  18  -4  -4   58.58   11.49
  18  -4  -3  310.80   21.28
  18  -4  -2  187.46   16.79
  18  -4  -2  202.61   12.34
  18  -4  -1   52.99   10.90
  18  -4  -1   68.30    7.70
  18  -4   0   40.66   10.12
  18  -4   0   53.20    7.09
  18   4   0   51.42    7.12
  18  -4   1   66.44    7.22
  18   4   1   64.62    7.18
 -18  -4   1   57.80    6.27
  18  -4   1   61.02   11.58
  18   4   2  227.05   11.19
  18  -4   2  201.80   10.81
 -18  -4   2  206.89   11.14
  18  -4   2  209.26   17.73
  18  -4   3  338.03   13.00
  18  -4   3  355.59   21.86
  18   4   3  341.08   12.39
  18  -4   4   50.29    5.55
  18   4   4   57.10    4.86
  18  -4   4   58.68   11.63
 -18  -4   4   78.01    8.28
  18   4   5  254.99    7.49
  18  -4   5  272.12   20.26
 -18  -4   5  299.08   14.62
 -18  -4   6   49.55    7.97
  18  -4   6   45.64   10.44
 -18  -4   7  146.56   11.57
  18  -4   7  132.67   15.53
  18  -4   8  132.42   15.68
  18  -4   9  107.66   14.65
  18  -4  10  131.90   15.48
  18  -4  11  194.97   18.49
  18  -5 -12  -18.19   11.30
 -18   5 -12   -7.98   11.27
  18  -5 -11  175.66   20.42
  18  -5 -10   35.56   11.96
  18  -5  -9  291.05   24.48
  18  -5  -8   -8.28    9.69
  18  -5  -7  445.75   27.67
 -18  -5  -7  418.54   10.14
 -18  -5  -6    2.51    1.91
  18  -5  -6   -1.91    8.35
 -18  -5  -5  487.59    7.84
  18  -5  -5  550.83   29.09
  18  -5  -4   40.84   11.07
 -18  -5  -4   36.33    2.20
  18  -5  -3  684.23   31.45
 -18  -5  -3  608.06    8.93
  18  -5  -2   -6.63    9.47
 -18  -5  -2    1.25    1.83
  18  -5  -1  298.27   14.57
 -18  -5  -1  266.57    8.40
  18  -5  -1  272.67   20.37
  18  -5   0   28.95   10.27
  18  -5   0   15.17    5.10
 -18  -5   0   18.66    3.83
 -18  -5   1  270.69   10.50
  18  -5   1  271.69   13.14
  18   5   1  303.55   12.84
  18  -5   1  309.38   21.85
  18   5   2    6.87    3.05
  18  -5   2   -2.01    3.99
 -18  -5   2    8.48    4.24
  18  -5   2    1.25    8.64
  18  -5   3  671.84   18.60
 -18  -5   3  635.67   17.79
  18  -5   3  683.92   31.27
  18   5   3  598.67   11.83
  18  -5   4   32.76   10.46
 -18  -5   5  493.80   17.53
  18  -5   5  518.94   28.05
  18  -5   6   -0.52    9.48
 -18  -5   6    9.55    5.50
  18  -5   7  428.11   26.40
 -18  -5   7  420.15   17.84
  18  -5   8   -3.92    8.12
  18  -5   9  320.87   23.62
  18  -5  10   40.20   11.87
  18  -5  11  157.88   17.36
  18  -6 -11    3.06    9.99
  18  -6 -10   34.41   11.66
  18  -6  -9   23.04   11.32
  18  -6  -8  101.27   15.64
  18  -6  -7   47.46   12.52
  18  -6  -6  121.44   16.29
  18  -6  -5   67.42   12.85
  18  -6  -4   98.16   14.52
  18  -6  -3   -7.05    9.90
  18  -6  -2  163.65   17.50
  18  -6  -1   52.41   11.94
  18  -6   0  317.61   22.72
  18  -6   1   41.97    6.35
  18   6   1   45.36    5.03
 -18  -6   1   43.95    3.66
  18  -6   1   55.78   12.49
 -18  -6   2  180.09    8.06
  18  -6   2  194.36   18.39
  18   6   2  152.80    6.15
  18  -6   3   16.15   10.05
 -18  -6   3    2.86    3.42
  18  -6   4   76.64   13.13
  18  -6   5   42.78   10.89
 -18  -6   6   90.46    8.63
  18  -6   6   91.44   15.12
  18  -6   7   46.20   12.11
 -18  -6   7   52.54    7.74
  18  -6   8   65.24   13.66
  18  -6   9   17.80   10.37
  18  -6  10   57.34   12.73
  18  -6  11   21.41   11.19
  18  -7 -10  132.93   18.53
  18  -7  -9   61.88   13.70
  18  -7  -8   60.74   13.70
  18  -7  -7  106.36   15.76
  18  -7  -6   83.21   14.71
  18  -7  -5  126.80   16.91
  18  -7  -4   74.97   14.02
  18  -7  -3   86.08   14.97
  18  -7  -2  239.94   21.15
  18  -7  -1  282.30   22.78
  18  -7   0  342.87   24.74
  18  -7   1  292.09   23.07
  18  -7   2  209.14   20.15
  18  -7   3   96.66   14.79
  18  -7   4   70.23   14.32
  18  -7   5  124.20   16.97
  18  -7   6   78.94   13.87
  18  -7   7  106.56   16.67
  18  -7   8   66.33   13.90
  18  -7   9   54.87   12.73
  18  -7  10  148.82   18.53
  18  -8  -8   23.25   11.03
  18  -8  -7   99.74   15.72
  18  -8  -6    7.55    9.77
  18  -8  -5  169.78   19.64
  18  -8  -4    0.95    9.28
  18  -8  -3  145.20   18.18
  18  -8  -2   10.49    9.32
  18  -8  -1  179.77   19.79
  18  -8   0   58.09   13.56
  18  -8   1  176.61   19.67
  18  -8   2    3.41    9.92
  18  -8   3  153.10   18.49
  18  -8   4   -9.30   11.08
  18  -8   5  156.16   18.71
  18  -8   6   -8.26    9.32
  18  -8   7  123.47   16.91
  18   8  11   34.16    8.56
  18  -9  -5   28.93   11.86
  18  -9  -4   59.56   13.70
  18  -9  -3   40.59   12.44
  18  -9  -2   52.29   13.87
  18  -9  -1    6.43    9.81
  18  -9   0  308.48   24.95
  18  -9   1   12.63   10.54
  18  -9   2   48.18   13.63
  18  -9   3   33.72   12.02
 -19   0 -16   25.24   10.06
 -19   0 -15  143.01   15.19
 -19   0 -14    3.67    8.20
 -19   0 -13  218.85   17.89
 -19   0 -12   -6.19    8.51
 -19   0 -11  216.65   17.18
 -19   0 -10   -6.89    5.90
 -19   0 -10   -1.96    7.55
 -19   0  -9  308.67   16.90
 -19   0  -8    4.76    4.97
 -19   0  -7  760.38   25.26
  19   0  -3  227.80   16.83
  19   0  -2   -4.08    7.20
  19   0  -1  656.78   26.01
  19   0   0   21.74    7.65
  19   0   1  623.73   24.49
  19   0   2    2.83    6.06
  19   0   3  240.13   15.65
  19   0   4    1.10    6.49
  19   0   5  225.73   15.05
  19   0   6   -0.35    6.99
  19   0   7  742.05   26.64
  19   0   8    4.39    6.25
  19   0   9  340.33   18.30
 -19   1 -16   50.78   12.52
 -19  -1 -16   37.46   10.16
 -19   1 -15   24.75   10.01
 -19  -1 -15   36.27    9.98
 -19  -1 -14   54.04   10.20
 -19   1 -14   42.85   11.16
 -19   1 -13   59.85   12.28
 -19  -1 -13   59.09   11.02
 -19   1 -12   88.92   13.41
 -19  -1 -12   70.31   11.05
 -19   1 -11   64.89   12.07
 -19  -1 -11   60.17   10.32
 -19  -1 -10   73.36   10.78
 -19  -1 -10   72.99    8.30
 -19   1  -9   78.54    9.95
 -19  -1  -9   78.33   10.43
 -19  -1  -9   84.37    8.82
 -19   1  -8   45.13    8.00
 -19  -1  -8   45.60    6.49
 -19   1  -7   61.46    9.15
 -19   1  -6  264.01   16.22
  19  -1  -5    0.96    7.61
 -19   1  -5   -1.80    5.18
  19  -1  -4   11.66    7.61
  19  -1  -3  283.73   18.94
  19  -1  -2  141.07   14.00
  19   1  -2  136.81   12.92
  19  -1  -1  151.08   14.01
  19   1  -1  143.51   12.75
  19   1   0   81.89   10.04
  19  -1   0   79.33   10.69
  19  -1   1  149.00   13.78
  19   1   1  128.91   11.67
  19  -1   2  138.42   13.29
  19   1   2  133.37   11.55
  19  -1   3  284.03   18.03
  19   1   3  316.01   16.46
  19  -1   4   15.62    7.53
  19   1   4    9.20    5.96
  19   1   5    5.32    5.46
  19  -1   5    4.35    6.89
  19   1   6  278.17   15.65
  19  -1   6  290.65   18.28
  19   1   7   62.50    8.72
  19  -1   7   53.85   10.13
  19   1   8   69.87    8.62
  19  -1   8   69.29   10.74
  19   1   9   85.44    9.48
  19  -1   9   79.55   11.17
  19  -1  10   95.15   11.90
 -19  -2 -15   29.78    8.81
 -19   2 -15   15.30   10.77
 -19   2 -14   62.75   13.35
 -19  -2 -14   69.30   10.57
 -19  -2 -13   51.35    9.58
 -19   2 -13   48.40   11.22
 -19  -2 -12  125.25   12.54
 -19   2 -12  124.20   15.60
 -19   2 -11   13.80    9.47
 -19  -2 -11   23.35    7.98
 -19  -2 -10   65.98    9.65
 -19  -2  -9  121.19   11.23
 -19  -2  -8  143.95   11.77
  19  -2  -6  404.51   24.69
  19  -2  -5  125.71   14.87
 -19   2  -5  134.44   12.65
  19  -2  -4  511.81   26.41
 -19   2  -4  510.57   23.10
  19  -2  -3    1.57    7.09
  19  -2  -2  419.63   22.81
  19  -2  -1   92.19   11.84
  19   2  -1  105.10   11.00
  19  -2   0  256.96   18.06
  19   2   0  244.94   14.91
  19  -2   1   98.99   12.58
  19   2   1  109.24   10.37
  19   2   2  433.83   18.49
  19  -2   2  448.37   23.13
  19  -2   3    7.97    7.51
  19   2   3   15.48    6.18
  19  -2   4  509.12   24.46
  19   2   4  537.66   19.60
  19   2   5  137.11   10.57
  19  -2   5  142.91   14.73
  19  -2   6  401.41   10.95
  19   2   6  409.44   16.57
  19  -2   6  395.61   22.39
 -19  -2   6  378.62   18.15
  19  -2   7   90.17    4.67
  19   2   7   95.12    8.63
  19  -2   7  102.10   13.11
  19   2   8  155.75   10.22
  19  -2   8  136.38   14.64
  19  -2   9  115.60   13.83
  19  -2  10   63.66   11.39
  19  -2  11   32.90    9.80
 -19   3 -14   10.93   10.46
 -19   3 -13   83.84   14.63
 -19  -3 -13   96.24   11.08
 -19   3 -12   15.38   10.35
 -19  -3 -12   22.60    7.38
 -19  -3 -11  230.87   14.07
 -19  -3 -10   21.84    6.52
 -19  -3  -9  217.17   13.11
  19  -3  -9  181.56   19.00
 -19  -3  -8   80.44    8.76
  19  -3  -8   55.86   12.14
 -19  -3  -7  251.09   13.19
  19  -3  -7  268.47   21.82
  19  -3  -6    7.86    9.14
  19  -3  -5   96.07   13.66
  19  -3  -4  257.32   19.74
  19  -3  -3  652.20   29.38
  19  -3  -2   75.69   11.75
  19  -3  -1  318.11   20.91
  19   3  -1  278.76   15.90
  19  -3   0   63.98   11.53
  19   3   0   69.15    8.66
  19   3   1  307.46   15.26
  19  -3   1  287.66   19.86
  19   3   2   98.47    8.90
  19  -3   2   90.08   12.85
  19  -3   3  665.17   17.65
  19  -3   3  663.63   28.98
  19   3   3  684.02   20.66
  19  -3   4  285.91   11.27
 -19  -3   4  261.86   14.29
  19   3   4  308.52   13.51
  19  -3   4  264.69   19.01
  19  -3   5  113.36    6.96
  19   3   5  114.87    8.41
  19  -3   5  114.53   13.80
 -19  -3   5  108.55   10.06
 -19  -3   6   -5.56    6.33
  19  -3   6   -0.62    2.90
  19   3   6    6.91    3.80
  19  -3   6   -9.19    9.26
  19  -3   7  255.82   19.65
  19  -3   8   65.81   12.16
  19  -3   9  207.88   18.28
  19  -3  10   18.60    9.41
  19  -3  11  221.51   18.77
 -19   4 -13   64.92   13.21
  19  -4 -12   26.05   11.81
 -19   4 -12   41.92   12.83
  19  -4 -11    8.78   10.14
 -19  -4 -10  115.33    9.33
  19  -4 -10  108.59   16.10
 -19  -4  -9   80.27    7.89
  19  -4  -9   53.68   12.84
  19  -4  -8   68.37   13.49
 -19  -4  -8  106.53    8.43
  19  -4  -7  141.93   17.23
 -19  -4  -7  154.03    9.13
 -19  -4  -6   68.81    6.52
  19  -4  -6   51.76   11.52
  19  -4  -5    9.77    9.38
 -19  -4  -5   17.22    4.46
  19  -4  -4  343.67   22.83
  19  -4  -3  188.89   17.37
  19  -4  -2  232.73   19.00
  19  -4  -1   45.30   10.36
  19  -4  -1   35.64    6.62
  19  -4   0  124.03    9.47
  19   4   0  126.37   10.24
  19  -4   0  131.06   14.97
  19  -4   1   41.51    6.10
  19   4   1   39.22    6.30
 -19  -4   1   47.13    6.27
  19  -4   1   36.50   10.09
  19   4   2  253.89   12.29
  19  -4   2  240.89   11.80
  19  -4   2  227.17   18.82
  19  -4   3  182.73   10.01
  19  -4   3  191.16   17.33
  19   4   3  181.47    9.90
  19  -4   4  323.02   12.22
  19   4   4  340.62   11.39
  19  -4   4  339.66   22.48
 -19  -4   4  343.78   15.13
  19  -4   5   15.73    3.83
 -19  -4   5   20.74    6.15
  19   4   5   13.95    2.81
  19  -4   5    5.55    8.52
 -19  -4   6   77.81    9.16
  19  -4   6   46.58   11.44
 -19  -4   7  167.52   12.24
  19  -4   7  117.16   15.05
  19  -4   8   87.12   13.83
  19  -4   9   79.14   13.70
  19  -4  10  104.11   14.88
  19  -4  11   40.00   11.22
 -19   5 -12  200.36   20.62
  19  -5 -11  -10.65   10.70
  19  -5 -10  214.14   21.99
  19  -5  -9    0.61    9.15
  19  -5  -8  215.36   21.57
  19  -5  -7   -1.95    8.39
 -19  -5  -6  358.00    8.36
  19  -5  -6  353.91   24.92
  19  -5  -5   27.58   10.85
 -19  -5  -5   21.65    2.39
  19  -5  -4  637.98   31.50
 -19  -5  -4  582.78    9.43
 -19  -5  -3   47.80    3.41
  19  -5  -3   45.81   11.05
 -19  -5  -3   51.99    3.49
 -19  -5  -2  307.87    8.52
  19  -5  -2  329.04   22.83
  19  -5  -1   -2.10    9.18
 -19  -5  -1   17.08    3.24
  19  -5   0  359.08   15.58
  19   5   0  351.20   15.67
  19  -5   0  355.65   23.36
 -19  -5   0  327.28   10.72
  19  -5   1   20.35    5.27
 -19  -5   1   25.32    4.79
  19   5   1   16.01    4.55
  19  -5   1   17.42    9.92
  19   5   2  323.67   11.92
 -19  -5   2  312.37   12.38
  19  -5   2  330.80   13.98
  19  -5   2  321.30   22.62
  19  -5   3   53.88    6.40
  19   5   3   53.12    4.34
  19  -5   3   46.72   11.50
  19  -5   4  655.98   31.08
  19  -5   5   18.73    9.59
 -19  -5   5   17.80    5.91
 -19  -5   6  378.83   16.44
  19  -5   6  356.29   24.53
  19  -5   7    0.20    8.76
 -19  -5   7   14.26    6.27
  19  -5   8  215.08   20.19
  19  -5   9   -1.53    8.95
  19  -5  10  263.65   21.86
  19  -5  11    9.90    9.66
  19  -6 -10    0.30   10.60
  19  -6  -9  110.14   16.58
  19  -6  -8   23.24   10.87
  19  -6  -7   70.08   13.67
  19  -6  -6  126.89   17.38
  19  -6  -5  107.23   15.65
  19  -6  -4   24.78    9.90
  19  -6  -3   84.01   13.68
  19  -6  -2   -6.29    9.51
  19  -6  -1  149.44   16.74
  19  -6   0   54.38   12.17
  19   6   1  142.19    8.26
  19  -6   1  160.60   17.57
  19  -6   2   -0.71    8.20
  19  -6   3   83.43   14.38
  19  -6   4   15.91    8.92
  19  -6   5   95.74   15.32
  19  -6   6  119.33   16.01
  19  -6   7   54.27   13.16
  19  -6   8   39.73   12.41
  19  -6   9  119.26   16.59
  19  -6  10    4.12    9.92
  19  -6  11  101.18   15.47
  19  -7  -9  185.52   20.94
  19  -7  -8   77.97   15.18
  19  -7  -7  157.31   19.09
  19  -7  -6  164.41   19.45
  19  -7  -5   64.42   14.09
  19  -7  -4  125.91   16.55
  19  -7  -3   73.50   14.00
  19  -7  -2   73.52   14.54
  19  -7  -1  236.06   21.57
  19  -7   0  161.31   18.43
  19  -7   1  243.81   21.76
  19  -7   2   60.77   13.41
  19  -7   3   91.34   14.46
  19  -7   4  115.69   15.83
  19  -7   5   66.56   14.35
  19  -7   6  141.00   17.99
  19  -7   7  151.13   18.37
  19  -7   8   66.20   14.41
  19  -7   9  152.78   18.70
  19  -8  -6  227.97   22.19
  19  -8  -5   -2.92   10.20
  19  -8  -4  137.83   17.61
  19  -8  -3   12.76   11.04
  19  -8  -2   55.36   13.61
  19  -8  -1   30.42   12.20
  19  -8   0  415.72   28.43
  19  -8   1   46.93   13.35
  19  -8   2   67.95   14.77
  19  -8   3   12.42   10.63
  19  -8   4  163.38   19.77
  19  -8   5    1.90   10.59
  19  -8   6  251.22   22.90
 -20   0 -16   80.57   12.96
 -20   0 -15   17.67    9.09
 -20   0 -14  161.85   16.00
 -20   0 -13    4.44    8.33
 -20   0 -12  326.59   20.72
 -20   0 -11   -2.41    7.77
 -20   0 -10  216.28   14.57
 -20   0 -10  220.01   16.97
 -20   0  -9   -8.93    5.89
 -20   0  -8  434.07   19.76
  20   0  -4  108.04   13.38
  20   0  -3   -0.19    6.64
  20   0  -2  188.54   15.55
  20   0  -1   12.00    7.38
  20   0   0  543.03   24.16
  20   0   1    0.75    5.91
  20   0   2  193.46   14.76
  20   0   3    3.12    6.74
  20   0   4  130.99   12.85
  20   0   5   -0.12    6.10
  20   0   6  787.78   27.97
  20   0   7   -2.38    6.97
  20   0   8  460.99   22.16
  20   0   9    3.53    6.18
  20   0  10  237.27   15.82
 -20  -1 -16   21.72    9.36
 -20   1 -15   40.92   11.29
 -20  -1 -15   49.03   10.71
 -20   1 -14   17.14    9.83
 -20  -1 -14   37.63    9.71
 -20  -1 -13   63.64   10.60
 -20   1 -13   57.02   11.80
 -20   1 -12   45.62   11.46
 -20  -1 -12   39.44    9.82
 -20   1 -11   35.66   10.15
 -20  -1 -11   44.88    9.76
 -20  -1 -10   80.65   11.28
 -20  -1  -9  171.90   11.76
 -20  -1  -9  168.08   14.21
 -20   1  -7  120.96   11.67
 -20   1  -6   33.07    7.28
  20  -1  -5  322.58   22.14
  20  -1  -4   20.24    8.97
  20  -1  -3   -1.23    7.83
  20   1  -3    0.23    6.92
  20  -1  -2  264.72   18.70
  20   1  -2  251.58   17.23
  20  -1  -1  231.63   17.15
  20   1  -1  194.47   15.15
  20  -1   0   45.46    9.99
  20   1   0   38.85    8.54
  20   1   1  202.49   14.66
  20  -1   1  213.92   16.47
  20  -1   2  251.10   17.50
  20   1   2  248.96   15.85
  20  -1   3    4.63    7.09
  20   1   3    3.31    6.16
  20  -1   4   13.90    8.00
  20   1   4    9.73    5.80
  20   1   5  332.34   17.46
  20  -1   5  334.20   19.82
  20   1   6   29.60    7.31
  20  -1   6   22.06    8.65
  20   1   7  132.84   11.70
  20  -1   7  147.57   14.30
  20   1   8   75.35    9.30
  20  -1   8   75.59   11.37
  20   1   9  188.31   13.07
  20  -1   9  164.49   15.06
  20  -1  10   87.77   11.85
 -20   2 -14   32.66   11.36
 -20  -2 -14   47.79    9.94
 -20  -2 -13   53.08    9.41
 -20   2 -13   46.21   12.15
 -20  -2 -12   35.93    9.12
 -20   2 -12   29.16   10.25
 -20  -2 -11  143.57   12.96
 -20   2 -11  145.53   16.21
 -20  -2 -10   57.42    9.64
 -20  -2  -9   72.33    9.65
 -20  -2  -8  119.15   11.23
  20  -2  -7  104.99   14.65
  20  -2  -6  206.70   19.22
  20  -2  -5  438.87   25.82
  20  -2  -4   12.81    8.38
  20  -2  -3  765.88   31.98
  20  -2  -2   72.61   11.76
  20   2  -2   62.96   10.11
  20  -2  -1  293.70   19.85
  20   2  -1  297.44   17.64
  20  -2   0   61.60   10.53
  20   2   0   48.34    8.17
  20   2   1  281.45   15.90
  20  -2   1  288.62   19.77
  20   2   2   68.14    8.91
  20  -2   2   69.26   11.87
  20  -2   3  755.67   30.51
  20   2   3  769.19   24.67
  20  -2   4   33.60    9.40
  20   2   4   21.02    6.32
  20   2   5  487.16   18.98
  20  -2   5  472.66   24.50
  20  -2   6  226.71    8.74
  20   2   6  222.34   13.25
  20  -2   6  211.86   17.77
  20   2   7  103.97    9.27
  20  -2   7   87.86   12.83
  20   2   8  131.66    9.69
  20  -2   8  123.70   14.33
  20  -2   9   72.79   11.89
  20  -2  10   50.46   10.84
  20  -2  11  165.53   15.72
 -20   3 -13    6.03    9.88
 -20  -3 -12  164.46   12.85
 -20   3 -12  166.56   18.12
 -20  -3 -11   16.81    6.88
 -20  -3 -10  144.59   11.38
  20  -3  -9    9.41   10.48
 -20  -3  -9    6.11    5.60
  20  -3  -8  263.53   22.76
 -20  -3  -8  282.75   14.58
  20  -3  -7   54.55   12.06
 -20  -3  -7   43.73    7.13
  20  -3  -6  118.58   15.54
  20  -3  -5   -1.98    8.97
  20  -3  -4  196.01   17.88
  20  -3  -3  172.34   16.67
  20  -3  -2  455.93   25.39
  20  -3  -1   94.80   12.83
  20   3  -1   99.59   10.67
  20   3   0  256.37   15.46
  20  -3   0  231.22   18.28
  20  -3   1   91.91   12.77
  20   3   1  109.33   10.14
  20   3   2  485.66   19.02
  20  -3   2  436.00   24.88
  20  -3   3  152.45    9.17
  20  -3   3  161.35   15.62
  20   3   3  175.69   11.45
  20  -3   4  188.62    9.45
 -20  -3   4  172.45   11.99
  20   3   4  203.71   11.83
  20  -3   4  190.88   16.92
  20  -3   5    2.44    3.16
  20   3   5   -1.24    4.46
  20  -3   5    4.31    7.56
 -20  -3   5   -7.47    6.33
  20  -3   6  108.34    6.18
  20   3   6  132.10    8.39
  20  -3   6  104.82   14.52
 -20  -3   6  130.16   11.30
  20   3   7   57.71    5.69
  20  -3   7   48.77   11.60
  20  -3   8  258.82   20.33
  20  -3   9    3.50    8.38
  20  -3  10  139.06   15.79
  20  -3  11    8.11    8.62
 -20   4 -12   75.83   14.22
  20  -4 -11   38.54   12.54
  20  -4 -10   58.92   13.29
  20  -4  -9   45.78   12.95
 -20  -4  -8   49.73    6.50
  20  -4  -8   23.38   10.91
 -20  -4  -7   77.90    7.15
  20  -4  -7   74.64   14.42
  20  -4  -6   22.01   10.27
 -20  -4  -6   47.96    5.81
  20  -4  -5   82.12   13.44
 -20  -4  -5   98.04    7.35
  20  -4  -4   91.69   13.74
  20  -4  -3  309.47   22.25
  20  -4  -2   54.76   11.04
  20   4  -1  201.42   13.91
  20  -4  -1  193.38   18.06
  20  -4   0    9.34    8.24
  20  -4   0   11.48    5.05
  20   4   0    8.71    5.29
  20   4   1  205.58   12.55
  20  -4   1  188.56   11.17
  20  -4   1  186.10   17.71
  20   4   2   58.50    6.88
  20  -4   2   63.83    6.93
  20  -4   2   57.97   11.85
  20  -4   3  289.60   12.49
 -20  -4   3  291.40   13.94
  20  -4   3  292.10   21.10
  20   4   3  314.54   12.94
 -20  -4   4   90.91    8.79
  20  -4   4   83.56    6.90
  20   4   4   87.59    6.57
  20  -4   4   96.26   14.38
  20  -4   5   82.92    6.33
 -20  -4   5   95.45    9.28
  20   4   5   75.57    5.21
  20  -4   5   83.55   13.48
 -20  -4   6   54.94    8.02
  20  -4   6   32.69   10.82
  20  -4   7   65.28   12.97
  20  -4   8   44.29   11.54
  20  -4   9   47.13   11.76
  20  -4  10   71.62   13.28
  20  -4  11   70.58   13.33
  20  -5 -10    2.63    9.40
  20  -5  -9  218.36   22.21
  20  -5  -8   -5.83   10.52
  20  -5  -7  184.90   20.08
  20  -5  -6   11.98    9.96
  20  -5  -5  453.26   28.12
 -20  -5  -4   68.03    3.92
  20  -5  -4   94.22   14.46
  20  -5  -3  437.81   26.53
 -20  -5  -3  404.39    9.46
  20  -5  -2   49.36   11.56
 -20  -5  -2   59.36    4.38
 -20  -5  -1  315.00    9.91
  20  -5  -1  318.75   22.91
 -20  -5   0    3.72    3.54
  20   5   0    3.37    4.64
  20  -5   0    5.10    8.10
  20  -5   1  352.29   15.20
  20   5   1  343.74   14.52
  20  -5   1  322.31   22.83
 -20  -5   1  310.04   11.51
 -20  -5   2   69.78    6.92
  20  -5   2   56.00    6.85
  20  -5   2   51.43   11.61
  20   5   2   60.64    6.12
  20  -5   3  440.78   15.70
  20  -5   3  437.44   26.47
  20   5   3  404.88   11.41
 -20  -5   4   75.97    7.90
  20  -5   4   66.16   13.03
 -20  -5   5  405.03   16.41
  20  -5   5  431.75   27.15
  20  -5   6    9.45    9.91
 -20  -5   6   18.63    5.89
  20  -5   7  165.59   18.49
  20  -5   8   -3.56    9.77
  20  -5   9  205.78   19.72
  20  -5  10    3.75    8.90
  20  -5  11  187.28   18.88
  20  -6  -9   15.86    9.74
  20  -6  -8   88.07   15.80
  20  -6  -7   28.02   11.55
  20  -6  -6   73.85   14.20
  20  -6  -5  109.18   16.01
  20  -6  -4   65.24   13.57
  20  -6  -3   -5.79   10.51
  20  -6  -2   66.12   13.29
  20  -6  -1   20.32   10.20
  20   6   0   99.52    8.44
  20  -6   0  123.45   16.60
  20  -6   1    7.72   10.31
  20  -6   2   86.15   14.30
  20  -6   3    9.03    9.96
  20  -6   4  109.35   16.16
  20  -6   5   91.51   15.72
  20  -6   6   83.02   14.59
  20  -6   7   43.54   12.88
  20  -6   8   69.06   13.60
  20  -6   9   19.35   10.76
  20  -6  10  154.93   17.87
  20  -7  -7   72.10   14.53
  20  -7  -6  245.79   22.51
  20  -7  -5  128.79   17.36
  20  -7  -4   33.88   12.04
  20  -7  -3   95.94   15.37
  20  -7  -2   67.83   14.35
  20  -7  -1   65.68   14.13
  20  -7   0  444.76   28.82
  20  -7   1   54.29   13.47
  20  -7   2   73.27   14.60
  20  -7   3  111.42   16.55
  20  -7   4   32.17   11.01
  20  -7   5  112.41   16.78
  20  -7   6  225.85   21.97
  20  -7   7   29.50   11.64
  20  -7   8  197.10   20.38
  20  -8  -4   -0.20    9.73
  20  -8  -3   77.47   15.11
  20  -8  -2   62.10   14.34
  20  -8  -1  186.16   20.30
  20  -8   0   16.02   11.79
  20  -8   1  209.78   21.20
  20  -8   2   62.51   13.91
  20  -8   3   82.22   15.16
  20  -8   4   -1.00   10.19
 -21   0 -15   75.22   12.71
 -21   0 -14   12.17    8.97
 -21   0 -13  123.71   14.21
 -21   0 -12    0.59    7.50
 -21   0 -11  323.42   20.59
 -21   0 -10   -2.84    8.04
 -21   0  -8   -1.56    5.09
  21   0  -4   -3.03    7.47
  21   0  -3  184.49   16.47
  21   0  -2   -6.47    7.59
  21   0  -1  395.96   21.61
  21   0   0   20.30    8.24
  21   0   1  376.00   20.66
  21   0   2   -0.83    6.27
  21   0   3  197.49   15.69
  21   0   4    4.67    6.37
  21   0   5  508.94   23.41
  21   0   6   -0.47    6.95
  21   0   7  392.50   20.79
  21   0   8    1.92    6.39
  21   0   9  472.16   22.20
  21   0  10    3.35    6.25
 -21   1 -15   28.93   10.47
 -21  -1 -15   26.48    9.12
 -21   1 -14   42.57   10.74
 -21  -1 -14   44.07   10.29
 -21  -1 -13   22.60    8.59
 -21   1 -13   20.56    9.65
 -21  -1 -12   57.05   10.31
 -21   1 -12   35.05   10.31
 -21   1 -11   67.70   12.22
 -21  -1 -11   74.92   11.35
 -21  -1 -10   72.54   11.25
 -21  -1  -9   59.65    9.83
  21  -1  -6  259.90   20.87
  21  -1  -5   87.27   13.12
  21  -1  -4  218.33   18.45
  21  -1  -3   -1.95    8.08
  21   1  -3   -3.68    7.37
  21  -1  -2   19.48    8.54
  21   1  -2   16.20    7.45
  21  -1  -1  106.91   12.99
  21   1  -1  132.69   13.24
  21  -1   0  490.94   24.65
  21   1   0  491.89   22.84
  21   1   1  125.12   12.60
  21  -1   1  104.36   12.90
  21  -1   2   14.03    7.58
  21   1   2   17.27    7.64
  21  -1   3    1.12    6.95
  21   1   3   -3.71    6.12
  21  -1   4  223.55   17.36
  21   1   4  275.67   17.09
  21   1   5  102.76   11.05
  21  -1   5  101.28   12.52
  21   1   6  281.08   16.80
  21  -1   6  272.65   18.74
  21   1   7   83.38   10.08
  21  -1   7   66.74   11.38
  21   1   8  108.41   10.56
  21  -1   8  102.49   12.69
  21   1   9   61.95    8.54
  21  -1   9   60.14   10.63
  21  -1  10   57.21   10.24
 -21   2 -14  171.61   18.02
 -21  -2 -13   44.43    9.21
 -21   2 -13   39.91   11.56
 -21   2 -12   58.99   12.77
 -21  -2 -12   58.93    9.55
 -21   2 -11    7.62    8.72
 -21  -2 -11   10.89    6.92
 -21  -2 -10  121.72   11.86
 -21  -2  -9  104.94   11.00
  21  -2  -8  114.64   16.61
 -21  -2  -8  150.86   12.59
  21  -2  -7  116.53   16.19
  21  -2  -6   83.71   13.55
  21  -2  -5  197.81   19.14
  21  -2  -4  383.19   24.51
  21  -2  -3   10.43    8.22
  21  -2  -2  585.83   28.46
  21   2  -2  604.97   26.24
  21  -2  -1  146.85   15.18
  21   2  -1  147.18   13.66
  21  -2   0  200.71   17.10
  21   2   0  195.80   14.72
  21   2   1  153.21   12.90
  21  -2   1  147.12   15.47
  21  -2   2  581.09   27.44
  21   2   2  623.52   23.61
  21  -2   3   15.51    9.13
  21   2   3   16.05    6.90
  21  -2   4  373.29   22.36
  21   2   4  375.22   17.92
  21   2   5  224.29   13.89
  21  -2   5  217.36   17.77
  21   2   6   95.64    9.48
  21  -2   6   84.57   12.43
  21   2   7  132.54   10.09
  21  -2   7  124.36   14.40
  21   2   8  152.45   10.47
  21  -2   8  140.02   15.36
  21  -2   9   94.46   13.45
  21  -2  10  132.82   14.77
  21  -2  11   19.94    8.79
 -21   3 -13   82.91   14.59
 -21   3 -12   16.35    9.73
 -21  -3 -10    3.70    5.62
  21  -3 -10    6.17    9.38
 -21  -3  -9   95.44    9.81
  21  -3  -9  110.94   17.63
  21  -3  -8   16.01   10.58
 -21  -3  -8    0.30    5.32
  21  -3  -7  283.89   23.69
 -21  -3  -7  246.99   13.47
  21  -3  -6    6.46    8.06
  21  -3  -5  129.85   16.05
  21  -3  -4   92.19   13.63
  21  -3  -3  201.38   18.14
  21  -3  -2   57.74   11.65
  21   3  -2   46.57    8.95
  21  -3  -1  211.92   18.27
  21   3  -1  215.18   15.48
  21  -3   0   38.03   10.62
  21   3   0   40.22    8.01
  21   3   1  248.23   14.91
  21  -3   1  226.90   19.08
  21   3   2   48.04    7.54
  21  -3   2   62.35   11.96
  21  -3   3  204.62   10.63
  21  -3   3  199.51   18.07
  21   3   3  213.49   13.07
  21  -3   4   93.71    7.17
  21   3   4   98.51    8.87
 -21  -3   4  107.23    9.76
  21  -3   4  118.27   14.55
  21  -3   5  140.93    7.84
  21   3   5  144.07    9.92
  21  -3   5  142.88   15.78
 -21  -3   5  146.87   11.64
  21   3   6   10.09    4.31
  21  -3   6    5.06    8.70
  21  -3   7  217.84   19.27
  21  -3   8    7.80    8.47
  21  -3   9   86.63   13.09
  21  -3  10   -1.30    7.77
  21  -3  11  223.50   18.70
  21  -4 -10   34.26   11.56
  21  -4  -9   66.67   14.60
  21  -4  -8   88.29   15.47
  21  -4  -7   -3.69    9.95
 -21  -4  -7    5.24    4.24
  21  -4  -6   -3.26    9.44
 -21  -4  -6    2.00    3.94
  21  -4  -5   61.12   12.72
  21  -4  -4  311.55   23.06
  21  -4  -3   47.43   11.13
  21  -4  -2  164.61   16.96
  21  -4  -1   31.33   10.05
  21   4  -1   35.71    7.41
  21  -4   0   78.03   13.10
  21   4   0   87.51    9.56
  21   4   1   32.21    6.36
  21  -4   1   33.89    6.02
  21  -4   1   34.11   10.34
  21  -4   2  142.05    9.62
  21  -4   2  158.04   16.92
  21   4   2  147.13   10.48
  21  -4   3   38.93    5.97
  21  -4   3   39.03   11.12
  21   4   3   25.93    5.37
 -21  -4   3   42.07    6.80
  21  -4   4  287.85   11.89
  21   4   4  317.14   12.04
  21  -4   4  303.92   22.42
 -21  -4   4  317.25   15.06
 -21  -4   5   83.14    9.01
  21  -4   5   64.60   12.52
 -21  -4   6    9.26    5.88
  21  -4   6   10.53    8.55
  21  -4   7    4.05    9.50
  21  -4   8   87.97   14.52
  21  -4   9   47.62   12.11
  21  -4  10   46.31   11.65
  21  -4  11  103.17   14.70
  21  -5  -9   -6.34   10.01
  21  -5  -8  163.96   19.69
  21  -5  -7  -16.42   10.74
  21  -5  -6  300.37   24.57
  21  -5  -5   16.45    9.82
  21  -5  -4  316.49   24.27
  21  -5  -3   75.63   14.23
  21  -5  -2  580.82   31.21
  21  -5  -1   -8.14   10.31
  21   5  -1   10.77    5.32
  21   5   0  214.30   12.98
  21  -5   0  208.86   19.90
  21   5   1    8.55    4.45
  21  -5   1    9.47    8.67
  21  -5   2  575.95   18.79
  21  -5   2  568.27   30.60
  21   5   2  542.05   16.50
  21  -5   3   82.31   13.82
  21  -5   4  294.60   22.93
  21  -5   5   11.40    9.99
  21  -5   6  259.73   22.35
  21  -5   7    0.14    8.84
  21  -5   8  143.30   17.29
  21  -5   9   -8.53   10.38
  21  -5  10  124.34   16.23
  21  -5  11   14.69   10.00
  21  -6  -8   16.72   10.81
  21  -6  -7   61.20   13.97
  21  -6  -6  112.94   16.85
  21  -6  -5   92.18   15.16
  21  -6  -4   57.41   12.78
  21  -6  -3   65.42   13.37
  21  -6  -2    2.12    9.67
  21  -6  -1  110.16   16.51
  21  -6   0  130.68   17.60
  21  -6   1   94.55   15.16
  21  -6   2   14.96    9.49
  21  -6   3   74.14   14.01
  21  -6   4   57.21   13.34
  21  -6   5   83.32   14.77
  21  -6   6  104.19   16.30
  21  -6   7   49.42   12.98
  21  -6   8   -1.55    9.64
  21  -6   9  127.11   16.68
  21  -7  -6   46.77   13.62
  21  -7  -5  200.99   21.42
  21  -7  -4  111.24   16.93
  21  -7  -3   49.81   14.01
  21  -7  -2   43.63   12.00
  21  -7  -1  215.35   21.19
  21  -7   0  140.48   18.56
  21  -7   1  187.87   20.43
  21  -7   2   38.36   12.36
  21  -7   3   54.91   13.17
  21  -7   4  101.02   15.77
  21  -7   5  159.75   18.99
  21  -7   6   65.16   14.31
  21  -8  -1    7.98    9.24
  21  -8   0   66.36   14.26
  21  -8   1   13.32   11.05
 -22   0 -15    6.78    8.46
 -22   0 -14   36.54   10.34
 -22   0 -13    2.60    8.33
 -22   0 -12  113.44   13.89
 -22   0 -11    1.92    7.77
 -22   0 -10  542.91   25.64
  22   0  -5   -4.77    8.94
  22   0  -4  235.14   19.05
  22   0  -3   11.98    8.27
  22   0  -2  245.28   18.76
  22   0  -1    8.36    7.37
  22   0   0 1002.22   34.25
  22   0   1    5.46    7.20
  22   0   2  281.37   18.64
  22   0   3    9.37    7.79
  22   0   4  226.41   16.73
  22   0   5    0.61    6.24
  22   0   6  705.07   28.20
  22   0   7   -2.05    7.02
  22   0   8  241.36   16.99
  22   0   9    4.40    6.34
  22   0  10  560.73   23.74
 -22   1 -14   35.48   11.22
 -22  -1 -14   28.61    8.97
 -22  -1 -13   63.30   10.89
 -22   1 -13   45.10   11.27
 -22  -1 -12   41.93    9.32
 -22   1 -12   54.04   11.90
 -22   1 -11   10.83    8.31
 -22  -1 -11   19.05    8.11
 -22  -1 -10   80.52   11.18
 -22  -1  -9   73.33   10.81
  22  -1  -7   70.85   13.92
  22  -1  -6   16.95    9.14
  22  -1  -5  167.23   17.80
  22  -1  -4  178.12   17.97
  22   1  -4  155.79   16.16
  22  -1  -3  249.47   19.75
  22   1  -3  256.21   19.28
  22  -1  -2    1.16    6.96
  22   1  -2   -3.94    7.76
  22  -1  -1  162.56   15.67
  22   1  -1  165.66   15.24
  22  -1   0  119.35   13.74
  22   1   0  128.58   13.54
  22   1   1  172.83   14.53
  22  -1   1  170.23   15.95
  22  -1   2    5.81    7.75
  22   1   2    2.25    6.54
  22  -1   3  244.30   18.71
  22   1   3  246.16   16.98
  22  -1   4  161.91   15.67
  22   1   4  173.74   13.89
  22   1   5  193.84   14.63
  22  -1   5  182.94   16.25
  22   1   6   28.85    7.66
  22  -1   6   30.32    9.13
  22   1   7  102.40   11.01
  22  -1   7   90.64   12.83
  22   1   8  111.64   11.22
  22  -1   8  108.55   13.56
  22   1   9   74.39    9.30
  22  -1   9   72.53   11.60
  22  -1  10   76.95   11.42
 -22   2 -13  146.83   16.82
 -22   2 -12   45.41   11.28
 -22  -2 -12   64.29   10.03
 -22   2 -11  104.17   14.61
 -22  -2 -11  110.33   11.82
 -22  -2 -10   15.37    6.94
 -22  -2  -9   80.80   10.36
  22  -2  -9   94.24   16.33
 -22  -2  -8   72.31    9.37
  22  -2  -8   62.10   13.38
  22  -2  -7  170.42   19.12
  22  -2  -6  120.45   16.18
  22  -2  -5  130.03   16.15
  22  -2  -4  181.16   18.10
  22  -2  -3  212.47   18.71
  22   2  -3  188.41   16.68
  22  -2  -2   13.04    8.16
  22   2  -2    6.71    7.50
  22  -2  -1  349.75   22.57
  22   2  -1  337.62   19.99
  22  -2   0  436.33   24.92
  22   2   0  435.89   21.72
  22   2   1  345.09   18.90
  22  -2   1  316.68   21.59
  22   2   2   17.16    6.92
  22  -2   2   15.20    8.87
  22  -2   3  208.34   17.93
  22   2   3  213.58   14.79
  22  -2   4  193.65   17.67
  22   2   4  177.82   13.09
  22   2   5  137.01   11.47
  22  -2   5  131.03   15.35
  22   2   6  112.90   10.34
  22  -2   6  107.37   14.10
  22   2   7  201.41   12.60
  22  -2   7  190.71   17.44
  22  -2   8   59.78   11.49
  22  -2   9   87.28   12.95
  22  -2  10   14.84    8.55
  22  -2  11  131.66   14.50
 -22   3 -12   65.30   13.55
  22  -3 -10  252.83   24.12
 -22  -3  -9   14.31    6.19
  22  -3  -9    0.38    9.30
  22  -3  -8  133.85   17.75
 -22  -3  -8  143.97   11.01
 -22  -3  -7   -0.22    5.45
  22  -3  -7   -5.32    8.58
  22  -3  -6  156.58   17.92
  22  -3  -5   43.36   11.91
  22  -3  -4  220.80   19.96
  22  -3  -3   69.70   12.31
  22  -3  -2  157.62   16.68
  22   3  -2  164.24   14.56
  22  -3  -1    7.23    8.42
  22   3  -1    7.85    6.32
  22  -3   0   72.98   12.87
  22   3   0  104.01   11.15
  22  -3   1   14.17    8.66
  22   3   1   14.70    6.17
  22  -3   2  144.24   16.09
  22   3   2  160.81   12.37
  22  -3   3   45.92    5.90
  22  -3   3   57.06   11.94
  22   3   3   57.72    8.02
  22  -3   4  209.19   10.37
 -22  -3   4  228.39   13.96
  22   3   4  230.70   13.02
  22  -3   4  201.08   18.35
  22   3   5   50.19    7.05
  22  -3   5   46.78   11.18
  22  -3   6  160.36   17.15
  22  -3   7   -7.53    9.10
  22  -3   8  138.86   16.27
  22  -3   9   12.32   10.11
  22  -3  10  261.12   20.80
  22  -3  11   11.19    8.67
  22  -4  -9   60.46   13.70
  22  -4  -8   48.01   13.19
  22  -4  -7   50.22   13.56
  22  -4  -6   19.56   10.45
  22  -4  -5   44.76   11.60
  22  -4  -4   49.01   11.86
  22  -4  -3  173.54   18.34
  22  -4  -2   25.62   10.67
  22   4  -2   22.08    7.39
  22  -4  -1   45.80   11.65
  22   4  -1   47.67    8.27
  22  -4   0   64.91   12.33
  22   4   0   57.25    8.12
  22   4   1   58.11    7.85
  22  -4   1   60.57   12.51
  22   4   2   22.62    5.46
  22  -4   2   28.90    5.88
 -22  -4   2   17.83    5.32
  22  -4   2   23.65    9.80
  22  -4   3  164.57    9.97
 -22  -4   3  169.70   11.39
  22  -4   3  146.11   16.44
  22   4   3  172.82   10.74
 -22  -4   4   36.64    6.79
  22  -4   4   51.39   11.26
  22  -4   5   52.50   11.40
  22  -4   6   23.40    9.60
  22  -4   7   67.32   13.39
  22  -4   8   74.43   13.84
  22  -4   9   59.07   13.09
  22  -4  10   58.36   12.62
  22  -4  11   54.50   11.71
  22  -4  12   44.24   11.28
  22  -5  -8   27.57   11.99
  22  -5  -7  202.50   21.47
  22  -5  -6   10.70    9.95
  22  -5  -5  267.64   23.34
  22  -5  -4   17.62   10.70
  22  -5  -3  434.57   28.14
  22  -5  -2    4.06   10.12
  22   5  -1  303.00   16.68
  22  -5  -1  284.79   23.23
  22   5   0    1.89    4.25
  22  -5   0    0.93    8.59
  22   5   1  312.54   14.28
  22  -5   1  295.43   23.27
  22  -5   2   -3.19    9.44
  22  -5   3  430.94   27.65
  22  -5   4   -1.42    8.88
  22  -5   5  254.18   22.33
  22  -5   6    2.33    9.47
  22  -5   7  189.31   19.62
  22  -5   8   21.62   11.32
  22  -5   9   86.18   14.63
  22  -5  10   -1.43    8.55
  22  -5  11   83.80   14.25
  22  -6  -7   15.00   11.25
  22  -6  -6  100.65   15.99
  22  -6  -5   77.19   15.13
  22  -6  -4   70.27   13.83
  22  -6  -3   12.15    9.92
  22  -6  -2  105.38   15.89
  22  -6  -1  104.68   15.80
  22  -6   0   65.77   13.15
  22  -6   1   92.33   14.63
  22  -6   2  116.15   16.29
  22  -6   3   39.17   12.57
  22  -6   4   69.11   14.16
  22  -6   5   70.27   14.03
  22  -6   6   90.19   15.82
  22  -6   7   11.40    8.99
  22  -6   8   49.64   13.20
  22  -7  -4   58.09   14.53
  22  -7  -3   64.66   13.19
  22  -7  -2  121.81   17.27
  22  -7  -1   69.42   14.47
  22  -7   0  104.49   16.78
  22  -7   1  102.55   16.17
  22  -7   2  122.23   17.80
  22  -7   3   60.89   13.62
  22  -7   4   84.17   15.17
  22  -7   5   54.44   13.29
 -23   0 -14   16.43    8.85
 -23   0 -13   81.43   12.54
 -23   0 -12   -3.74    7.61
 -23   0 -11  157.43   15.07
 -23   0 -10    5.11    7.76
  23   0  -6    8.77    9.38
  23   0  -5  382.83   25.35
  23   0  -4   -6.83    8.83
  23   0  -3  300.16   21.63
  23   0  -2    7.17    8.31
  23   0  -1  554.96   27.37
  23   0   0   26.70    9.03
  23   0   1  570.09   27.03
  23   0   2    8.70    7.76
  23   0   3  317.23   20.33
  23   0   4    1.40    7.27
  23   0   5  439.91   22.93
  23   0   6   -2.96    7.49
  23   0   7  388.28   21.60
  23   0   8   -6.01    6.93
  23   0   9  446.56   21.70
  23   0  10    5.85    6.68
 -23   1 -14   33.29   10.81
 -23  -1 -13   41.83    9.79
 -23   1 -13   44.35   11.16
 -23  -1 -12   93.40   11.75
 -23   1 -12   80.33   13.08
 -23   1 -11   50.99   11.55
 -23  -1 -11   59.27   10.31
 -23  -1 -10   30.14    8.87
 -23  -1  -9  136.83   13.14
  23  -1  -8   35.23   12.03
  23  -1  -7   64.96   13.34
  23  -1  -6  128.59   17.21
  23  -1  -5   58.29   12.40
  23   1  -5   36.21   10.62
  23  -1  -4   59.46   12.54
  23   1  -4   63.04   11.97
  23  -1  -3  130.37   15.47
  23   1  -3  104.45   13.73
  23  -1  -2  256.33   20.26
  23   1  -2  280.93   20.08
  23  -1  -1   21.31    8.49
  23   1  -1   29.58    8.86
  23  -1   0  194.99   17.30
  23   1   0  167.30   15.07
  23  -1   1   16.27    8.54
  23   1   1   17.65    7.48
  23  -1   2  296.04   20.76
  23   1   2  246.51   17.45
  23  -1   3  105.84   13.92
  23   1   3  125.17   13.07
  23  -1   4   72.88   12.11
  23   1   4   69.47   10.39
  23   1   5   50.14    8.99
  23  -1   5   34.84    9.69
  23   1   6  146.14   13.12
  23  -1   6  141.06   14.85
  23   1   7   68.57    9.68
  23  -1   7   67.82   12.10
  23   1   8   38.16    7.66
  23  -1   8   40.51   10.08
  23  -1   9  139.65   14.40
  23  -1  10   38.11    9.02
 -23   2 -12   90.59   13.46
 -23   2 -11   58.79   12.59
  23  -2 -10   73.65   15.32
 -23  -2 -10   85.55   10.78
  23  -2  -9   32.89   11.60
 -23  -2  -9   27.67    7.62
 -23  -2  -8  121.04   11.71
  23  -2  -8   92.69   16.22
  23  -2  -7   41.97   12.37
  23  -2  -6  142.13   17.68
  23  -2  -5   40.64   11.03
  23  -2  -4  202.85   19.39
  23   2  -4  183.10   17.45
  23  -2  -3  189.46   18.53
  23   2  -3  186.88   17.11
  23  -2  -2  165.74   16.96
  23   2  -2  138.78   14.74
  23  -2  -1  129.15   15.43
  23   2  -1  118.50   12.92
  23   2   0  210.66   15.87
  23  -2   0  209.79   18.43
  23   2   1  132.62   12.94
  23  -2   1   92.14   13.76
  23  -2   2  150.26   16.04
  23   2   2  146.63   13.23
  23  -2   3  167.29   16.70
  23   2   3  190.32   14.23
  23  -2   4  199.09   18.11
  23   2   4  222.12   14.67
  23   2   5   57.17    8.39
  23  -2   5   50.90   11.91
  23   2   6  141.91   11.49
  23  -2   6  132.64   15.50
  23  -2   7   41.85   10.52
  23  -2   8  122.71   15.00
  23  -2   9   37.90    9.87
  23  -2  10   85.80   12.48
  23  -2  11   44.09    9.95
  23  -3  -9  216.50   22.66
  23  -3  -8   13.00    9.58
  23  -3  -7  154.39   18.95
 -23  -3  -7  142.98   10.98
  23  -3  -6   -4.21    9.19
  23  -3  -5  172.36   18.83
  23  -3  -4   20.68   10.32
  23  -3  -3  164.85   17.97
  23   3  -3  168.36   15.43
  23  -3  -2   28.98   10.12
  23   3  -2   25.55    7.78
  23  -3  -1  139.62   16.81
  23   3  -1  121.57   12.68
  23  -3   0    0.26    7.97
  23   3   0    5.09    5.79
  23   3   1  156.28   12.84
  23  -3   1  127.23   15.73
  23   3   2   17.88    6.30
  23  -3   2   29.53   10.55
  23  -3   3  157.81   17.43
  23   3   3  183.75   12.71
  23   3   4   20.96    6.23
  23  -3   4   19.58    9.56
  23  -3   5  189.02   18.29
  23  -3   6   -1.02    8.12
  23  -3   7  123.47   15.57
  23  -3   8   18.36    9.81
  23  -3   9  229.43   19.76
  23  -3  10    7.52    9.08
  23  -3  11  106.67   14.30
  23  -4  -8   84.00   15.68
  23  -4  -7   69.05   15.20
  23  -4  -6   84.97   15.26
  23  -4  -5   52.92   12.55
  23  -4  -4   59.40   13.18
  23  -4  -3   65.12   13.60
  23  -4  -2   89.77   14.70
  23   4  -2   93.20   11.25
  23  -4  -1   32.90   11.54
  23   4  -1   35.41    7.73
  23  -4   0   38.22   10.77
  23   4   0   55.41    8.34
  23   4   1   25.99    6.25
  23  -4   1   31.32   10.88
  23  -4   2   99.93   14.85
  23   4   2   89.81    8.82
  23  -4   3   53.80   12.47
  23  -4   4   57.58   12.30
  23  -4   5   23.32   10.10
  23  -4   6   91.02   14.78
  23  -4   7   65.23   12.98
  23  -4   8  118.84   16.15
  23  -4   9   82.58   13.79
  23  -4  10   45.32   11.84
  23  -4  11   15.26    9.37
  23  -4  12   56.08   12.32
  23  -5  -7    8.42   10.05
  23  -5  -6  182.76   20.06
  23  -5  -5   -5.38    9.80
  23  -5  -4  316.71   24.92
  23  -5  -3   -7.83   10.24
  23   5  -2  304.02   17.81
  23  -5  -2  300.71   24.61
  23  -5  -1    0.98    9.64
  23   5  -1    2.99    5.26
  23  -5   0  275.91   23.40
  23  -5   1   -4.55    9.50
  23  -5   2  278.26   23.11
  23  -5   3    0.61    9.34
  23  -5   4  305.18   24.13
  23  -5   5    1.86    9.50
  23  -5   6  157.30   18.44
  23  -5   7   -5.12   10.12
  23  -5   8   88.24   14.90
  23  -5   9    6.78    9.04
  23  -5  10   79.85   14.71
  23  -6  -5   73.31   14.11
  23  -6  -4    9.64   10.72
  23  -6  -3  137.08   18.17
  23  -6  -2   75.71   15.75
  23  -6  -1   80.96   14.64
  23  -6   0   90.24   15.38
  23  -6   1   66.63   13.88
  23  -6   2   80.06   15.11
  23  -6   3  129.64   17.61
  23  -6   4   24.19   11.74
  23  -6   5   63.21   13.48
  23  -6   6   25.16   11.53
  23  -6   7   52.65   13.22
 -24   0 -13    5.17    8.15
 -24   0 -12  165.96   15.85
 -24   0 -11   -6.32    8.42
 -24   0 -10  227.79   17.46
  24   0  -7    3.69    9.03
  24   0  -6  346.81   25.37
  24   0  -5    2.06    8.19
  24   0  -4  255.07   21.01
  24   0  -3    0.64    7.60
  24   0  -2  646.68   30.60
  24   0  -1   21.50    9.19
  24   0   0   98.25   13.21
  24   0   1    8.64    7.97
  24   0   2  682.84   29.71
  24   0   3    3.19    7.72
  24   0   4  262.03   18.43
  24   0   5   -1.70    7.21
  24   0   6  341.58   20.59
  24   0   7    5.94    7.35
  24   0   8  332.94   19.36
  24   0   9    0.82    6.39
 -24   1 -13   21.06    9.76
 -24  -1 -12   35.34    9.41
 -24   1 -12   36.64   10.27
 -24  -1 -11  148.07   14.21
 -24   1 -11  119.05   14.53
 -24  -1 -10   45.12    9.25
 -24  -1  -9   27.34    8.48
  24  -1  -8  153.96   18.99
  24  -1  -7   50.19   12.93
  24  -1  -6   58.53   13.11
  24  -1  -5   43.95   12.14
  24   1  -5   38.24   10.21
  24  -1  -4   41.33   10.77
  24   1  -4   45.02   11.27
  24  -1  -3   67.62   12.47
  24   1  -3   91.76   13.39
  24  -1  -2   50.92   11.74
  24   1  -2   51.57   10.96
  24  -1  -1  157.84   16.72
  24   1  -1  160.61   15.69
  24   1   0  101.38   12.70
  24  -1   0   89.67   12.97
  24  -1   1  153.97   16.36
  24   1   1  164.74   15.23
  24   1   2   49.33    9.78
  24  -1   2   52.15   11.33
  24  -1   3   86.76   13.07
  24   1   3   88.04   11.32
  24  -1   4   59.42   11.72
  24   1   4   54.41    9.46
  24   1   5   55.35    9.47
  24  -1   5   62.09   11.29
  24   1   6   55.68    9.52
  24  -1   6   59.05   10.99
  24   1   7   65.30    9.37
  24  -1   7   71.93   11.91
  24  -1   8  154.06   15.28
  24  -1   9   40.73    9.72
  24  -1  10   53.75    9.70
 -24   2 -12   51.49   11.76
 -24   2 -11   36.84   10.90
  24  -2  -9   71.18   14.64
 -24  -2  -9   77.77    9.96
 -24  -2  -8   21.81    7.19
  24  -2  -8   10.51    9.32
  24  -2  -7  120.86   17.21
  24  -2  -6   49.01   12.88
  24  -2  -5  177.62   19.25
  24  -2  -4   46.66   11.94
  24   2  -4   29.58    9.63
  24  -2  -3  219.42   20.15
  24   2  -3  157.36   16.34
  24  -2  -2  171.84   17.94
  24   2  -2  161.71   15.75
  24  -2  -1  133.13   15.96
  24   2  -1  133.47   13.95
  24  -2   0   88.30   13.61
  24   2   0  107.76   12.65
  24   2   1  142.24   13.36
  24  -2   1  126.21   15.74
  24  -2   2  173.21   17.57
  24   2   2  181.62   14.72
  24  -2   3  228.86   19.64
  24   2   3  256.36   16.71
  24  -2   4   31.75   10.04
  24   2   4   45.58    8.17
  24   2   5  177.97   13.09
  24  -2   5  164.73   16.92
  24  -2   6   41.19   10.76
  24  -2   7  137.93   15.79
  24  -2   8   33.00    9.93
  24  -2   9   75.01   11.86
  24  -2  10   37.47    9.62
  24  -2  11   52.06   10.95
  24  -3  -8  208.82   22.44
  24  -3  -7   22.34   11.33
  24  -3  -6  181.99   20.23
  24  -3  -5   16.26   10.12
  24  -3  -4  181.53   19.42
  24  -3  -3   30.60   10.45
  24   3  -3    7.75    7.17
  24  -3  -2  256.35   21.96
  24   3  -2  213.11   17.11
  24  -3  -1    5.09    8.85
  24   3  -1    7.69    5.75
  24   3   0  157.28   13.39
  24  -3   0  147.72   17.14
  24   3   1   16.41    6.21
  24  -3   1   21.52   10.44
  24  -3   2  228.35   20.62
  24   3   2  237.65   14.99
  24  -3   3   31.44   10.41
  24   3   3   18.96    6.09
  24  -3   4  170.15   18.27
  24  -3   5    5.75    8.78
  24  -3   6  173.90   18.21
  24  -3   7   17.26    9.93
  24  -3   8  201.14   18.89
  24  -3   9    1.82    7.67
  24  -3  10   95.65   14.27
  24  -3  11   11.22    8.52
  24  -4  -7   82.10   15.44
  24  -4  -6   52.20   12.88
  24  -4  -5  125.45   17.09
  24  -4  -4  117.39   17.13
  24  -4  -3   52.93   12.63
  24   4  -3   28.09    8.06
  24  -4  -2   22.62   10.10
  24   4  -2   19.36    7.51
  24  -4  -1   99.91   15.07
  24   4  -1   91.89   10.77
  24  -4   0   31.59   11.47
  24   4   0   16.64    5.99
  24   4   1   88.86    9.27
  24  -4   1   86.93   14.87
  24  -4   2   36.28   10.99
  24  -4   3   27.82   10.72
  24  -4   4  120.53   16.60
  24  -4   5  142.85   17.30
  24  -4   6   54.31   12.50
  24  -4   7   56.65   12.89
  24  -4   8   77.93   13.78
  24  -4   9   49.84   12.03
  24  -4  10   22.99   10.35
  24  -4  11   29.84   10.48
  24  -5  -6    8.89   10.28
  24  -5  -5  126.28   17.66
  24  -5  -4   -0.70    8.53
  24  -5  -3  251.12   22.98
  24  -5  -2   -5.94    9.64
  24   5  -2   -0.37    5.19
  24  -5  -1  209.94   20.97
  24  -5   0    4.20   10.77
  24  -5   1  227.21   21.57
  24  -5   2    8.54   10.46
  24  -5   3  267.61   22.99
  24  -5   4   11.96    9.73
  24  -5   5  135.26   17.84
  24  -5   6   11.99    9.85
  24  -5   7  168.87   18.89
  24  -5   8    6.17   10.08
  24  -6  -3   54.29   14.25
  24  -6  -2   64.22   13.35
  24  -6  -1   38.01   12.42
  24  -6   0   54.69   13.89
  24  -6   1   53.67   13.57
  24  -6   2   63.18   13.91
  24  -6   3   83.57   15.26
  24  -6   4   80.65   14.51
  24  -6   5    4.57    9.73
 -25   0 -12  -11.37    7.76
 -25   0 -11  237.07   18.04
 -25   0 -10  -11.92    9.22
  25   0  -8   -1.34    9.47
  25   0  -7  204.36   20.85
  25   0  -6    3.17    8.40
  25   0  -5  216.54   20.74
  25   0  -4    3.54    7.70
  25   0  -3  335.92   23.36
  25   0  -2   -0.13    7.31
  25   0  -1  231.51   19.57
  25   0   0   19.37    9.39
  25   0   1  244.38   19.29
  25   0   2    0.09    7.78
  25   0   3  345.06   22.15
  25   0   4   -6.61    7.16
  25   0   5  229.48   17.69
  25   0   6   -2.83    6.63
  25   0   7  187.57   15.86
  25   0   8    6.83    6.71
 -25   1 -12   37.83   10.24
 -25   1 -11   38.95    9.89
 -25  -1 -10  104.03   11.94
 -25  -1  -9   42.79    9.06
  25  -1  -9   12.24   10.01
  25  -1  -8   36.33   11.35
  25  -1  -7  118.32   16.95
  25  -1  -6   61.76   13.95
  25   1  -6   40.55   11.33
  25  -1  -5   74.80   13.48
  25   1  -5   66.08   12.84
  25  -1  -4   22.55   10.27
  25   1  -4   28.15    9.97
  25  -1  -3   34.32   10.37
  25   1  -3   23.46    9.36
  25  -1  -2  106.09   14.30
  25   1  -2  108.70   13.89
  25  -1  -1   87.87   13.23
  25   1  -1   85.02   12.26
  25  -1   0   59.71   11.37
  25   1   0   79.88   12.21
  25  -1   1   82.15   13.44
  25   1   1   79.79   11.80
  25   1   2  113.48   13.41
  25  -1   2   97.03   13.89
  25  -1   3   30.77    9.82
  25   1   3   26.89    7.86
  25  -1   4   42.59   10.64
  25   1   4   33.47    8.66
  25   1   5   76.33   10.67
  25  -1   5   50.46   10.47
  25   1   6   54.70    9.36
  25  -1   6   57.86   11.44
  25  -1   7  118.18   14.25
  25  -1   8   45.33   10.26
  25  -1   9   37.42    9.16
  25  -2  -8  101.14   16.92
 -25  -2  -8  102.68   10.88
  25  -2  -7   17.62   10.46
  25  -2  -6  141.13   18.35
  25  -2  -5   29.99   10.92
  25   2  -5   44.57   11.09
  25  -2  -4  159.83   18.56
  25   2  -4  162.83   17.04
  25  -2  -3   56.48   12.43
  25   2  -3   56.91   11.52
  25  -2  -2  208.73   19.70
  25   2  -2  209.39   17.41
  25  -2  -1  102.41   15.05
  25   2  -1  106.41   12.94
  25  -2   0  115.22   15.40
  25   2   0  119.24   13.06
  25  -2   1   96.27   14.67
  25   2   1   96.03   11.95
  25  -2   2  221.05   19.42
  25   2   2  217.84   15.95
  25  -2   3   65.39   11.99
  25   2   3   48.86    9.14
  25   2   4  163.60   13.10
  25  -2   4  148.87   16.18
  25  -2   5   43.38   10.66
  25  -2   6  102.96   14.22
  25  -2   7   28.46    9.59
  25  -2   8  111.87   14.21
  25  -2   9   17.84    9.03
  25  -2  10   33.09    9.52
  25  -2  11   71.80   12.50
  25  -3  -7  164.32   19.91
  25  -3  -6   29.21   11.45
  25  -3  -5  218.12   21.61
  25  -3  -4   19.77   10.88
  25   3  -4   17.93    8.47
  25  -3  -3  167.97   19.02
  25   3  -3  153.79   15.49
  25  -3  -2   25.43   10.25
  25   3  -2   25.50    8.15
  25   3  -1  242.29   17.15
  25  -3  -1  235.75   21.29
  25  -3   0    3.59    9.34
  25   3   0    9.37    6.07
  25   3   1  254.97   16.49
  25  -3   1  255.94   21.90
  25   3   2   19.41    6.88
  25  -3   2   25.82   10.33
  25  -3   3  169.87   18.17
  25  -3   4   38.66   11.49
  25  -3   5  235.69   20.58
  25  -3   6   16.07    9.64
  25  -3   7  159.45   17.31
  25  -3   8   13.82    9.24
  25  -3   9   93.89   14.26
  25  -3  10    1.87    8.11
  25  -3  11   58.63   12.14
  25  -4  -6   85.54   14.92
  25  -4  -5   36.07   11.66
  25  -4  -4   96.48   15.80
  25  -4  -3   73.66   14.16
  25   4  -3   73.92   11.04
  25  -4  -2   73.85   13.56
  25   4  -2   86.93   11.34
  25  -4  -1   17.14   10.44
  25   4  -1   24.98    7.63
  25  -4   0   54.03   13.01
  25  -4   1   35.27   11.69
  25  -4   2   81.65   14.68
  25  -4   3   73.46   13.51
  25  -4   4  117.59   16.00
  25  -4   5   51.19   12.81
  25  -4   6   81.61   14.07
  25  -4   7   66.44   13.22
  25  -4   8   69.59   13.63
  25  -4   9   30.46   11.28
  25  -4  10   50.06   11.37
  25  -5  -4  195.31   21.04
  25  -5  -3    7.80    9.29
  25  -5  -2  143.98   18.37
  25  -5  -1  -12.94   10.60
  25  -5   0  181.45   20.29
  25  -5   1    3.14   10.07
  25  -5   2  159.75   18.55
  25  -5   3    3.55    8.52
  25  -5   4  165.97   18.86
  25  -5   5    8.12    9.37
  25  -5   6  146.03   17.73
  25  -5   7  -13.59   10.71
 -26   0 -11   -0.58    7.86
 -26   0 -10  169.37   15.65
  26   0  -8  202.58   21.52
  26   0  -7    8.15    8.98
  26   0  -6  148.15   17.90
  26   0  -5   -1.78    8.86
  26   0  -4  247.88   21.36
  26   0  -3    7.10    8.67
  26   0  -2   51.04   11.02
  26   0  -1    4.52    8.00
  26   0   0  766.39   33.36
  26   0   1   -3.80    7.81
  26   0   2   44.85   10.22
  26   0   3   10.92    7.93
  26   0   4  257.11   18.53
  26   0   5    5.74    7.12
  26   0   6  150.62   14.71
  26   0   7   -7.21    7.71
 -26   1 -11   30.80    9.71
 -26  -1  -9   81.61   10.82
  26  -1  -8   27.25   10.64
  26  -1  -7   52.70   13.27
  26   1  -7   69.18   13.77
  26  -1  -6   89.50   15.36
  26   1  -6   68.63   13.40
  26  -1  -5   24.31   10.24
  26   1  -5   26.76    9.52
  26  -1  -4   51.55   11.87
  26   1  -4   35.55   10.77
  26  -1  -3   83.63   13.98
  26   1  -3   89.19   13.18
  26  -1  -2  102.92   14.84
  26   1  -2   93.00   13.35
  26  -1  -1   83.20   13.23
  26   1  -1   60.43   10.68
  26  -1   0    1.45    7.71
  26   1   0   14.87    8.30
  26  -1   1   65.41   12.28
  26   1   1   68.86   11.30
  26  -1   2   84.54   13.10
  26   1   2   90.24   12.28
  26  -1   3   89.07   13.38
  26   1   3   88.93   11.91
  26   1   4   43.56    8.86
  26  -1   4   48.19   10.70
  26   1   5   48.18    8.99
  26  -1   5   34.05    9.49
  26  -1   6   97.43   13.08
  26  -1   7   58.71   10.66
  26  -1   8   16.92    8.30
  26  -2  -7  182.38   20.78
  26  -2  -6   40.35   12.02
  26   2  -6   34.51   11.02
  26  -2  -5  112.40   16.46
  26   2  -5  115.26   15.06
  26  -2  -4   49.85   12.45
  26   2  -4   41.27   10.13
  26  -2  -3  124.34   16.57
  26   2  -3  106.82   13.86
  26  -2  -2   78.22   13.98
  26   2  -2   65.16   10.99
  26  -2  -1  207.59   19.81
  26   2  -1  191.63   16.45
  26  -2   0   80.45   13.81
  26   2   0   85.66   11.88
  26  -2   1  178.94   18.14
  26   2   1  192.89   15.70
  26   2   2   63.95    9.84
  26  -2   2   60.05   12.40
  26   2   3  140.04   12.74
  26  -2   3  128.40   15.68
  26  -2   4   32.77   10.56
  26  -2   5  149.40   17.13
  26  -2   6   33.79   10.70
  26  -2   7  141.12   15.55
  26  -2   8   18.52    9.13
  26  -2   9   60.58   11.44
  26  -2  10   40.02    9.88
  26  -3  -6  148.06   18.54
  26  -3  -5   24.54   11.19
  26   3  -5   25.89    9.37
  26  -3  -4  253.98   22.84
  26   3  -4  256.09   19.72
  26  -3  -3   28.75   11.02
  26   3  -3   20.83    8.66
  26  -3  -2  140.11   17.51
  26   3  -2  107.85   12.91
  26  -3  -1    3.50    9.09
  26   3  -1    3.38    6.18
  26   3   0  231.97   16.29
  26  -3   0  205.19   20.26
  26   3   1   -9.10    7.16
  26  -3   1   10.06    8.67
  26  -3   2  117.24   15.80
  26  -3   3   39.87   11.29
  26  -3   4  227.71   20.39
  26  -3   5   26.46   10.61
  26  -3   6  158.04   17.45
  26  -3   7   19.69    9.89
  26  -3   8  127.89   15.90
  26  -3   9   -4.03    8.52
  26  -3  10   79.18   13.36
  26  -4  -4   27.17   11.69
  26   4  -4   -4.27    7.20
  26  -4  -3   95.91   15.53
  26   4  -3  111.03   12.95
  26  -4  -2   71.49   14.58
  26   4  -2   64.59   10.14
  26  -4  -1   51.03   12.93
  26  -4   0   43.37   12.81
  26  -4   1   78.16   13.71
  26  -4   2   86.26   14.90
  26  -4   3  136.12   17.27
  26  -4   4   32.96   10.69
  26  -4   5   41.20   11.27
  26  -4   6   73.20   14.08
  26  -4   7  100.53   15.51
  26  -4   8   40.97   12.00
  26  -5  -1  147.25   18.55
  26  -5   0    5.09    9.94
  26  -5   1  148.35   17.94
  26  -5   2   16.18   11.48
  26  -5   3  220.88   21.08
  26  -5   4    4.37    8.62
 -27   0 -10   -4.98    8.30
  27   0  -7  108.61   16.57
  27   0  -6   -3.75    9.36
  27   0  -5  234.57   21.39
  27   0  -4    6.34    8.27
  27   0  -3  123.85   15.43
  27   0  -2   -5.32    8.19
  27   0  -1  243.76   19.79
  27   0   0   26.73    9.43
  27   0   1  227.36   18.95
  27   0   2    3.70    7.26
  27   0   3  104.39   13.11
  27   0   4    5.53    7.24
  27   0   5  230.07   17.65
  27   0   6  -12.06    8.04
  27   1  -8   68.83   13.75
  27  -1  -7   47.62   12.69
  27   1  -7   22.60   10.67
  27  -1  -6   38.61   12.06
  27   1  -6   46.01   12.38
  27  -1  -5   53.62   12.71
  27   1  -5   48.17   11.84
  27  -1  -4   88.55   14.62
  27   1  -4   79.17   13.50
  27  -1  -3   23.37    9.59
  27   1  -3   37.26   10.72
  27  -1  -2   30.74   10.10
  27   1  -2   19.31    8.69
  27  -1  -1   28.06   10.42
  27   1  -1   21.66    8.53
  27   1   0  224.94   18.46
  27  -1   0  196.70   18.67
  27  -1   1   35.26   10.80
  27   1   1   30.57    9.21
  27  -1   2   33.58    9.73
  27   1   2   14.78    7.69
  27  -1   3   46.82   10.77
  27   1   3   39.93    9.45
  27   1   4  104.54   12.04
  27  -1   4  113.40   14.01
  27  -1   5   50.15   10.71
  27  -1   6   47.73   10.07
  27  -1   7   39.08    9.14
  27   2  -7   25.82    9.92
  27  -2  -6  164.06   19.08
  27   2  -6  130.77   16.49
  27  -2  -5   38.80   12.38
  27   2  -5   47.47   11.68
  27  -2  -4  130.51   16.93
  27   2  -4   95.23   13.70
  27  -2  -3   43.83   11.91
  27   2  -3   26.42    9.00
  27  -2  -2  138.46   17.07
  27   2  -2  141.62   14.98
  27  -2  -1   64.86   13.32
  27   2  -1   69.80   11.07
  27   2   0  111.17   12.86
  27  -2   0  102.51   15.42
  27   2   1   46.27    9.25
  27  -2   1   61.40   12.57
  27  -2   2  144.23   16.90
  27   2   2  149.49   14.05
  27  -2   3   30.22    9.99
  27  -2   4   95.90   14.09
  27  -2   5   46.40   11.02
  27  -2   6  120.31   14.89
  27  -2   7    7.22    7.95
  27  -2   8   98.38   14.06
  27  -2   9   50.27   10.91
  27   3  -6   38.22   11.06
  27   3  -5  106.82   14.23
  27  -3  -4   33.62   11.96
  27   3  -4   33.21    9.78
  27  -3  -3  157.36   18.26
  27   3  -3  178.92   16.55
  27  -3  -2   32.77   11.46
  27   3  -2   29.00    8.90
  27  -3  -1  109.97   15.84
  27   3  -1  108.35   12.32
  27  -3   0   -2.00    9.38
  27  -3   1   95.48   15.27
  27  -3   2   13.37    9.20
  27  -3   3  199.88   19.54
  27  -3   4   32.08   11.36
  27  -3   5   96.96   14.58
  27  -3   6   45.12   11.75
  27  -3   7  105.72   14.90
  27  -3   8    9.54    9.35
  27  -3   9   88.25   14.04
  27   4  -5   56.07   11.83
  27   4  -4   62.22   11.20
  27  -4  -2  100.05   16.10
  27  -4  -1   66.39   14.59
  27  -4   0   37.01   12.05
  27  -4   1   67.17   14.02
  27  -4   2   93.99   14.78
  27  -4   3   31.15   10.39
  27  -4   4   60.87   13.20
  27  -4   5   52.63   12.55
  27  -4   6   61.57   12.91
  28   0  -6  105.42   15.90
  28   0  -5   -7.11    9.35
  28   0  -4  203.98   19.92
  28   0  -3   -0.31    8.19
  28   0  -2  166.24   17.23
  28   0  -1    8.05    8.44
  28   0   0  173.26   17.01
  28   0   1    3.50    7.07
  28   0   2  159.76   15.96
  28   0   3    3.38    7.12
  28   0   4  188.59   16.58
  28   1  -7   49.88   12.49
  28   1  -6   38.42   10.55
  28  -1  -5   85.22   14.59
  28   1  -5  104.01   15.31
  28  -1  -4   21.77   10.06
  28   1  -4   14.19    8.52
  28  -1  -3   30.66   10.78
  28   1  -3   28.99    8.84
  28  -1  -2   34.04   10.66
  28   1  -2   52.21   10.78
  28  -1  -1  100.51   14.32
  28   1  -1  100.59   13.47
  28  -1   0   60.31   12.11
  28   1   0   42.89   10.18
  28   1   1   81.91   12.45
  28  -1   1   94.00   13.85
  28  -1   2   54.58   11.01
  28   1   2   40.50    9.56
  28  -1   3   18.99    8.30
  28   1   3    9.78    6.81
  28  -1   4   12.54    7.80
  28  -1   5   88.20   12.86
  28  -1   6   37.51    9.88
  28   2  -7   80.46   14.48
  28   2  -6   42.43   11.41
  28   2  -5  127.85   15.87
  28  -2  -4   26.23   10.58
  28   2  -4   10.23    7.53
  28  -2  -3  159.21   18.65
  28   2  -3  139.19   15.36
  28  -2  -2   21.31   10.12
  28   2  -2   25.42    9.00
  28  -2  -1   71.89   13.69
  28   2  -1   83.64   11.97
  28  -2   0   47.47   11.43
  28   2   0   53.64   10.08
  28  -2   1   69.94   13.26
  28  -2   2   11.55    8.92
  28  -2   3  130.49   15.99
  28  -2   4   15.21    9.55
  28  -2   5  115.00   14.93
  28  -2   6   25.59   10.25
  28  -2   7  101.05   14.67
  28  -2   8   41.71   10.21
  28   3  -7   -6.47    8.91
  28   3  -6   68.63   13.27
  28   3  -5   21.43    9.07
  28   3  -4   86.82   12.91
  28   3  -3    9.51    7.00
  28  -3  -2  171.49   18.83
  28  -3  -1    7.21    8.91
  28  -3   0   57.71   12.79
  28  -3   1   17.75    9.89
  28  -3   2  186.39   19.73
  28  -3   3   25.32   10.04
  28  -3   4  106.78   15.00
  28  -3   5   32.75   10.82
  28  -3   6   65.91   12.89
  28  -3   7   -0.19    8.46
  28  -3   8   88.99   14.19
  29   0  -5  104.57   15.45
  29   0  -4    9.92    8.81
  29   0  -3  122.50   16.04
  29   0  -2   15.44   10.30
  29   0  -1  167.18   17.10
  29   0   0    8.06    8.99
  29   0   1  166.81   17.11
  29   0   2   12.41    8.24
  29   0   3  107.66   13.62
  29   1  -6   51.94   13.16
  29   1  -5   13.51    8.95
  29  -1  -4   45.44   12.24
  29   1  -4   42.65   11.42
  29  -1  -3   59.84   11.99
  29   1  -3   54.08   11.74
  29  -1  -2   47.18   11.62
  29   1  -2   50.17   10.97
  29  -1  -1   45.68   11.42
  29   1  -1   50.31   11.31
  29  -1   0   30.44   10.57
  29   1   0   30.84    9.55
  29   1   1   41.76    9.62
  29  -1   1   58.45   11.78
  29  -1   2   30.55    9.95
  29  -1   3   66.68   12.62
  29  -1   4   31.38    9.55
  29  -1   5   19.83    9.05
  29   2  -6   84.26   13.97
  29   2  -5   11.17    8.59
  29   2  -4  139.16   15.68
  29   2  -3    8.89    7.69
  29  -2  -2  105.45   15.82
  29   2  -2   93.43   13.11
  29  -2  -1    2.59    9.16
  29  -2   0   83.25   13.73
  29  -2   1   16.00    9.58
  29  -2   2  117.03   15.49
  29  -2   3    2.65    8.14
  29  -2   4  174.06   17.95
  29  -2   5    0.51    8.43
  29  -2   6  107.93   14.82
  29   3  -6   10.88    8.46
  29   3  -5   70.28   12.52
  29  -3   1  153.67   17.51
  29  -3   2   19.19   10.15
  29  -3   3  149.31   17.52
  29  -3   4   24.60   10.24
  29  -3   5   71.65   13.17
  30   0  -3   15.13    9.37
  30   0  -2  171.98   17.78
  30   0  -1   -1.58    7.99
  30   0   0  105.70   14.11
  30   0   1    7.25    8.48
  30   0   2  183.86   17.06
  30   1  -4   72.57   13.02
  30   1  -3   46.09   10.89
  30  -1  -2   42.35   11.69
  30   1  -2   32.15   10.02
  30  -1  -1   21.92    9.76
  30   1  -1    9.16    7.62
  30  -1   0   68.34   13.20
  30  -1   1    6.29    8.26
  30  -1   2   53.61   11.35
  30  -1   3   52.34   12.05
  30  -1   4   67.39   12.01
  30   2  -4   -0.11    7.24
  30  -2   0   20.40   10.95
  30  -2   1   86.31   15.10
  30  -2   2    2.29    9.12
  30  -2   3  132.13   16.34
  30  -2   4   13.88    9.87
  31   0  -2    1.59    7.57
  31   0  -1  140.06   17.19
  31   0   0   11.31    8.63
  31  -1   0   21.29    9.68
  31  -1   1   56.99   12.83
   0   0   0    0.00    0.00
;
_shelx_hkl_checksum              26765
loop_
_space_group_symop_operation_xyz
'x, y, z'
'-x+1/2, -y+1/2, z'
'x+1/2, -y, -z'
'-x, y+1/2, -z'
'-x, -y, -z'
'x-1/2, y-1/2, -z'
'-x-1/2, y, z'
'x, -y-1/2, z'
loop_
_atom_site_label
_atom_site_type_symbol
_atom_site_fract_x
_atom_site_fract_y
_atom_site_fract_z
_atom_site_U_iso_or_equiv
_atom_site_adp_type
_atom_site_occupancy
_atom_site_site_symmetry_order
_atom_site_calc_flag
_atom_site_refinement_flags_posn
_atom_site_refinement_flags_adp
_atom_site_refinement_flags_occupancy
_atom_site_disorder_assembly
_atom_site_disorder_group
Yb1 Yb 0.7500 0.2500 0.65565(3) 0.01836(13) Uani 1 4 d S T P . .
Co1 Co 0.7500 0.2500 0.24720(10) 0.0378(3) Uani 1 4 d S T P . .
P1 P 0.6414(2) 0.2500 0.3598(3) 0.0364(8) Uani 0.5 2 d S T P A 1
P2 P 0.6895(2) 0.18439(12) 0.3682(2) 0.0492(7) Uani 0.5 1 d . . P B 2
N1 N 0.7500 0.16282(17) 0.7732(4) 0.0214(9) Uani 1 2 d S T P B .
N2 N 0.6216(3) 0.2500 0.7764(4) 0.0221(9) Uani 1 2 d S T P B .
F1 F 0.5487(2) 0.06457(13) 0.6063(3) 0.0645(9) Uani 1 1 d . . . . .
F2 F 0.4346(3) -0.01725(16) 0.6514(3) 0.0866(13) Uani 1 1 d . . . . .
F3 F 0.3548(2) -0.02277(14) 0.8879(4) 0.0759(10) Uani 1 1 d . . . . .
F4 F 0.3931(2) 0.05316(14) 1.0788(3) 0.0695(9) Uani 1 1 d . . . . .
F5 F 0.5083(2) 0.13493(12) 1.0342(2) 0.0530(8) Uani 1 1 d . . . . .
O1 O 0.4167(4) 0.2041(3) 0.8097(9) 0.059(2) Uani 0.5 1 d . . P . .
O2 O 0.4879(2) 0.21882(17) 0.8031(4) 0.0433(9) Uani 0.5 1 d . . P B .
C4 C 0.4879(2) 0.21882(17) 0.8031(4) 0.0433(9) Uani 0.5 1 d . . P B .
O3 O 0.6455(5) 0.2500 0.5089(7) 0.0339(19) Uani 0.5 2 d S T P A 1
O4 O 0.6907(4) 0.1900(2) 0.5154(5) 0.0311(12) Uani 0.5 1 d . . P B 2
C1 C 0.6807(2) 0.12895(15) 0.7913(3) 0.0244(8) Uani 1 1 d . . . . .
C2 C 0.5975(2) 0.14729(16) 0.7945(3) 0.0262(8) Uani 1 1 d . . . . .
C3 C 0.5721(2) 0.20380(16) 0.7889(4) 0.0266(8) Uani 1 1 d . . . . .
C5 C 0.7073(3) 0.07121(17) 0.8176(4) 0.0335(9) Uani 1 1 d . . . . .
H5A H 0.6725 0.0399 0.8318 0.040 Uiso 1 1 calc R U . . .
C6 C 0.5309(3) 0.10307(17) 0.8178(4) 0.0285(9) Uani 1 1 d . . . . .
C7 C 0.5100(3) 0.06341(19) 0.7237(4) 0.0420(11) Uani 1 1 d . . . . .
C8 C 0.4519(3) 0.0211(2) 0.7464(5) 0.0512(13) Uani 1 1 d . . . . .
C9 C 0.4118(3) 0.0181(2) 0.8647(5) 0.0498(13) Uani 1 1 d . . . . .
C10 C 0.4309(3) 0.0566(2) 0.9612(4) 0.0449(12) Uani 1 1 d . . . . .
C11 C 0.4903(3) 0.09849(19) 0.9377(4) 0.0361(10) Uani 1 1 d . . . . .
C14 C 0.6954(8) 0.2181(6) 0.0812(13) 0.070(3) Uani 0.5 1 d D . P A 1
C15 C 0.8327(9) 0.2500 0.0854(15) 0.070(3) Uani 0.5 2 d DS T P A 2
C16 C 0.7797(8) 0.2019(5) 0.0784(12) 0.070(3) Uani 0.5 1 d D . P A .
O6A O 0.7500 0.1252(5) 0.3449(11) 0.049(3) Uani 0.5 2 d S T P B 2
C13A C 0.7500 0.0822(4) 0.4084(10) 0.078(3) Uiso 0.5 2 d S . P B 2
H13A H 0.7094 0.0562 0.3726 0.117 Uiso 0.5 1 calc R U P B 2
H13B H 0.8049 0.0652 0.4055 0.117 Uiso 0.5 1 calc R U P B 2
H13C H 0.7356 0.0908 0.4982 0.117 Uiso 0.5 1 calc R U P B 2
O6B O 0.6965(11) 0.1275(6) 0.3200(15) 0.047(4) Uani 0.25 1 d . . P C 1
C13B C 0.7500 0.0822(4) 0.4084(10) 0.078(3) Uiso 0.5 2 d S . P C 1
O5A O 0.5810(6) 0.2015(4) 0.3219(7) 0.080(3) Uani 0.6 1 d . . P A 1
C12A C 0.5300(5) 0.1659(3) 0.3797(7) 0.0785(19) Uani 0.6 1 d . . P A 1
H12A H 0.5039 0.1421 0.3146 0.118 Uiso 0.6 1 calc R U P A 1
H12B H 0.5611 0.1427 0.4405 0.118 Uiso 0.6 1 calc R U P A 1
H12C H 0.4875 0.1867 0.4266 0.118 Uiso 0.6 1 calc R U P A 1
O5B O 0.6096(9) 0.1581(9) 0.3208(12) 0.100(6) Uani 0.4 1 d . . P B 2
C12B C 0.5300(5) 0.1659(3) 0.3797(7) 0.0785(19) Uani 0.4 1 d . . P B 2
H12D H 0.4885 0.1447 0.3315 0.118 Uiso 0.4 1 calc R U P B 2
H12E H 0.5317 0.1527 0.4692 0.118 Uiso 0.4 1 calc R U P B 2
H12F H 0.5156 0.2056 0.3784 0.118 Uiso 0.4 1 calc R U P B 2
C18 C 0.7500 -0.092(3) 0.291(5) 0.282(12) Uiso 0.5 2 d S . P . .
H18A H 0.7004 -0.0699 0.2676 0.338 Uiso 0.125 1 calc R U P . .
H18B H 0.7996 -0.0699 0.2676 0.338 Uiso 0.125 1 calc R U P . .
C19 C 0.7500 -0.107(3) 0.443(7) 0.29(3) Uiso 0.5 2 d S . P . .
H19A H 0.7982 -0.1320 0.4480 0.345 Uiso 0.125 1 calc R U P . .
H19B H 0.7018 -0.1320 0.4480 0.345 Uiso 0.125 1 calc R U P . .
C20 C 0.7500 -0.132(2) 0.240(5) 0.207(19) Uiso 0.5 2 d S . P . .
H20A H 0.7015 -0.1518 0.2767 0.249 Uiso 0.125 1 calc R U P . .
H20B H 0.7985 -0.1518 0.2767 0.249 Uiso 0.125 1 calc R U P . .
C21 C 0.7500 -0.1499(19) 0.102(5) 0.190(16) Uiso 0.5 2 d S . P . .
H21A H 0.7500 -0.1907 0.0965 0.285 Uiso 0.25 2 calc R U P . .
H21B H 0.7007 -0.1352 0.0588 0.285 Uiso 0.125 1 calc R U P . .
H21C H 0.7993 -0.1352 0.0588 0.285 Uiso 0.125 1 calc R U P . .
C17 C 0.7500 -0.078(3) 0.603(6) 0.27(3) Uiso 0.5 2 d S . P . .
H17A H 0.7500 -0.1085 0.6667 0.399 Uiso 0.25 2 calc R U P . .
H17B H 0.7993 -0.0551 0.6156 0.399 Uiso 0.125 1 calc R U P . .
H17C H 0.7007 -0.0551 0.6156 0.399 Uiso 0.125 1 calc R U P . .
loop_
_atom_site_aniso_label
_atom_site_aniso_U_11
_atom_site_aniso_U_22
_atom_site_aniso_U_33
_atom_site_aniso_U_23
_atom_site_aniso_U_13
_atom_site_aniso_U_12
Yb1 0.0259(2) 0.01709(18) 0.01206(17) 0.000 0.000 0.000
Co1 0.0578(8) 0.0442(7) 0.0115(5) 0.000 0.000 0.000
P1 0.0370(18) 0.054(2) 0.0179(14) 0.000 -0.0073(12) 0.000
P2 0.0750(19) 0.0528(15) 0.0198(10) -0.0092(10) 0.0000(11) -0.0314(14)
N1 0.033(2) 0.015(2) 0.016(2) -0.0001(17) 0.000 0.000
N2 0.028(2) 0.022(2) 0.016(2) 0.000 0.0001(18) 0.000
F1 0.095(2) 0.0625(19) 0.0358(14) -0.0155(14) 0.0163(16) -0.0403(18)
F2 0.118(3) 0.077(2) 0.065(2) -0.0294(18) 0.0053(19) -0.063(2)
F3 0.082(2) 0.065(2) 0.080(2) 0.0082(18) 0.0069(19) -0.0499(19)
F4 0.083(2) 0.071(2) 0.0550(17) 0.0060(16) 0.0313(17) -0.0327(18)
F5 0.073(2) 0.0529(17) 0.0326(14) -0.0109(12) 0.0155(13) -0.0244(15)
O1 0.029(4) 0.043(4) 0.105(6) 0.005(4) 0.004(4) -0.006(3)
O2 0.029(2) 0.052(2) 0.049(2) -0.0013(18) 0.0028(16) -0.0118(17)
C4 0.029(2) 0.052(2) 0.049(2) -0.0013(18) 0.0028(16) -0.0118(17)
O3 0.031(4) 0.055(5) 0.015(3) 0.000 0.000(3) 0.000
O4 0.047(3) 0.028(3) 0.018(2) -0.004(2) -0.002(2) -0.012(3)
C1 0.036(2) 0.0201(18) 0.0173(17) 0.0004(15) -0.0011(15) -0.0023(16)
C2 0.035(2) 0.0251(19) 0.0188(17) 0.0002(16) 0.0002(16) -0.0070(17)
C3 0.031(2) 0.028(2) 0.0202(18) -0.0002(16) 0.0031(16) -0.0034(17)
C5 0.050(2) 0.0210(19) 0.030(2) 0.0048(16) 0.0004(19) -0.0044(18)
C6 0.032(2) 0.027(2) 0.0272(19) 0.0029(17) -0.0002(16) -0.0056(17)
C7 0.056(3) 0.038(2) 0.032(2) -0.002(2) 0.004(2) -0.017(2)
C8 0.065(3) 0.042(3) 0.046(3) -0.007(2) -0.003(2) -0.025(2)
C9 0.050(3) 0.042(3) 0.058(3) 0.010(2) 0.001(2) -0.024(2)
C10 0.046(3) 0.047(3) 0.042(3) 0.008(2) 0.010(2) -0.015(2)
C11 0.041(3) 0.034(2) 0.034(2) 0.0000(19) 0.0028(19) -0.0095(19)
C14 0.086(7) 0.110(8) 0.0130(17) -0.019(4) -0.006(4) -0.004(5)
C15 0.086(7) 0.110(8) 0.0130(17) -0.019(4) -0.006(4) -0.004(5)
C16 0.086(7) 0.110(8) 0.0130(17) -0.019(4) -0.006(4) -0.004(5)
O6A 0.068(10) 0.046(7) 0.033(6) -0.001(5) 0.000 0.000
O6B 0.066(13) 0.028(7) 0.046(8) -0.014(6) -0.011(8) 0.010(7)
O5A 0.081(6) 0.117(7) 0.041(4) -0.026(5) 0.010(4) -0.072(6)
C12A 0.079(5) 0.067(4) 0.089(5) 0.004(4) -0.020(4) -0.009(4)
O5B 0.076(10) 0.180(18) 0.043(6) -0.031(10) -0.007(6) -0.039(12)
C12B 0.079(5) 0.067(4) 0.089(5) 0.004(4) -0.020(4) -0.009(4)
loop_
_atom_type_symbol
_atom_type_description
_atom_type_scat_dispersion_real
_atom_type_scat_dispersion_imag
_atom_type_scat_source
C C 0.0033 0.0016 'International Tables Vol C Tables 4.2.6.8 and 6.1.1.4'
H H 0.0000 0.0000 'International Tables Vol C Tables 4.2.6.8 and 6.1.1.4'
Co Co 0.3494 0.9721 'International Tables Vol C Tables 4.2.6.8 and 6.1.1.4'
F F 0.0171 0.0103 'International Tables Vol C Tables 4.2.6.8 and 6.1.1.4'
N N 0.0061 0.0033 'International Tables Vol C Tables 4.2.6.8 and 6.1.1.4'
O O 0.0106 0.0060 'International Tables Vol C Tables 4.2.6.8 and 6.1.1.4'
P P 0.1023 0.0942 'International Tables Vol C Tables 4.2.6.8 and 6.1.1.4'
Yb Yb -0.3850 5.5486 'International Tables Vol C Tables 4.2.6.8 and 6.1.1.4'
loop_
_geom_angle_atom_site_label_1
_geom_angle_atom_site_label_2
_geom_angle_atom_site_label_3
_geom_angle
_geom_angle_site_symmetry_1
_geom_angle_site_symmetry_3
O4 Yb1 O4 99.9(3) 7_755 8_565
O4 Yb1 O4 79.0(3) 7_755 2_655
O4 Yb1 O4 50.4(3) 8_565 2_655
O4 Yb1 O4 50.4(3) 7_755 .
O4 Yb1 O4 79.0(3) 8_565 .
O4 Yb1 O4 99.9(3) 2_655 .
O3 Yb1 O3 96.2(4) . 2_655
O4 Yb1 N1 76.94(16) 7_755 .
O4 Yb1 N1 150.87(16) 8_565 .
O4 Yb1 N1 150.87(16) 2_655 .
O4 Yb1 N1 76.94(16) . .
O3 Yb1 N1 109.64(10) . .
O3 Yb1 N1 109.64(10) 2_655 .
O4 Yb1 N1 150.87(16) 7_755 2_655
O4 Yb1 N1 76.94(16) 8_565 2_655
O4 Yb1 N1 76.94(16) 2_655 2_655
O4 Yb1 N1 150.87(16) . 2_655
O3 Yb1 N1 109.64(10) . 2_655
O3 Yb1 N1 109.64(10) 2_655 2_655
N1 Yb1 N1 119.54(19) . 2_655
O4 Yb1 N2 134.13(16) 7_755 .
O4 Yb1 N2 88.04(17) 8_565 .
O4 Yb1 N2 134.13(16) 2_655 .
O4 Yb1 N2 88.04(17) . .
O3 Yb1 N2 72.9(2) . .
O3 Yb1 N2 169.1(2) 2_655 .
N1 Yb1 N2 74.98(6) . .
N1 Yb1 N2 74.98(6) 2_655 .
O4 Yb1 N2 88.03(17) 7_755 2_655
O4 Yb1 N2 134.13(16) 8_565 2_655
O4 Yb1 N2 88.03(17) 2_655 2_655
O4 Yb1 N2 134.13(16) . 2_655
O3 Yb1 N2 169.1(2) . 2_655
O3 Yb1 N2 72.9(2) 2_655 2_655
N1 Yb1 N2 74.98(6) . 2_655
N1 Yb1 N2 74.98(6) 2_655 2_655
N2 Yb1 N2 118.0(2) . 2_655
O4 Yb1 P2 44.62(15) 7_755 .
O4 Yb1 P2 67.67(15) 8_565 .
O4 Yb1 P2 81.88(14) 2_655 .
O4 Yb1 P2 18.09(14) . .
N1 Yb1 P2 92.29(10) . .
N1 Yb1 P2 144.56(10) 2_655 .
N2 Yb1 P2 101.35(10) . .
N2 Yb1 P2 132.61(10) 2_655 .
O4 Yb1 P2 18.10(14) 7_755 7_755
O4 Yb1 P2 81.88(14) 8_565 7_755
O4 Yb1 P2 67.67(15) 2_655 7_755
O4 Yb1 P2 44.62(15) . 7_755
N1 Yb1 P2 92.29(10) . 7_755
N1 Yb1 P2 144.56(10) 2_655 7_755
N2 Yb1 P2 132.61(10) . 7_755
N2 Yb1 P2 101.35(10) 2_655 7_755
P2 Yb1 P2 32.53(10) . 7_755
C14 Co1 C14 43.2(8) . 8_565
C14 Co1 C14 50.4(6) . 7_755
C14 Co1 C14 68.5(8) 8_565 7_755
C14 Co1 C14 68.5(8) . 2_655
C14 Co1 C14 50.4(6) 8_565 2_655
C14 Co1 C14 43.2(8) 7_755 2_655
C14 Co1 P1 95.8(3) . .
C14 Co1 P1 95.8(3) 8_565 .
C14 Co1 P1 144.2(3) 7_755 .
C14 Co1 P1 144.2(3) 2_655 .
C14 Co1 P1 144.2(3) . 2_655
C14 Co1 P1 144.2(3) 8_565 2_655
C14 Co1 P1 95.8(3) 7_755 2_655
C14 Co1 P1 95.8(3) 2_655 2_655
P1 Co1 P1 113.01(16) . 2_655
C15 Co1 C15 77.3(8) 2_655 .
C14 Co1 C16 15.1(5) . 7_755
C14 Co1 C16 55.2(5) 8_565 7_755
C14 Co1 C16 39.2(3) 7_755 7_755
C14 Co1 C16 67.7(4) 2_655 7_755
P1 Co1 C16 105.2(3) . 7_755
P1 Co1 C16 129.5(3) 2_655 7_755
C15 Co1 C16 39.2(3) 2_655 7_755
C15 Co1 C16 60.3(5) . 7_755
C14 Co1 C16 67.7(4) . 8_565
C14 Co1 C16 39.2(3) 8_565 8_565
C14 Co1 C16 55.2(5) 7_755 8_565
C14 Co1 C16 15.1(5) 2_655 8_565
P1 Co1 C16 129.5(3) . 8_565
P1 Co1 C16 105.2(3) 2_655 8_565
C15 Co1 C16 60.3(5) 2_655 8_565
C15 Co1 C16 39.2(3) . 8_565
C16 Co1 C16 71.1(7) 7_755 8_565
C14 Co1 C16 55.2(5) . 2_655
C14 Co1 C16 15.1(5) 8_565 2_655
C14 Co1 C16 67.7(4) 7_755 2_655
C14 Co1 C16 39.2(3) 2_655 2_655
P1 Co1 C16 105.2(3) . 2_655
P1 Co1 C16 129.5(3) 2_655 2_655
C15 Co1 C16 39.2(3) 2_655 2_655
C15 Co1 C16 60.3(5) . 2_655
C16 Co1 C16 64.9(6) 7_755 2_655
C16 Co1 C16 25.9(6) 8_565 2_655
C14 Co1 C16 39.2(3) . .
C14 Co1 C16 67.7(4) 8_565 .
C14 Co1 C16 15.1(5) 7_755 .
C14 Co1 C16 55.2(5) 2_655 .
P1 Co1 C16 129.5(3) . .
P1 Co1 C16 105.2(3) 2_655 .
C15 Co1 C16 60.3(5) 2_655 .
C15 Co1 C16 39.2(3) . .
C16 Co1 C16 25.9(6) 7_755 .
C16 Co1 C16 64.9(6) 8_565 .
C16 Co1 C16 71.1(7) 2_655 .
O3 P1 O5A 106.1(4) . 8_565
O3 P1 O5A 106.1(4) . .
O5A P1 O5A 95.5(9) 8_565 .
O3 P1 Co1 121.0(4) . .
O5A P1 Co1 112.5(4) 8_565 .
O5A P1 Co1 112.5(4) . .
O3 P1 Yb1 27.4(3) . .
O5A P1 Yb1 121.9(4) 8_565 .
O5A P1 Yb1 121.9(4) . .
Co1 P1 Yb1 93.60(11) . .
O5B P2 O4 111.7(6) . .
O5B P2 O6A 95.6(9) . .
O4 P2 O6A 101.7(5) . .
O5B P2 P2 148.3(7) . 7_755
O4 P2 P2 89.3(3) . 7_755
O6A P2 P2 55.7(2) . 7_755
O5B P2 Co1 118.9(7) . .
O4 P2 Co1 119.3(2) . .
O6A P2 Co1 104.3(3) . .
P2 P2 Co1 63.97(9) 7_755 .
O5B P2 Yb1 134.3(5) . .
O4 P2 Yb1 27.3(2) . .
O6A P2 Yb1 109.0(3) . .
P2 P2 Yb1 73.73(5) 7_755 .
Co1 P2 Yb1 92.15(8) . .
C1 N1 C1 106.9(4) 7_755 .
C1 N1 Yb1 124.6(2) 7_755 .
C1 N1 Yb1 124.6(2) . .
C3 N2 C3 107.4(5) . 8_565
C3 N2 Yb1 123.3(2) . .
C3 N2 Yb1 123.3(2) 8_565 .
O1 O2 C3 148.2(5) . .
O1 O2 C4 107.0(4) . 8_565
C3 O2 C4 104.7(2) . 8_565
O1 O2 O2 107.0(4) . 8_565
C3 O2 O2 104.7(2) . 8_565
C4 O2 O2 0.0(4) 8_565 8_565
P1 O3 Yb1 134.3(5) . .
P2 O4 Yb1 134.6(3) . .
N1 C1 C2 126.0(3) . .
N1 C1 C5 109.5(3) . .
C2 C1 C5 124.4(4) . .
C3 C2 C1 124.8(3) . .
C3 C2 C6 117.5(4) . .
C1 C2 C6 117.4(3) . .
N2 C3 C2 127.2(4) . .
N2 C3 O2 111.6(3) . .
C2 C3 O2 121.2(4) . .
C5 C5 C1 107.0(2) 7_755 .
C5 C5 H5A 126.5 7_755 .
C1 C5 H5A 126.5 . .
C7 C6 C11 116.5(4) . .
C7 C6 C2 122.0(4) . .
C11 C6 C2 121.4(4) . .
F1 C7 C6 119.5(4) . .
F1 C7 C8 118.1(4) . .
C6 C7 C8 122.3(4) . .
F2 C8 C9 120.1(4) . .
F2 C8 C7 120.0(4) . .
C9 C8 C7 119.9(4) . .
F3 C9 C8 120.5(5) . .
F3 C9 C10 119.9(4) . .
C8 C9 C10 119.6(4) . .
F4 C10 C9 119.9(4) . .
F4 C10 C11 120.2(4) . .
C9 C10 C11 119.8(4) . .
F5 C11 C6 119.8(4) . .
F5 C11 C10 118.4(4) . .
C6 C11 C10 121.7(4) . .
C16 C14 C16 28(2) 7_755 .
C16 C14 C14 134(3) 7_755 8_565
C16 C14 C14 105.8(8) . 8_565
C16 C14 C14 44(3) 7_755 7_755
C16 C14 C14 15.9(8) . 7_755
C14 C14 C14 90.002(3) 8_565 7_755
C16 C14 C16 122(3) 7_755 2_655
C16 C14 C16 93.9(12) . 2_655
C14 C14 C16 11.9(7) 8_565 2_655
C14 C14 C16 78.1(7) 7_755 2_655
C16 C14 Co1 89(3) 7_755 .
C16 C14 Co1 73.0(9) . .
C14 C14 Co1 68.4(4) 8_565 .
C14 C14 Co1 64.8(3) 7_755 .
C16 C14 Co1 64.2(7) 2_655 .
C16 C15 C16 106.4(11) 8_565 .
C16 C15 Co1 70.5(6) 8_565 .
C16 C15 Co1 70.5(6) . .
C14 C16 C16 136(3) 7_755 7_755
C14 C16 C14 120(3) 7_755 .
C16 C16 C14 15.9(8) 7_755 .
C16 C16 C15 126.6(5) 7_755 .
C14 C16 C14 34(2) 7_755 2_655
C16 C16 C14 101.9(7) 7_755 2_655
C14 C16 C14 86.0(12) . 2_655
C14 C16 Co1 75(2) 7_755 .
C16 C16 Co1 77.0(3) 7_755 .
C14 C16 Co1 67.8(9) . .
C15 C16 Co1 70.3(7) . .
C14 C16 Co1 60.6(6) 2_655 .
C13A O6A P2 127.7(7) . 7_755
C13A O6A P2 127.7(7) . .
P2 O6A P2 68.6(5) 7_755 .
O6A C13A H13A 109.5 . .
O6A C13A H13B 109.5 . .
H13A C13A H13B 109.5 . .
O6A C13A H13C 109.5 . .
H13A C13A H13C 109.5 . .
H13B C13A H13C 109.5 . .
C12A O5A P1 138.6(7) . .
O5A C12A H12A 109.5 . .
O5A C12A H12B 109.5 . .
H12A C12A H12B 109.5 . .
O5A C12A H12C 109.5 . .
H12A C12A H12C 109.5 . .
H12B C12A H12C 109.5 . .
C20 C18 C19 106(6) . .
C20 C18 H18A 110.6 . .
C19 C18 H18A 110.6 . .
C20 C18 H18B 110.6 . .
C19 C18 H18B 110.6 . .
H18A C18 H18B 108.8 . .
C18 C19 C17 145(6) . .
C18 C19 H19A 100.7 . .
C17 C19 H19A 100.7 . .
C18 C19 H19B 100.7 . .
C17 C19 H19B 100.7 . .
H19A C19 H19B 104.4 . .
C18 C20 C21 135(6) . .
C18 C20 H20A 103.5 . .
C21 C20 H20A 103.5 . .
C18 C20 H20B 103.5 . .
C21 C20 H20B 103.5 . .
H20A C20 H20B 105.3 . .
C20 C21 H21A 109.5 . .
C20 C21 H21B 109.5 . .
H21A C21 H21B 109.5 . .
C20 C21 H21C 109.5 . .
H21A C21 H21C 109.5 . .
H21B C21 H21C 109.5 . .
C19 C17 H17A 109.5 . .
C19 C17 H17B 109.5 . .
H17A C17 H17B 109.5 . .
C19 C17 H17C 109.5 . .
H17A C17 H17C 109.5 . .
H17B C17 H17C 109.5 . .
loop_
_geom_bond_atom_site_label_1
_geom_bond_atom_site_label_2
_geom_bond_distance
_geom_bond_site_symmetry_2
Yb1 O4 2.212(5) 7_755
Yb1 O4 2.212(5) 8_565
Yb1 O4 2.212(5) 2_655
Yb1 O4 2.212(5) .
Yb1 O3 2.230(8) .
Yb1 O3 2.230(8) 2_655
Yb1 N1 2.368(4) .
Yb1 N1 2.368(4) 2_655
Yb1 N2 2.380(4) .
Yb1 N2 2.380(4) 2_655
Yb1 P2 3.434(2) .
Yb1 P2 3.434(2) 7_755
Co1 C14 2.037(14) .
Co1 C14 2.037(14) 8_565
Co1 C14 2.037(14) 7_755
Co1 C14 2.037(14) 2_655
Co1 P1 2.069(3) .
Co1 P1 2.069(3) 2_655
Co1 C15 2.102(15) 2_655
Co1 C15 2.102(15) .
Co1 C16 2.105(12) 7_755
Co1 C16 2.105(12) 8_565
Co1 C16 2.105(12) 2_655
Co1 C16 2.105(12) .
P1 O3 1.514(8) .
P1 O5A 1.537(7) 8_565
P1 O5A 1.537(7) .
P2 O5B 1.491(14) .
P2 O4 1.499(5) .
P2 O6A 1.707(10) .
P2 P2 1.924(6) 7_755
N1 C1 1.371(4) 7_755
N1 C1 1.371(4) .
N2 C3 1.345(5) .
N2 C3 1.345(5) 8_565
F1 C7 1.340(5) .
F2 C8 1.347(6) .
F3 C9 1.341(5) .
F4 C10 1.338(5) .
F5 C11 1.331(5) .
O1 O2 1.184(7) .
O2 C3 1.392(5) .
O2 C4 1.464(8) 8_565
O2 O2 1.464(8) 8_565
C1 C2 1.390(6) .
C1 C5 1.445(5) .
C2 C3 1.388(5) .
C2 C6 1.501(5) .
C5 C5 1.356(9) 7_755
C5 H5A 0.9300 .
C6 C7 1.374(6) .
C6 C11 1.381(6) .
C7 C8 1.375(6) .
C8 C9 1.361(7) .
C9 C10 1.366(7) .
C10 C11 1.383(6) .
C14 C16 0.549(17) 7_755
C14 C16 1.392(10) .
C14 C14 1.50(3) 8_565
C14 C14 1.73(2) 7_755
C14 C16 1.920(17) 2_655
C15 C16 1.411(9) 8_565
C15 C16 1.411(9) .
C16 C14 0.549(17) 7_755
C16 C16 0.94(2) 7_755
C16 C14 1.921(17) 2_655
O6A C13A 1.196(14) .
O6A P2 1.707(10) 7_755
C13A H13A 0.9600 .
C13A H13B 0.9600 .
C13A H13C 0.9600 .
O6B O6B 1.70(3) 7_755
O5A C12A 1.304(10) .
C12A H12A 0.9600 .
C12A H12B 0.9600 .
C12A H12C 0.9600 .
C18 C20 1.08(7) .
C18 C19 1.59(7) .
C18 H18A 0.9700 .
C18 H18B 0.9700 .
C19 C17 1.76(7) .
C19 H19A 0.9700 .
C19 H19B 0.9700 .
C20 C21 1.46(6) .
C20 H20A 0.9700 .
C20 H20B 0.9700 .
C21 H21A 0.9600 .
C21 H21B 0.9600 .
C21 H21C 0.9600 .
C17 H17A 0.9600 .
C17 H17B 0.9600 .
C17 H17C 0.9600 .
loop_
_geom_torsion_atom_site_label_1
_geom_torsion_atom_site_label_2
_geom_torsion_atom_site_label_3
_geom_torsion_atom_site_label_4
_geom_torsion
_geom_torsion_site_symmetry_1
_geom_torsion_site_symmetry_4
O5A_a P1_a O3_a Yb1 -129.6(5) 8_565 .
O5A P1 O3 Yb1 129.6(5) . .
Co1 P1 O3 Yb1 0.000(1) . .
O5B P2 O4 Yb1 -150.2(10) . .
O6A P2 O4 Yb1 108.8(5) . .
P2 P2 O4 Yb1 54.1(5) 7_755 .
Co1 P2 O4 Yb1 -5.1(6) . .
C1 N1 C1 C2 173.4(2) 7_755 .
Yb1 N1 C1 C2 -27.7(5) . .
C1 N1 C1 C5 -1.9(5) 7_755 .
Yb1 N1 C1 C5 157.0(3) . .
N1 C1 C2 C3 -4.7(6) . .
C5 C1 C2 C3 169.9(4) . .
N1 C1 C2 C6 -179.0(4) . .
C5 C1 C2 C6 -4.4(6) . .
C3 N2 C3 C2 -173.7(2) 8_565 .
Yb1 N2 C3 C2 32.7(6) . .
C3 N2 C3 O2 3.1(6) 8_565 .
Yb1 N2 C3 O2 -150.5(3) . .
C1 C2 C3 N2 1.7(6) . .
C6 C2 C3 N2 176.0(4) . .
C1 C2 C3 O2 -174.9(4) . .
C6 C2 C3 O2 -0.6(5) . .
O1 O2 C3 N2 173.1(10) . .
C4 O2 C3 N2 -1.9(3) 8_565 .
O2 O2 C3 N2 -1.9(3) 8_565 .
O1 O2 C3 C2 -9.9(12) . .
C4 O2 C3 C2 175.2(3) 8_565 .
O2 O2 C3 C2 175.2(3) 8_565 .
N1 C1 C5 C5 1.2(3) . 7_755
C2 C1 C5 C5 -174.2(3) . 7_755
C3 C2 C6 C7 113.8(5) . .
C1 C2 C6 C7 -71.4(5) . .
C3 C2 C6 C11 -69.4(5) . .
C1 C2 C6 C11 105.4(5) . .
C11 C6 C7 F1 -178.3(4) . .
C2 C6 C7 F1 -1.4(7) . .
C11 C6 C7 C8 -0.1(7) . .
C2 C6 C7 C8 176.9(5) . .
F1 C7 C8 F2 -0.7(8) . .
C6 C7 C8 F2 -179.0(5) . .
F1 C7 C8 C9 179.4(5) . .
C6 C7 C8 C9 1.1(8) . .
F2 C8 C9 F3 -0.1(8) . .
C7 C8 C9 F3 179.7(5) . .
F2 C8 C9 C10 178.9(5) . .
C7 C8 C9 C10 -1.3(8) . .
F3 C9 C10 F4 0.5(8) . .
C8 C9 C10 F4 -178.5(5) . .
F3 C9 C10 C11 179.4(5) . .
C8 C9 C10 C11 0.4(8) . .
C7 C6 C11 F5 179.0(4) . .
C2 C6 C11 F5 2.0(6) . .
C7 C6 C11 C10 -0.8(7) . .
C2 C6 C11 C10 -177.8(4) . .
F4 C10 C11 F5 -0.3(7) . .
C9 C10 C11 F5 -179.1(5) . .
F4 C10 C11 C6 179.5(4) . .
C9 C10 C11 C6 0.7(8) . .
C16 C14 C16 C14 179.995(3) 7_755 7_755
C14 C14 C16 C14 4(4) 8_565 7_755
C16 C14 C16 C14 5(4) 2_655 7_755
Co1 C14 C16 C14 -56(3) . 7_755
C14 C14 C16 C16 -176(4) 8_565 7_755
C14 C14 C16 C16 -179.994(3) 7_755 7_755
C16 C14 C16 C16 -175(4) 2_655 7_755
Co1 C14 C16 C16 124(3) . 7_755
C16 C14 C16 C15 179(3) 7_755 .
C14 C14 C16 C15 3.9(12) 8_565 .
C14 C14 C16 C15 -1(3) 7_755 .
C16 C14 C16 C15 4.4(16) 2_655 .
Co1 C14 C16 C15 -57.0(10) . .
C16 C14 C16 C14 177(3) 7_755 2_655
C14 C14 C16 C14 1.1(9) 8_565 2_655
C14 C14 C16 C14 -3(3) 7_755 2_655
C16 C14 C16 C14 1.7(14) 2_655 2_655
Co1 C14 C16 C14 -59.8(7) . 2_655
C16 C14 C16 Co1 -124(3) 7_755 .
C14 C14 C16 Co1 60.9(3) 8_565 .
C14 C14 C16 Co1 56(3) 7_755 .
C16 C14 C16 Co1 61.5(8) 2_655 .
C16 C15 C16 C14 177(14) 8_565 7_755
Co1 C15 C16 C14 -122(14) . 7_755
C16 C15 C16 C16 -6.0(15) 8_565 7_755
Co1 C15 C16 C16 55.8(6) . 7_755
C16 C15 C16 C14 -6.2(19) 8_565 .
Co1 C15 C16 C14 55.6(11) . .
C16 C15 C16 C14 0.4(16) 8_565 2_655
Co1 C15 C16 C14 62.1(18) . 2_655
C16 C15 C16 Co1 -61.8(10) 8_565 .
O5B P2 O6A C13A -72.7(10) . .
O4 P2 O6A C13A 40.8(9) . .
P2 P2 O6A C13A 121.8(10) 7_755 .
Co1 P2 O6A C13A 165.6(7) . .
Yb1 P2 O6A C13A 68.2(8) . .
O5B P2 O6A P2 165.5(6) . 7_755
O4 P2 O6A P2 -80.9(4) . 7_755
Co1 P2 O6A P2 43.8(3) . 7_755
Yb1 P2 O6A P2 -53.6(4) . 7_755
O3 P1 O5A C12A 7.3(16) . .
O5A P1 O5A C12A -101.2(14) 8_565 .
Co1 P1 O5A C12A 141.7(13) . .
Yb1 P1 O5A C12A 32.0(17) . .
C20 C18 C19 C17 180.000(3) . .
C19 C18 C20 C21 180.000(2) . .
