#------------------------------------------------------------------------------
#$Date: 2017-04-22 01:35:06 +0300 (Sat, 22 Apr 2017) $
#$Revision: 195661 $
#$URL: file:///home/coder/svn-repositories/cod/cif/4/34/57/4345735.cif $
#------------------------------------------------------------------------------
#
# This file is available in the Crystallography Open Database (COD),
# http://www.crystallography.net/
#
# All data on this site have been placed in the public domain by the
# contributors.
#
data_4345735
loop_
_publ_author_name
'Cheung, Wai-Man'
'Chiu, Wai-Hang'
'de Vere-Tucker, Matthew'
'Sung, Herman H.-Y.'
'Williams, Ian D.'
'Leung, Wa-Hung'
_publ_section_title
;
 Heterobimetallic Nitrido Complexes of Group 8 Metalloporphyrins
;
_journal_name_full               'Inorganic Chemistry'
_journal_paper_doi               10.1021/acs.inorgchem.7b00281
_journal_year                    2017
_chemical_formula_moiety         'C66 H68 Cl2 Co Fe N6 O9 P3 Ru, C4 H10 O'
_chemical_formula_sum            'C70 H78 Cl2 Co Fe N6 O10 P3 Ru'
_chemical_formula_weight         1543.04
_chemical_name_systematic
;
 ? 
;
_space_group_crystal_system      triclinic
_space_group_IT_number           2
_space_group_name_Hall           '-P 1'
_space_group_name_H-M_alt        'P -1'
_symmetry_space_group_name_Hall  '-P 1'
_symmetry_space_group_name_H-M   'P -1'
_atom_sites_solution_hydrogens   geom
_atom_sites_solution_primary     iterative
_audit_creation_date             2016-04-20
_audit_creation_method
;
Olex2 1.2
(compiled 2016.02.19 svn.r3266 for OlexSys, GUI svn.r5155)
;
_cell_angle_alpha                85.814(3)
_cell_angle_beta                 81.328(3)
_cell_angle_gamma                79.174(3)
_cell_formula_units_Z            2
_cell_length_a                   13.0815(5)
_cell_length_b                   13.5417(5)
_cell_length_c                   20.0834(8)
_cell_measurement_reflns_used    7821
_cell_measurement_temperature    100.01(10)
_cell_measurement_theta_max      75.2840
_cell_measurement_theta_min      4.5720
_cell_volume                     3450.8(2)
_computing_cell_refinement
;
CrysAlisPro, Agilent Technologies,
Version 1.171.37.35 (release 13-08-2014 CrysAlis171 .NET)
(compiled Aug 13 2014,18:06:01)
;
_computing_data_collection
;
CrysAlisPro, Agilent Technologies,
Version 1.171.37.35 (release 13-08-2014 CrysAlis171 .NET)
(compiled Aug 13 2014,18:06:01)
;
_computing_data_reduction
;
CrysAlisPro, Agilent Technologies,
Version 1.171.37.35 (release 13-08-2014 CrysAlis171 .NET)
(compiled Aug 13 2014,18:06:01)
;
_computing_molecular_graphics    'Olex2 (Dolomanov et al., 2009)'
_computing_publication_material  'Olex2 (Dolomanov et al., 2009)'
_computing_structure_refinement  'ShelXL (Sheldrick, 2015)'
_computing_structure_solution
;
Superflip (Palatinus & Chapuis, 2007;Palatinus & van der Lee, 2008;
Palatinus et al., 2012)
;
_diffrn_ambient_environment      N~2~
_diffrn_ambient_temperature      100.01(10)
_diffrn_detector                 'CCD plate'
_diffrn_detector_area_resol_mean 10.3587
_diffrn_detector_type            Atlas
_diffrn_measured_fraction_theta_full 0.985
_diffrn_measured_fraction_theta_max 0.985
_diffrn_measurement_details
;
#__ type_ start__ end____ width___ exp.time_
  1 omega   41.00  115.00   1.0000   20.0000
omega____ theta____ kappa____ phi______ frames
    -      110.5703 -111.0000   30.0000 74

#__ type_ start__ end____ width___ exp.time_
  2 omega  -64.00   33.00   1.0000    5.0000
omega____ theta____ kappa____ phi______ frames
    -      -40.6953   57.0000   60.0000 97

#__ type_ start__ end____ width___ exp.time_
  3 omega   34.00   83.00   1.0000    5.0000
omega____ theta____ kappa____ phi______ frames
    -       40.6953  -99.0000   90.0000 49

#__ type_ start__ end____ width___ exp.time_
  4 omega   36.00  139.00   1.0000   20.0000
omega____ theta____ kappa____ phi______ frames
    -      110.5703  -61.0000   30.0000 103

#__ type_ start__ end____ width___ exp.time_
  5 omega   53.00  176.00   1.0000   20.0000
omega____ theta____ kappa____ phi______ frames
    -      110.5703   15.0000  120.0000 123

#__ type_ start__ end____ width___ exp.time_
  6 omega  103.00  175.00   1.0000   20.0000
omega____ theta____ kappa____ phi______ frames
    -      110.5703  111.0000    0.0000 72

#__ type_ start__ end____ width___ exp.time_
  7 omega   93.00  178.00   1.0000   20.0000
omega____ theta____ kappa____ phi______ frames
    -      110.5703   45.0000 -180.0000 85

#__ type_ start__ end____ width___ exp.time_
  8 omega   73.00  149.00   1.0000   20.0000
omega____ theta____ kappa____ phi______ frames
    -      110.5703  178.0000   30.0000 76

#__ type_ start__ end____ width___ exp.time_
  9 omega   34.00   86.00   1.0000   20.0000
omega____ theta____ kappa____ phi______ frames
    -      110.5703  -30.0000  -90.0000 52

#__ type_ start__ end____ width___ exp.time_
 10 omega   51.00   90.00   1.0000   20.0000
omega____ theta____ kappa____ phi______ frames
    -      110.5703  -30.0000 -180.0000 39

#__ type_ start__ end____ width___ exp.time_
 11 omega   39.00  114.00   1.0000   20.0000
omega____ theta____ kappa____ phi______ frames
    -      110.5703 -111.0000 -150.0000 75

#__ type_ start__ end____ width___ exp.time_
 12 omega -109.00  -13.00   1.0000    5.0000
omega____ theta____ kappa____ phi______ frames
    -      -40.6953  -57.0000  -90.0000 96

#__ type_ start__ end____ width___ exp.time_
 13 omega -115.00  -11.00   1.0000    5.0000
omega____ theta____ kappa____ phi______ frames
    -      -40.6953  -57.0000 -180.0000 104
;
_diffrn_measurement_device       'kappa diffractometer'
_diffrn_measurement_device_type  'SuperNova, Dual, Cu at zero, Atlas'
_diffrn_measurement_method       '\w scans'
_diffrn_orient_matrix_UB_11      0.0622154000
_diffrn_orient_matrix_UB_12      0.0405983000
_diffrn_orient_matrix_UB_13      0.0479419000
_diffrn_orient_matrix_UB_21      -0.0805727000
_diffrn_orient_matrix_UB_22      -0.0236714000
_diffrn_orient_matrix_UB_23      0.0604860000
_diffrn_orient_matrix_UB_31      0.0655775000
_diffrn_orient_matrix_UB_32      -0.1059979000
_diffrn_orient_matrix_UB_33      0.0087637000
_diffrn_radiation_monochromator  mirror
_diffrn_radiation_probe          x-ray
_diffrn_radiation_type           CuK\a
_diffrn_radiation_wavelength     1.54184
_diffrn_reflns_av_R_equivalents  0.0504
_diffrn_reflns_av_unetI/netI     0.0786
_diffrn_reflns_limit_h_max       15
_diffrn_reflns_limit_h_min       -12
_diffrn_reflns_limit_k_max       15
_diffrn_reflns_limit_k_min       -16
_diffrn_reflns_limit_l_max       23
_diffrn_reflns_limit_l_min       -23
_diffrn_reflns_number            19603
_diffrn_reflns_theta_full        66.500
_diffrn_reflns_theta_max         66.999
_diffrn_reflns_theta_min         3.919
_diffrn_source                   'sealed X-ray tube'
_diffrn_source_current           0.80
_diffrn_source_power             0.040
_diffrn_source_target            Cu
_diffrn_source_type              'SuperNova (Cu) X-ray Source'
_diffrn_source_voltage           50
_exptl_absorpt_coefficient_mu    7.154
_exptl_absorpt_correction_T_max  1.00000
_exptl_absorpt_correction_T_min  0.65801
_exptl_absorpt_correction_type   multi-scan
_exptl_absorpt_process_details
;
CrysAlisPro, Agilent Technologies,
Version 1.171.37.35 (release 13-08-2014 CrysAlis171 .NET)
(compiled Aug 13 2014,18:06:01)
Empirical absorption correction using spherical harmonics,
 implemented in SCALE3 ABSPACK scaling algorithm.
;
_exptl_crystal_colour            red
_exptl_crystal_colour_primary    red
_exptl_crystal_density_diffrn    1.485
_exptl_crystal_density_method    'not measured'
_exptl_crystal_description       plate
_exptl_crystal_F_000             1592
_exptl_crystal_size_max          0.15
_exptl_crystal_size_mid          0.13
_exptl_crystal_size_min          0.02
_refine_diff_density_max         1.033
_refine_diff_density_min         -0.704
_refine_diff_density_rms         0.098
_refine_ls_extinction_method     none
_refine_ls_goodness_of_fit_ref   1.003
_refine_ls_hydrogen_treatment    constr
_refine_ls_matrix_type           full
_refine_ls_number_parameters     855
_refine_ls_number_reflns         12128
_refine_ls_number_restraints     30
_refine_ls_restrained_S_all      1.013
_refine_ls_R_factor_all          0.0603
_refine_ls_R_factor_gt           0.0456
_refine_ls_shift/su_max          0.001
_refine_ls_shift/su_mean         0.000
_refine_ls_structure_factor_coef Fsqd
_refine_ls_weighting_details
'w=1/[\s^2^(Fo^2^)+(0.0525P)^2^] where P=(Fo^2^+2Fc^2^)/3'
_refine_ls_weighting_scheme      calc
_refine_ls_wR_factor_gt          0.1084
_refine_ls_wR_factor_ref         0.1163
_reflns_Friedel_coverage         0.000
_reflns_number_gt                9860
_reflns_number_total             12128
_reflns_threshold_expression     'I > 2\s(I)'
_cod_data_source_file            ic7b00281_si_003.cif
_cod_data_source_block           wai178cult
_cod_database_code               4345735
_chemical_oxdiff_formula         'Fe Ru N4 ph8 Co Et6 O9 P3 Cl2'
_shelx_space_group_comment
;
The symmetry employed for this shelxl refinement is uniquely defined
by the following loop, which should always be used as a source of
symmetry information in preference to the above space-group names.
They are only intended as comments.
;
_reflns_odcompleteness_completeness 98.63
_reflns_odcompleteness_iscentric 1
_reflns_odcompleteness_theta     68.13
_olex2_refinement_description
;
1. Fixed Uiso
 At 1.2 times of:
  All C(H) groups, All C(H,H) groups
 At 1.5 times of:
  All C(H,H,H) groups
2. Uiso/Uaniso restraints and constraints
Uanis(C4) \\sim Ueq, Uanis(C5) \\sim Ueq, Uanis(C2) \\sim Ueq, Uanis(C1) \\sim
Ueq, Uanis(C3) \\sim Ueq: with sigma of 0.008 and sigma for terminal atoms of
0.002
3.a Secondary CH2 refined with riding coordinates:
 C11(H11A,H11B), C13(H13A,H13B), C15(H15A,H15B), C17(H17A,H17B), C19(H19A,
 H19B), C21(H21A,H21B), C2S(H2SA,H2SB), C4S(H4SA,H4SB)
3.b Aromatic/amide H refined with riding coordinates:
 C1(H1), C2(H2), C3(H3), C4(H4), C5(H5), C6(H6), C7(H7), C8(H8), C9(H9),
 C10(H10), C32(H32), C33(H33), C37(H37), C38(H38), C42(H42), C43(H43), C47(H47),
  C48(H48), C52(H52), C53(H53), C54(H54), C55(H55), C56(H56), C62(H62),
 C63(H63), C64(H64), C65(H65), C66(H66), C72(H72), C73(H73), C74(H74), C75(H75),
  C76(H76), C82(H82), C83(H83), C84(H84), C85(H85), C86(H86)
3.c Idealised Me refined as rotating group:
 C12(H12A,H12B,H12C), C14(H14A,H14B,H14C), C16(H16A,H16B,H16C), C18(H18A,H18B,
 H18C), C20(H20A,H20B,H20C), C22(H22A,H22B,H22C), C1S(H1SA,H1SB,H1SC), C5S(H5SA,
 H5SB,H5SC)
;
_shelx_res_file
;
    wai178cult.res created by SHELXL-2014/7

TITL wai178CuLT solution in P-1
CELL 1.54184 13.081504 13.541657 20.083425 85.8143 81.3283 79.1745
ZERR 2 0.000495 0.000498 0.000762 0.0031 0.0031 0.0031
LATT 1
SFAC C H Cl Co Fe N O P Ru
UNIT 140 156 4 2 2 12 20 6 2
ISOR 0.008 0.002 C4 C5 C2 C1 C3

L.S. 6
PLAN  25
TEMP -173
BOND
fmap 2
acta 133
OMIT 0 134
OMIT 1 6 9
OMIT 1 -2 7
OMIT 4 9 14
OMIT -9 -11 8
OMIT 1 -1 1
OMIT 1 2 5
OMIT 0 3 5
OMIT -4 -10 10
OMIT 13 9 9
OMIT -6 2 11
OMIT 1 -4 1
OMIT -2 1 0
OMIT 1 3 4
OMIT 10 11 13
OMIT -4 9 12
OMIT 12 6 17
OMIT 4 -3 18
OMIT -11 -9 8
OMIT 4 -2 12
OMIT -9 5 10
OMIT -9 -10 9
OMIT 12 10 11
OMIT 1 1 7
OMIT 1 0 4
OMIT 5 11 14
OMIT 9 12 13
OMIT 4 -11 9
OMIT 1 -2 6
OMIT -10 -12 4
OMIT 9 8 14
OMIT 9 -7 8
OMIT -2 -14 9
OMIT -1 1 3
OMIT -6 -10 10
OMIT 4 10 14
OMIT 2 -2 23
OMIT -1 -14 9
OMIT -11 -10 7
OMIT -2 -9 11
OMIT 5 -9 14
OMIT 6 8 15
OMIT -1 3 0
OMIT -1 -5 6
OMIT 10 -4 7
OMIT -6 -13 8
OMIT 2 -2 21
OMIT 1 1 6
REM <olex2.extras>
REM <HklSrc "%.\\wai178CuLT.hkl">
REM </olex2.extras>

WGHT    0.052500
FVAR       2.37052
RU1   9    0.371343    0.596904    0.325230    11.00000    0.01019    0.01089 =
         0.01695   -0.00141   -0.00115   -0.00194
CO1   4    0.480144    0.335463    0.236084    11.00000    0.01671    0.01196 =
         0.02019   -0.00254   -0.00042   -0.00234
FE1   5    0.245288    0.821489    0.268910    11.00000    0.00995    0.01145 =
         0.01490   -0.00092   -0.00017   -0.00277
CL1   3    0.475532    0.672294    0.383727    11.00000    0.01639    0.01871 =
         0.03330   -0.00605   -0.00982   -0.00294
CL2   3    0.247447    0.593282    0.421084    11.00000    0.02023    0.01923 =
         0.01869    0.00042    0.00197   -0.00134
P1    8    0.316443    0.406229    0.256436    11.00000    0.01616    0.01419 =
         0.01848   -0.00140   -0.00167   -0.00523
P2    8    0.496507    0.357499    0.338647    11.00000    0.01666    0.01129 =
         0.02090    0.00010   -0.00383   -0.00185
P3    8    0.532978    0.476639    0.205599    11.00000    0.01340    0.01322 =
         0.02150   -0.00220    0.00170   -0.00251
O1    7    0.251158    0.398296    0.195800    11.00000    0.02472    0.01885 =
         0.02597   -0.00153   -0.00717   -0.00733
O2    7    0.257647    0.338554    0.312171    11.00000    0.01814    0.01877 =
         0.02620    0.00288    0.00126   -0.00645
O3    7    0.456867    0.270709    0.388540    11.00000    0.01982    0.01523 =
         0.01941   -0.00160    0.00097    0.00053
O4    7    0.619862    0.337692    0.343443    11.00000    0.01985    0.01794 =
         0.02566    0.00179   -0.00571   -0.00206
O5    7    0.659573    0.463252    0.196535    11.00000    0.01264    0.02190 =
         0.02937   -0.00741    0.00413   -0.00278
O6    7    0.512642    0.503371    0.129486    11.00000    0.02109    0.01543 =
         0.02568   -0.00093    0.00050   -0.00246
O7    7    0.289271    0.515691    0.274481    11.00000    0.01587    0.01564 =
         0.02328   -0.00369   -0.00440   -0.00464
O8    7    0.443815    0.457335    0.367038    11.00000    0.02310    0.01597 =
         0.02074    0.00250   -0.01031   -0.00003
O9    7    0.492806    0.570420    0.246394    11.00000    0.01791    0.01462 =
         0.02140   -0.00537    0.00461   -0.00243
N1    6    0.327787    0.834202    0.176815    11.00000    0.01408    0.01186 =
         0.01680   -0.00269    0.00121   -0.00375
N2    6    0.138616    0.765601    0.228611    11.00000    0.01029    0.01334 =
         0.01728    0.00168   -0.00149   -0.00241
N3    6    0.154264    0.823379    0.357749    11.00000    0.01257    0.01728 =
         0.01289   -0.00564    0.00093   -0.00240
N4    6    0.346299    0.887450    0.306627    11.00000    0.01087    0.01134 =
         0.01988   -0.00201    0.00115   -0.00339
N5    6    0.157329    0.968085    0.250913    11.00000    0.01531    0.01437 =
         0.01772    0.00082   -0.00113   -0.00193
N6    6    0.310551    0.707754    0.291733    11.00000    0.01065    0.02181 =
         0.01448   -0.00872    0.00001   -0.00733
C1    1    0.612074    0.238808    0.192835    11.00000    0.02931    0.02449 =
         0.06046   -0.02201    0.01053   -0.00101
AFIX  43
H1    2    0.682209    0.249790    0.190296    11.00000   -1.20000
AFIX   0
C2    1    0.546964    0.270112    0.144877    11.00000    0.09296    0.01733 =
         0.02979   -0.00956    0.00095    0.00637
AFIX  43
H2    2    0.565167    0.305780    0.103598    11.00000   -1.20000
AFIX   0
C3    1    0.453555    0.242419    0.165458    11.00000    0.05928    0.04915 =
         0.08059   -0.04358   -0.03888    0.02015
AFIX  43
H3    2    0.395038    0.255070    0.141250    11.00000   -1.20000
AFIX   0
C4    1    0.456937    0.191339    0.229125    11.00000    0.04642    0.03011 =
         0.09893   -0.04156    0.04620   -0.02392
AFIX  43
H4    2    0.401596    0.164060    0.255820    11.00000   -1.20000
AFIX   0
C5    1    0.558963    0.188762    0.245355    11.00000    0.07076    0.01612 =
         0.02940   -0.00939   -0.00545    0.01968
AFIX  43
H5    2    0.585792    0.158416    0.284823    11.00000   -1.20000
AFIX   0
C6    1    0.050076    0.986387    0.262462    11.00000    0.01809    0.02385 =
         0.03678    0.00190   -0.00635   -0.00185
AFIX  43
H6    2    0.014658    0.931388    0.275503    11.00000   -1.20000
AFIX   0
C7    1   -0.008419    1.080457    0.256052    11.00000    0.02621    0.03616 =
         0.07583    0.00698   -0.00152    0.00135
AFIX  43
H7    2   -0.082946    1.089535    0.261358    11.00000   -1.20000
AFIX   0
C8    1    0.042081    1.163169    0.241647    11.00000    0.04305    0.03013 =
         0.05515   -0.00235   -0.00973    0.00196
AFIX  43
H8    2    0.002751    1.229574    0.239459    11.00000   -1.20000
AFIX   0
C9    1    0.151440    1.146034    0.230564    11.00000    0.04126    0.03162 =
         0.05205   -0.00200   -0.00855   -0.00726
AFIX  43
H9    2    0.188221    1.200535    0.219573    11.00000   -1.20000
AFIX   0
C10   1    0.205066    1.049589    0.235741    11.00000    0.02100    0.02067 =
         0.03016   -0.00066   -0.00445   -0.00478
AFIX  43
H10   2    0.279701    1.038820    0.228353    11.00000   -1.20000
AFIX   0
C11   1    0.248238    0.471909    0.140173    11.00000    0.02990    0.02858 =
         0.02552    0.00026   -0.00801   -0.00804
AFIX  23
H11A  2    0.318441    0.466769    0.112781    11.00000   -1.20000
H11B  2    0.226852    0.540713    0.156998    11.00000   -1.20000
AFIX   0
C12   1    0.168614    0.449661    0.098117    11.00000    0.04363    0.04257 =
         0.03473    0.00083   -0.02048   -0.00978
AFIX 137
H12A  2    0.160581    0.500989    0.061351    11.00000   -1.50000
H12B  2    0.100738    0.450417    0.126622    11.00000   -1.50000
H12C  2    0.193176    0.383232    0.079256    11.00000   -1.50000
AFIX   0
C13   1    0.146133    0.375416    0.334914    11.00000    0.01646    0.02886 =
         0.04444    0.00168    0.00675   -0.00361
AFIX  23
H13A  2    0.104860    0.374796    0.297531    11.00000   -1.20000
H13B  2    0.136139    0.445494    0.349075    11.00000   -1.20000
AFIX   0
C14   1    0.108991    0.309312    0.392758    11.00000    0.02573    0.06619 =
         0.03794    0.01335    0.00789   -0.01797
AFIX 137
H14A  2    0.129060    0.238775    0.380695    11.00000   -1.50000
H14B  2    0.032331    0.326537    0.403355    11.00000   -1.50000
H14C  2    0.141198    0.319227    0.432200    11.00000   -1.50000
AFIX   0
C15   1    0.382328    0.293658    0.449857    11.00000    0.02475    0.02174 =
         0.02002   -0.00425    0.00284   -0.00397
AFIX  23
H15A  2    0.322698    0.346697    0.439885    11.00000   -1.20000
H15B  2    0.417282    0.317582    0.484422    11.00000   -1.20000
AFIX   0
C16   1    0.344357    0.198327    0.474469    11.00000    0.03270    0.02651 =
         0.02784   -0.00217    0.00661   -0.00727
AFIX 137
H16A  2    0.316929    0.171638    0.438061    11.00000   -1.50000
H16B  2    0.288450    0.211920    0.512752    11.00000   -1.50000
H16C  2    0.402778    0.148881    0.488742    11.00000   -1.50000
AFIX   0
C17   1    0.651947    0.350782    0.409236    11.00000    0.02731    0.01979 =
         0.03194    0.00466   -0.00893   -0.00460
AFIX  23
H17A  2    0.613140    0.312977    0.445426    11.00000   -1.20000
H17B  2    0.636265    0.422834    0.419712    11.00000   -1.20000
AFIX   0
C18   1    0.767400    0.311858    0.404709    11.00000    0.02377    0.03290 =
         0.03529    0.00351   -0.00946   -0.00935
AFIX 137
H18A  2    0.805411    0.353578    0.371562    11.00000   -1.50000
H18B  2    0.782710    0.242175    0.390707    11.00000   -1.50000
H18C  2    0.789785    0.314299    0.448890    11.00000   -1.50000
AFIX   0
C19   1    0.711896    0.506775    0.242973    11.00000    0.02318    0.02051 =
         0.02894   -0.00201   -0.00029   -0.00734
AFIX  23
H19A  2    0.676926    0.498492    0.289790    11.00000   -1.20000
H19B  2    0.709291    0.579524    0.231698    11.00000   -1.20000
AFIX   0
C20   1    0.824730    0.452045    0.236177    11.00000    0.01720    0.03930 =
         0.03778    0.00056   -0.00583   -0.00604
AFIX 137
H20A  2    0.857687    0.458759    0.189297    11.00000   -1.50000
H20B  2    0.826345    0.380649    0.249163    11.00000   -1.50000
H20C  2    0.863234    0.481283    0.265670    11.00000   -1.50000
AFIX   0
C21   1    0.528842    0.603024    0.101724    11.00000    0.03526    0.01842 =
         0.03166    0.00191    0.00370   -0.00334
AFIX  23
H21A  2    0.581958    0.625782    0.124339    11.00000   -1.20000
H21B  2    0.462234    0.651821    0.110153    11.00000   -1.20000
AFIX   0
C22   1    0.565276    0.599407    0.027615    11.00000    0.04431    0.03055 =
         0.02884    0.00007   -0.00330   -0.01202
AFIX 137
H22A  2    0.510518    0.581287    0.004983    11.00000   -1.50000
H22B  2    0.629592    0.548989    0.019299    11.00000   -1.50000
H22C  2    0.579613    0.665572    0.009959    11.00000   -1.50000
AFIX   0
C31   1    0.426640    0.857795    0.161308    11.00000    0.01268    0.01521 =
         0.02275   -0.00239    0.00360   -0.00361
C32   1    0.459796    0.854195    0.090103    11.00000    0.01804    0.01707 =
         0.02116    0.00160    0.00417   -0.00697
AFIX  43
H32   2    0.526018    0.864936    0.067051    11.00000   -1.20000
AFIX   0
C33   1    0.380385    0.832910    0.061898    11.00000    0.02264    0.01620 =
         0.01752    0.00605    0.00102   -0.00684
AFIX  43
H33   2    0.378620    0.828372    0.015117    11.00000   -1.20000
AFIX   0
C34   1    0.297560    0.818114    0.116541    11.00000    0.02170    0.01495 =
         0.01688    0.00384   -0.00475   -0.00307
C35   1    0.206832    0.784955    0.108094    11.00000    0.01795    0.01418 =
         0.01891   -0.00048    0.00094   -0.00223
C36   1    0.136236    0.754967    0.161434    11.00000    0.01372    0.01761 =
         0.01886   -0.00200    0.00033   -0.00365
C37   1    0.054650    0.700783    0.154011    11.00000    0.01892    0.02320 =
         0.02117   -0.00492   -0.00640   -0.00612
AFIX  43
H37   2    0.035641    0.684787    0.112792    11.00000   -1.20000
AFIX   0
C38   1    0.010029    0.676848    0.216716    11.00000    0.01459    0.02384 =
         0.02024   -0.00334   -0.00236   -0.00657
AFIX  43
H38   2   -0.044489    0.638488    0.227825    11.00000   -1.20000
AFIX   0
C39   1    0.059863    0.719830    0.263473    11.00000    0.01289    0.01289 =
         0.02076   -0.00114    0.00214   -0.00229
C40   1    0.027833    0.721958    0.332628    11.00000    0.01120    0.01696 =
         0.02048   -0.00219   -0.00146   -0.00344
C41   1    0.070951    0.773678    0.375501    11.00000    0.01314    0.01458 =
         0.01773    0.00015   -0.00284   -0.00094
C42   1    0.031247    0.784975    0.445792    11.00000    0.01213    0.01873 =
         0.01721   -0.00168   -0.00167   -0.00198
AFIX  43
H42   2   -0.026585    0.758808    0.470256    11.00000   -1.20000
AFIX   0
C43   1    0.092115    0.840044    0.470369    11.00000    0.01213    0.02048 =
         0.01490   -0.00189   -0.00418    0.00015
AFIX  43
H43   2    0.084096    0.860530    0.515388    11.00000   -1.20000
AFIX   0
C44   1    0.170495    0.861909    0.416699    11.00000    0.01130    0.01366 =
         0.01675   -0.00515   -0.00034    0.00174
C45   1    0.254526    0.908731    0.422396    11.00000    0.01402    0.01102 =
         0.02122    0.00032   -0.00260   -0.00041
C46   1    0.337284    0.917936    0.371382    11.00000    0.01605    0.01074 =
         0.02038   -0.00177   -0.00185    0.00035
C47   1    0.428511    0.958266    0.379093    11.00000    0.01624    0.02087 =
         0.02024   -0.00398   -0.00080   -0.00398
AFIX  43
H47   2    0.440093    0.987945    0.418091    11.00000   -1.20000
AFIX   0
C48   1    0.494427    0.946321    0.321061    11.00000    0.01536    0.01796 =
         0.02623   -0.00199   -0.00282   -0.00507
AFIX  43
H48   2    0.562322    0.963851    0.311958    11.00000   -1.20000
AFIX   0
C49   1    0.443475    0.902128    0.275173    11.00000    0.01205    0.01161 =
         0.02152   -0.00078   -0.00175   -0.00292
C50   1    0.483720    0.887128    0.207582    11.00000    0.01480    0.00959 =
         0.02592   -0.00018   -0.00064   -0.00282
C51   1    0.591653    0.908806    0.183337    11.00000    0.01488    0.01606 =
         0.02091   -0.00537    0.00055   -0.00401
C52   1    0.679056    0.849848    0.207600    11.00000    0.01998    0.02675 =
         0.02611    0.00486   -0.00121   -0.00229
AFIX  43
H52   2    0.670159    0.794823    0.238741    11.00000   -1.20000
AFIX   0
C53   1    0.778686    0.871240    0.186462    11.00000    0.01645    0.03981 =
         0.03686    0.00308   -0.00312    0.00160
AFIX  43
H53   2    0.837702    0.830588    0.203130    11.00000   -1.20000
AFIX   0
C54   1    0.793056    0.951733    0.141040    11.00000    0.01311    0.03942 =
         0.03625   -0.00229    0.00384   -0.01148
AFIX  43
H54   2    0.861474    0.966452    0.127091    11.00000   -1.20000
AFIX   0
C55   1    0.706500    1.010638    0.116127    11.00000    0.02236    0.02613 =
         0.02584    0.00029    0.00321   -0.01046
AFIX  43
H55   2    0.715877    1.065238    0.084709    11.00000   -1.20000
AFIX   0
C56   1    0.606345    0.989420    0.137305    11.00000    0.01807    0.01623 =
         0.02194   -0.00088   -0.00266   -0.00324
AFIX  43
H56   2    0.547458    1.029936    0.120407    11.00000   -1.20000
AFIX   0
C61   1    0.183812    0.773037    0.038209    11.00000    0.01893    0.02540 =
         0.02079    0.00140   -0.00020   -0.01165
C62   1    0.232058    0.689330    0.002665    11.00000    0.02832    0.03113 =
         0.02207   -0.00389    0.00078   -0.00938
AFIX  43
H62   2    0.283852    0.640787    0.021183    11.00000   -1.20000
AFIX   0
C63   1    0.205162    0.675444   -0.060574    11.00000    0.03773    0.04358 =
         0.02298   -0.01343    0.00239   -0.01355
AFIX  43
H63   2    0.237927    0.617197   -0.084475    11.00000   -1.20000
AFIX   0
C64   1    0.130908    0.746639   -0.088070    11.00000    0.03312    0.06538 =
         0.01826   -0.00136   -0.00332   -0.02797
AFIX  43
H64   2    0.112367    0.737136   -0.130801    11.00000   -1.20000
AFIX   0
C65   1    0.083549    0.831723   -0.053445    11.00000    0.02926    0.04843 =
         0.02595    0.00932   -0.00730   -0.01785
AFIX  43
H65   2    0.033463    0.881253   -0.072719    11.00000   -1.20000
AFIX   0
C66   1    0.109559    0.844643    0.009957    11.00000    0.02631    0.03228 =
         0.02547    0.00031   -0.00443   -0.01192
AFIX  43
H66   2    0.076338    0.902689    0.033937    11.00000   -1.20000
AFIX   0
C71   1   -0.060134    0.669408    0.362829    11.00000    0.01729    0.01827 =
         0.01788   -0.00509   -0.00208   -0.00756
C72   1   -0.041775    0.588449    0.408828    11.00000    0.02075    0.02625 =
         0.02375   -0.00196   -0.00029   -0.00949
AFIX  43
H72   2    0.027211    0.565545    0.419688    11.00000   -1.20000
AFIX   0
C73   1   -0.123463    0.540600    0.439138    11.00000    0.03327    0.02740 =
         0.02343   -0.00603    0.00824   -0.01461
AFIX  43
H73   2   -0.110122    0.485421    0.470564    11.00000   -1.20000
AFIX   0
C74   1   -0.224384    0.573576    0.423407    11.00000    0.02562    0.03458 =
         0.03068   -0.01302    0.00812   -0.01847
AFIX  43
H74   2   -0.280149    0.541037    0.444179    11.00000   -1.20000
AFIX   0
C75   1   -0.244086    0.654433    0.377139    11.00000    0.01595    0.03925 =
         0.03099   -0.01636    0.00192   -0.01198
AFIX  43
H75   2   -0.313080    0.676731    0.366144    11.00000   -1.20000
AFIX   0
C76   1   -0.162518    0.702181    0.347229    11.00000    0.01482    0.02834 =
         0.02175   -0.00713    0.00076   -0.00633
AFIX  43
H76   2   -0.176071    0.757501    0.315940    11.00000   -1.20000
AFIX   0
C81   1    0.260500    0.941761    0.490820    11.00000    0.01683    0.01508 =
         0.01838   -0.00041   -0.00242   -0.00524
C82   1    0.345506    0.900750    0.524361    11.00000    0.01446    0.01511 =
         0.02208    0.00096    0.00221   -0.00302
AFIX  43
H82   2    0.401023    0.853050    0.502765    11.00000   -1.20000
AFIX   0
C83   1    0.350475    0.928362    0.588740    11.00000    0.02145    0.01934 =
         0.03146    0.00159   -0.01012   -0.00262
AFIX  43
H83   2    0.409432    0.900229    0.610717    11.00000   -1.20000
AFIX   0
C84   1    0.268963    0.997398    0.621212    11.00000    0.02186    0.02481 =
         0.02052   -0.00673   -0.00297   -0.00535
AFIX  43
H84   2    0.271692    1.015752    0.665585    11.00000   -1.20000
AFIX   0
C85   1    0.183887    1.039170    0.588485    11.00000    0.02086    0.02160 =
         0.02338   -0.00446   -0.00027   -0.00412
AFIX  43
H85   2    0.128096    1.086068    0.610596    11.00000   -1.20000
AFIX   0
C86   1    0.179793    1.012868    0.523664    11.00000    0.01273    0.02012 =
         0.02239    0.00095   -0.00137   -0.00128
AFIX  43
H86   2    0.121976    1.043128    0.501223    11.00000   -1.20000
AFIX   0

C1S   1    0.687804    0.903451   -0.059382    11.00000    0.05115    0.04188 =
         0.04440    0.00501   -0.00789    0.00086
AFIX 137
H1SA  2    0.703472    0.954324   -0.094811    11.00000   -1.50000
H1SB  2    0.642552    0.936418   -0.020891    11.00000   -1.50000
H1SC  2    0.651701    0.855867   -0.076945    11.00000   -1.50000
AFIX   0
C2S   1    0.787358    0.848500   -0.037401    11.00000    0.04807    0.03711 =
         0.02726    0.00374   -0.00258   -0.01375
AFIX  23
H2SA  2    0.836630    0.821524   -0.076978    11.00000   -1.20000
H2SB  2    0.820818    0.894963   -0.015624    11.00000   -1.20000
AFIX   0
O3S   7    0.765086    0.768015    0.009038    11.00000    0.03607    0.03612 =
         0.04151    0.00723   -0.01162   -0.01483
C4S   1    0.856639    0.716614    0.034883    11.00000    0.03999    0.04091 =
         0.04233    0.00879   -0.01473   -0.01760
AFIX  23
H4SA  2    0.887784    0.764237    0.057262    11.00000   -1.20000
H4SB  2    0.909377    0.686988   -0.002342    11.00000   -1.20000
AFIX   0
C5S   1    0.827079    0.635302    0.084486    11.00000    0.04924    0.05055 =
         0.03937    0.01353   -0.01637   -0.02747
AFIX 137
H5SA  2    0.805573    0.583521    0.060794    11.00000   -1.50000
H5SB  2    0.768686    0.664006    0.118050    11.00000   -1.50000
H5SC  2    0.887612    0.605113    0.107110    11.00000   -1.50000
AFIX   0
HKLF 4

REM  wai178CuLT solution in P-1
REM R1 =  0.0456 for    9860 Fo > 4sig(Fo)  and  0.0603 for all   12128 data
REM    855 parameters refined using     30 restraints

END

WGHT      0.0521      0.0000

REM Highest difference peak  1.033,  deepest hole -0.704,  1-sigma level  0.098
Q1    1   0.1789  1.1196  0.2973  11.00000  0.05    1.03
Q2    1   0.3393  0.5864  0.4485  11.00000  0.05    0.94
Q3    1   0.3620  0.6116  0.2791  11.00000  0.05    0.86
Q4    1   0.3789  0.5866  0.3747  11.00000  0.05    0.74
Q5    1   0.4030  0.6077  0.2010  11.00000  0.05    0.70
Q6    1   0.5275  0.5193  0.4869  11.00000  0.05    0.62
Q7    1  -0.0120  1.0419  0.2125  11.00000  0.05    0.61
Q8    1   0.3437  0.6796  0.3209  11.00000  0.05    0.59
Q9    1   0.3868  0.6245  0.4149  11.00000  0.05    0.59
Q10   1   0.2824  0.6333  0.4111  11.00000  0.05    0.57
Q11   1   0.2289  0.8458  0.3136  11.00000  0.05    0.53
Q12   1   0.7231  0.3801  0.4967  11.00000  0.05    0.51
Q13   1   0.4849  0.7013  0.3377  11.00000  0.05    0.51
Q14   1   0.4031  0.5297  0.3282  11.00000  0.05    0.50
Q15   1   0.4600  0.5652  0.1414  11.00000  0.05    0.50
Q16   1   0.2018  0.8252  0.3946  11.00000  0.05    0.48
Q17   1   0.5325  0.3832  0.2271  11.00000  0.05    0.48
Q18   1   0.4450  0.3167  0.3582  11.00000  0.05    0.48
Q19   1   0.4925  0.1842  0.2518  11.00000  0.05    0.47
Q20   1   0.4402  0.2278  0.2014  11.00000  0.05    0.47
Q21   1   0.4818  0.3365  0.2856  11.00000  0.05    0.47
Q22   1   0.4750  0.4617  0.3154  11.00000  0.05    0.46
Q23   1   0.4816  0.3461  0.1832  11.00000  0.05    0.46
Q24   1   0.6513  0.3354  0.5223  11.00000  0.05    0.44
Q25   1   0.3998  0.5032  0.4116  11.00000  0.05    0.43
;
_shelx_res_checksum              53279
_shelx_hkl_file
;
   0   0   2 344845. 4319.91  12
   0   0   2 359138. 3759.79  13
   0   0   3 54394.6 2067.37  12
   0   0   3 53934.3 1756.16  13
   0   0   4 845.119 373.283  12
   0   0   4 640.684 308.999  13
   0   0   5 52351.1 2173.00  13
   0   0   5 56664.1 2684.80  12
   0   0   6 48001.9 2785.24   2
   0   0   6 46076.2 2165.87  13
   0   0   6 45213.0 2623.73  12
   0   0   7 11850.1 1508.79   2
   0   0   7 11587.3 1442.19  12
   0   0   7 10968.2 1149.73  13
   0   0   8 33969.0 2065.26  13
   0   0   8 33952.3 2714.64   2
   0   0   9 20372.3 1673.94  13
   0   0   9 22602.9 2298.10   2
   0   0  10 6228.62 984.615  13
   0   0  10 6631.72 1317.17   2
   0   0  11 17448.9 1696.32  13
   0   0  11 18584.8 2291.66   2
   0   0  12 42969.1 3685.40   2
   0   0  13 2546.66 1027.84   2
   0   0  14 19178.0 2681.62   2
   0   0  15 19329.1 1211.20   7
   0   0  15 20601.2 2872.42   2
   0   0  16 3527.70 1478.02   2
   0   0  16 3661.39 609.466   7
   0   0  17 13665.9 1116.46   7
   0   0  18 402.535 365.453   7
   0   0 -18 396.975 375.100   5
   0   0 -19 12285.9 1326.50   5
   0   0  19 12152.0 1077.25   7
   0   0 -20 8796.79 1124.12   5
   0   0  20 9591.36 942.718   7
   0   0  21 11906.3 969.626   7
   0   0 -21 11725.0 1267.03   5
   0   0 -22 509.968 351.747   5
   0   0  22 683.368 313.246   7
   0   0 -23 7448.90 795.493   5
   0   0 -23 7188.00 708.294   6
   0   0 -24 2147.20 336.727   6
   0   0 -24 2082.01 399.412   5
   0   1 -24 2422.91 429.951   5
   0   1 -24 1922.19 308.671   6
   0   1 -23 5234.60 594.157   6
   0   1 -23 4994.26 676.567   5
   0  -1  22 78.4247 194.835   4
   0   1 -22 83.7298 276.203   5
   0  -1  22 96.8608 259.037   7
   0  -1  21 2245.13 485.998   7
   0   1 -21 1771.85 583.824   5
   0  -1  20 7557.75 847.281   7
   0   1 -20 7447.31 1105.21   5
   0  -1  19 13844.0 1160.90   7
   0   1 -19 13048.3 1407.34   5
   0  -1  18 17550.2 1281.63   7
   0   1 -18 16543.8 1588.34   5
   0   1 -17 9781.96 1206.55   5
   0  -1  17 11156.6 1017.04   7
   0  -1  16 7130.40 1965.58   2
   0  -1  16 7370.85 832.872   7
   0  -1  15 5780.73 1599.26   2
   0  -1  15 7232.34 792.114   7
   0  -1  14 4556.48 1340.95   2
   0  -1  13 1718.04 966.452   2
   0  -1  12 78241.8 4910.54   2
   0  -1  11 1809.77 861.408   2
   0  -1  10 2825.67 995.515   2
   0  -1  10 2448.75 552.427  13
   0  -1   9 68121.9 2680.02  13
   0  -1   9 69868.9 4075.93   2
   0  -1   8 1033.56 383.437  13
   0  -1   8 1480.80 717.057   2
   0  -1   7 1145.46 344.137  13
   0  -1   7 953.018 574.536   2
   0  -1   6 4480.38 1009.12   2
   0  -1   6 4863.30 911.888  12
   0  -1   6 3825.07 555.626  13
   0  -1   5 3706.41 696.777  12
   0  -1   5 5046.06 944.380   2
   0  -1   5 4199.26 513.840  13
   0  -1   4 589.698 428.467   2
   0  -1   4 574.213 206.435  13
   0  -1   4 458.550 332.403  12
   0  -1   3 127082. 1811.67  13
   0  -1   3 131626. 3460.93   2
   0  -1   2 144349. 2806.61  12
   0  -1   2 139964. 2955.58   2
   0   1   1 123821. 1338.97  12
   0   1   2 9744.43 625.867  12
   0   1   2 7547.88 731.053  13
   0   1   3 7978.89 753.175  12
   0   1   3 7878.10 862.739  13
   0   1   4 91605.6 2918.35  12
   0   1   4 96070.7 3148.25  13
   0   1   5 47184.1 2398.78  12
   0   1   5 51197.8 2516.20  13
   0   1   6 17009.7 1529.12  13
   0   1   6 16647.3 1601.44  12
   0   1   7 25805.6 1912.54  13
   0   1   7 24342.8 2092.57   2
   0   1   7 24763.8 2035.05  12
   0   1   8 90628.8 4063.77  12
   0   1   8 91204.3 4140.49   2
   0   1   8 88277.8 3664.04  13
   0   1   9 121016. 4481.51  13
   0   1   9 126368. 5172.69   2
   0   1  10 892.913 570.324   2
   0   1  10 376.144 426.443  13
   0   1  11 40144.2 3244.11   2
   0   1  11 38973.2 2739.63  13
   0   1  12 2432.60 924.636   2
   0   1  12 2404.39 753.207  13
   0   1  13 1554.86 712.569  13
   0   1  13 1434.52 854.304   2
   0   1  14 1476.34 745.561   2
   0   1  15 1798.00 480.277   7
   0   1  15 1630.62 868.310   2
   0   1  16 2414.05 527.143   7
   0   1  16 3666.56 1254.52   2
   0   1  17 8220.58 1958.19   2
   0   1  17 8869.67 899.566   7
   0   1  18 25566.4 1501.88   7
   0  -1 -18 26833.1 1857.72   5
   0   1  19 17002.7 1238.68   7
   0  -1 -19 18762.9 1574.69   5
   0  -1 -20 13131.4 1277.16   5
   0   1  20 12960.2 1040.71   7
   0   1  21 27907.4 1440.65   7
   0  -1 -21 29973.9 1843.32   5
   0   1  22 1378.15 365.235   7
   0  -1 -22 1746.42 455.440   6
   0  -1 -22 1476.73 449.908   5
   0  -1 -23 6548.67 731.347   5
   0  -1 -23 6439.81 690.299   6
   0   1  23 4787.49 534.683   7
   0  -1 -24 4573.25 492.079   6
   0  -1 -24 4363.82 541.803   5
   0   2 -24-152.505 155.713   5
   0   2 -23 7758.80 671.084   6
   0   2 -23 8646.52 835.520   5
   0  -2  22 3927.17 550.176   4
   0   2 -22 4955.31 777.627   5
   0  -2  21 4245.97 612.276   7
   0   2 -21 4555.56 813.520   5
   0  -2  20 2899.44 563.629   7
   0   2 -20 2470.21 655.934   5
   0   2 -19 16871.2 1573.41   5
   0  -2  19 16781.8 1263.53   7
   0   2 -18 37292.4 2315.85   5
   0  -2  18 38728.4 1901.81   7
   0   2 -17 3535.52 794.663   5
   0  -2  17 3791.93 624.130   7
   0  -2  16 7109.97 824.907   7
   0  -2  16 5337.51 1642.15   2
   0   2 -16 6767.68 1002.07   5
   0  -2  15 442.715 411.775   7
   0  -2  15 1015.97 705.650   2
   0  -2  14 4762.53 1417.51   2
   0  -2  13 3075.65 1163.27   2
   0  -2  12 15872.4 2353.43   2
   0  -2  11 14601.6 2143.56   2
   0  -2  10 56029.5 3944.51   2
   0  -2   9 1356.80 647.626   2
   0  -2   8 1792.54 821.663   2
   0  -2   7 7688.17 573.729  13
   0  -2   7 13123.0 1680.61   2
   0  -2   6 4095.48 348.238  13
   0  -2   6 5944.24 1053.94   2
   0  -2   5 9743.04 1286.08   2
   0  -2   4 14394.6 1396.39   2
   0  -2   3 3702.80 642.064   2
   0  -2   2 68775.4 2109.45   2
   0   2  -1 185657. 2226.95  13
   0  -2   1 183789. 2614.15   2
   0  -2   0 15467.9 572.521   2
   0   2   0 14580.7 874.092  13
   0   2   1 30990.3 697.860  12
   0   2   1 33493.7 1571.89  13
   0   2   2 1402.11 232.196  12
   0   2   2 1018.38 326.380  13
   0   2   3 145436. 2904.39  12
   0   2   3 134356. 3954.23  13
   0   2   4 33391.0 1716.70  12
   0   2   4 39413.6 2310.90  13
   0   2   5 10727.0 1136.85  12
   0   2   5 11625.6 1366.38  13
   0   2   6 1785.27 720.883  13
   0   2   6 1566.44 505.844  12
   0   2   7 1316.90 538.861   2
   0   2   7 1887.80 664.118  13
   0   2   7 1681.48 589.853  12
   0   2   8 3281.25 859.585  13
   0   2   8 3071.75 818.146  12
   0   2   8 3304.46 836.535   2
   0   2   9 19341.9 2040.35  13
   0   2   9 18943.2 2008.89   2
   0   2  10 11599.2 1626.76  13
   0   2  10 11468.5 1708.21   2
   0   2  11 12786.6 1721.86  13
   0   2  11 14500.3 1957.82   2
   0   2  12 24834.6 2451.85  13
   0   2  12 26515.7 2729.40   2
   0   2  13 30552.4 2833.21  13
   0   2  13 33982.2 3228.16   2
   0   2  14 1009.76 679.008   2
   0   2  14 1196.57 653.594  13
   0   2  15 10661.2 1999.98   2
   0   2  15 10017.5 871.292   7
   0   2  16 6370.07 1643.93   2
   0   2  16 7170.58 804.922   7
   0   2  17 3221.78 621.936   7
   0   2  18 626.181 370.652   7
   0  -2 -18 577.426 473.297   5
   0  -2 -19 660.283 436.105   5
   0   2  19 553.142 304.943   7
   0   2  20 313.654 344.709   7
   0  -2 -20 253.184 326.399   5
   0   2  21 7217.43 728.205   7
   0  -2 -21 7399.66 975.199   5
   0  -2 -22 6945.04 844.003   5
   0  -2 -22 6571.45 789.410   6
   0   2  22 5698.24 600.551   7
   0  -2 -23 228.343 240.033   6
   0   2  23-84.5905 183.956   7
   0  -2 -23-119.528 223.995   5
   0  -2 -24 9565.54 701.247   6
   0  -2 -24 9494.85 676.595   5
   0   3 -24 5180.78 461.275   5
   0  -3  23 869.587 219.557   4
   0   3 -23 1199.78 334.687   5
   0   3 -23 1606.19 294.214   6
   0   3 -22 15644.0 1166.06   5
   0  -3  22 11826.1 926.922   4
   0   3 -21 40766.8 2017.37   5
   0  -3  21 35435.0 1771.66   4
   0   3 -20 589.235 401.192   5
   0  -3  20 80.4649 341.682   7
   0   3 -19 29604.3 2010.40   5
   0  -3  19 30430.8 1704.74   7
   0   3 -18 12150.8 1341.81   5
   0  -3  18 12446.4 1104.94   7
   0  -3  17 1569.93 439.623   7
   0   3 -17 1905.18 581.740   5
   0  -3  16 1490.52 745.392   2
   0   3 -16 1512.89 572.101   5
   0  -3  16 984.652 352.154   7
   0  -3  15 435.248 764.007   2
   0   3 -15 570.919 404.851   5
   0  -3  15 74.6534 317.329   7
   0  -3  14 5565.93 1552.71   2
   0   3 -14 8340.39 1023.45   5
   0  -3  14 8238.08 885.562   7
   0  -3  13 1142.43 893.107   2
   0  -3  12 52755.5 4311.29   2
   0  -3  11 18340.5 2440.43   2
   0  -3  10 29743.4 2963.25   2
   0  -3   9 122774. 5713.32   2
   0  -3   8 1174.03 680.090   2
   0  -3   7 28598.8 2500.85   2
   0  -3   6 31901.5 2464.32   2
   0  -3   5 17674.4 1676.98   2
   0  -3   4 75034.2 3125.64   2
   0  -3   3 16387.1 1273.79   2
   0  -3   2 70068.3 2180.98   2
   0   3  -2 68028.8 1401.24  13
   0   3  -1 211824. 3128.11  13
   0  -3   1 214677. 3151.63   2
   0  -3   0 6085.18 438.697   2
   0   3   0 6502.51 731.941  13
   0   3   1 35665.3 839.722  12
   0   3   1 42696.7 2019.60  13
   0   3   2 35304.6 2092.02  13
   0   3   2 40221.9 1090.46  12
   0   3   3 354705. 4351.12  12
   0   3   3 309366. 6588.03  13
   0   3   4 139187. 3381.32  12
   0   3   4 166477. 5218.12  13
   0   3   5 6900.47 892.923  12
   0   3   5 7678.69 1220.50  13
   0   3   6 2334.78 685.320  12
   0   3   6 2525.56 1013.98  13
   0   3   7 1303.68 828.027  13
   0   3   7 1303.37 610.630  12
   0   3   7 1174.74 649.639   2
   0   3   8 26159.5 2212.52  12
   0   3   8 26778.6 2489.37  13
   0   3   8 27297.4 2212.22   2
   0   3   9 20562.3 2067.03   2
   0   3   9 19515.0 2147.03  13
   0   3  10 17477.4 1953.42   2
   0   3  10 16764.1 2092.78  13
   0   3  11 66492.7 4134.26  13
   0   3  11 67603.5 4056.74   2
   0   3  12 620.983 477.914   2
   0   3  12 310.397 456.476  13
   0   3  13 82538.6 4946.19   2
   0   3  13 79311.5 4850.17  13
   0   3  14 7940.57 1626.32   2
   0   3  14 8597.11 1676.39  13
   0   3  15 4556.53 604.391   7
   0   3  15 4460.50 1305.42  13
   0   3  15 5587.56 1444.23   2
   0   3  16 4682.93 1205.51   7
   0   3  17 3686.21 640.173   7
   0   3  18 1118.69 392.600   7
   0  -3 -18 1095.04 465.919   5
   0  -3 -19 611.152 444.824   5
   0   3  19 208.590 337.419   7
   0  -3 -20 1272.93 574.977   6
   0   3  20 1011.13 389.039   7
   0  -3 -20 1031.67 441.424   5
   0  -3 -21 1824.29 488.346   5
   0   3  21 1447.63 362.953   7
   0  -3 -21 1615.40 494.539   6
   0  -3 -22 3022.80 582.083   6
   0  -3 -22 2473.87 499.052   5
   0  -3 -23 322.247 208.113   5
   0  -3 -23 552.372 247.828   6
   0  -3 -24 212.816 166.526   6
   0  -3 -24 71.4822 118.649   5
   0  -4  23 7189.79 541.444   4
   0   4 -23 10976.7 757.440   5
   0   4 -22 627.568 295.440   5
   0  -4  22 48.7038 197.070   4
   0   4 -21 13978.6 1132.41   5
   0  -4  21 12853.1 1075.58   4
   0   4 -20 12030.2 1148.53   5
   0  -4  20 10729.3 1080.55   4
   0  -4  19 3738.80 637.355   7
   0   4 -19 3065.28 681.132   5
   0  -4  18 1246.91 441.747   7
   0   4 -18 824.650 443.696   5
   0   4 -17 6008.78 958.666   5
   0  -4  17 5800.91 789.337   7
   0   4 -16 351.667 419.012   5
   0  -4  16-484.702 499.719   7
   0   4 -15 1243.37 499.329   5
   0  -4  15 1474.72 370.914   7
   0  -4  15 1707.54 966.995   2
   0   4 -14 2338.07 606.065   5
   0  -4  14 2021.06 433.316   7
   0  -4  14 2002.37 1018.42   2
   0  -4  13 35102.5 3798.28   2
   0  -4  12 54927.1 4525.03   2
   0  -4  11 5429.17 1503.22   2
   0  -4  10 32144.4 3198.62   2
   0  -4   9 31317.3 3001.41   2
   0  -4   8 49213.8 3538.36   2
   0  -4   7 15316.3 1881.45   2
   0  -4   6 31090.1 2473.52   2
   0  -4   5 42449.2 2639.15   2
   0  -4   4 5480.60 879.250   2
   0  -4   3 41581.6 2047.67   2
   0   4  -3 30403.4 834.020  13
   0  -4   2 5307.64 865.274   3
   0   4  -2 5984.54 519.530  13
   0  -4   2 4665.42 609.041   2
   0  -4   1 88569.7 2254.27   2
   0   4  -1 81435.5 2282.03  13
   0  -4   0 62035.6 1485.70   2
   0   4   0 68386.1 2487.87  13
   0   4   1 2857.35 630.500  13
   0   4   1 1567.49 181.042  12
   0   4   2 50795.2 1207.90  12
   0  -4  -2 51744.4 2488.36   3
   0   4   2 54334.0 2765.71  13
   0   4   3 158206. 5148.29  13
   0   4   3 163827. 2934.15  12
   0   4   4 13535.4 1631.29  13
   0   4   4 13631.2 1051.45  12
   0   4   5 14781.1 1789.91  13
   0   4   5 14237.1 1237.72  12
   0   4   6 27947.4 1787.87   2
   0   4   6 27777.9 1913.13  12
   0   4   6 26751.0 2501.83  13
   0   4   7 5949.45 940.060   2
   0   4   7 5697.11 1290.35  13
   0   4   7 5764.60 979.035  12
   0   4   8 53938.6 3048.86  12
   0   4   8 57194.4 3770.36  13
   0   4   8 52771.4 2959.22   2
   0   4   9 2437.80 759.042   2
   0   4   9 2729.30 881.035  13
   0   4  10 36058.8 2699.16   2
   0   4  10 36676.3 3228.49  13
   0   4  11 87050.4 4445.19   2
   0   4  11 88233.7 5028.94  13
   0   4  12 48952.1 3925.40  13
   0   4  13 8941.68 1842.72  13
   0   4  14 25032.4 3034.78  13
   0   4  15 920.225 699.661  13
   0   4  16-250.903 290.418   7
   0   4  16-259.677 639.550  13
   0   4  17 4230.51 639.008   7
   0  -4 -18 3425.49 687.119   5
   0   4  18 3527.62 572.264   7
   0  -4 -19 19231.3 1446.81   5
   0  -4 -19 20957.7 1537.53   6
   0   4  19 19001.1 1160.77   7
   0  -4 -20 3162.43 649.113   6
   0  -4 -20 3115.48 606.644   5
   0  -4 -21 2078.23 453.519   5
   0  -4 -21 3272.63 593.829   6
   0  -4 -22 4596.88 597.278   5
   0  -4 -22 4805.25 660.793   6
   0  -4 -23-45.8410 185.251   6
   0  -4 -23 147.375 162.161   5
   0  -4 -24 1568.89 277.828   6
   0   5 -22-101.251 175.824   5
   0  -5  22-2.86038 157.862   4
   0  -5  21-157.051 226.937   4
   0   5 -21 27.7363 200.838   5
   0   5 -20 1051.56 417.842   5
   0  -5  20 509.342 322.661   4
   0  -5  19 6339.03 913.703   4
   0   5 -19 5758.27 854.746   5
   0   5 -18 2488.40 645.110   5
   0  -5  18 3452.83 744.637   4
   0   5 -17 2629.77 662.468   5
   0  -5  17 4379.01 692.170   7
   0  -5  16 17486.7 1329.65   7
   0   5 -16 14481.6 1437.68   5
   0   5 -15 9220.93 1136.45   5
   0  -5  15 9025.53 988.841   7
   0  -5  14 24534.3 1540.68   7
   0  -5  14 23565.4 3301.75   2
   0   5 -14 23649.3 1729.05   5
   0  -5  13 43824.7 2010.24   7
   0   5 -13 47589.4 2353.22   5
   0  -5  13 46743.9 4493.74   2
   0  -5  12 97752.1 6275.88   2
   0  -5  11 18493.4 2667.00   2
   0  -5  10 97263.6 5758.63   2
   0  -5   9 1447.23 789.433   2
   0  -5   8-10.6749 340.121   2
   0  -5   7 1419.60 695.928   2
   0  -5   6 2675.20 803.363   2
   0  -5   5 93794.3 3978.50   2
   0  -5   4 8911.74 1100.43   2
   0  -5   3 39012.2 2663.94   3
   0  -5   3 38763.1 2040.09   2
   0   5  -3 34425.4 1159.61  13
   0  -5   2 32378.2 1662.07   2
   0  -5   2 32804.2 2373.54   3
   0   5  -2 31314.3 1422.53  13
   0  -5   1 4396.87 537.078   2
   0   5  -1 4351.11 600.492  13
   0  -5   1 4402.84 883.528   3
   0   5   0 19354.9 1429.95  13
   0   5   0 14715.5 679.001  12
   0  -5   0 15826.9 757.569   2
   0  -5   0 19213.7 1716.64   3
   0   5   1 691.148 496.664  13
   0  -5  -1 47.3649 272.092   3
   0   5   2 77883.9 3569.94  13
   0  -5  -2 70816.0 3327.92   3
   0   5   3 2750.23 786.115  13
   0  -5  -3 2740.66 719.162   3
   0   5   3 1551.01 246.753  12
   0   5   4 32639.3 1432.00  12
   0   5   4 26415.3 2389.25  13
   0   5   5 1675.06 400.582  12
   0   5   5 1397.33 689.895  13
   0   5   6 9050.95 1560.77  13
   0   5   7 13392.9 1973.13  13
   0   5   8 4643.80 1220.42  13
   0   5   9 69632.3 4512.67  13
   0   5  10 32066.8 3148.12  13
   0   5  11 63747.1 4607.48  13
   0   5  12 9518.65 1873.44  13
   0   5  13 446.081 704.300  13
   0   5  14 25105.5 3200.87  13
   0   5  15 2610.51 1069.68  13
   0  -5 -16 4341.84 823.185   6
   0  -5 -17 9945.83 1016.51   5
   0  -5 -17 10510.0 1193.11   6
   0  -5 -18 7451.51 870.902   5
   0  -5 -18 8423.65 1016.20   6
   0  -5 -19 15829.7 1341.18   6
   0  -5 -19 14251.3 1159.56   5
   0  -5 -20 38199.5 1746.74   5
   0  -5 -20 41051.6 2020.88   6
   0  -5 -21 195.036 300.487   6
   0  -5 -22 6548.40 697.106   6
   0  -5 -23 4354.18 491.045   6
   0  -5 -24 534.959 167.489   6
   0  -6  22 1580.50 281.092   4
   0  -6  21 920.802 282.093   4
   0   6 -21 558.307 237.739   5
   0   6 -20 741.457 317.800   5
   0  -6  20 320.486 269.008   4
   0   6 -19 9149.13 975.496   5
   0  -6  19 10988.6 1116.61   4
   0  -6  18 17301.5 1499.12   4
   0   6 -18 13983.8 1287.42   5
   0  -6  17 6189.98 995.314   4
   0   6 -17 5549.35 813.868   5
   0   6 -16 7430.92 1002.27   5
   0  -6  16 8297.54 1173.15   4
   0  -6  15 2863.27 605.638   7
   0  -6  15 4187.26 878.964   4
   0   6 -15 2823.41 639.888   5
   0   6 -14 5298.96 832.272   5
   0  -6  14 5298.02 770.083   7
   0   6 -13 926.177 397.279   5
   0  -6  13-172.180 737.569   2
   0  -6  13 476.669 376.052   7
   0  -6  12 13606.3 1123.11   7
   0  -6  12 12016.9 2314.42   2
   0  -6  11-282.173 793.500   2
   0  -6  10 6288.60 1472.11   2
   0  -6   9 3984.14 1192.69   2
   0  -6   8 52636.7 3946.98   2
   0  -6   7 4987.28 1163.18   2
   0  -6   6 10112.1 1470.43   2
   0  -6   5 1437.50 532.196   2
   0  -6   4 2786.62 630.618   2
   0  -6   4 2930.54 832.776   3
   0  -6   3 47258.8 2332.91   2
   0  -6   3 50492.0 3358.33   3
   0  -6   2 7863.42 1314.67   3
   0   6  -2 8119.95 838.271  13
   0  -6   2 7715.32 839.487   2
   0  -6   1 586.195 424.483   3
   0   6  -1 394.602 257.101  13
   0  -6   0 23666.6 2176.43   3
   0   6   0 23887.1 1737.10  13
   0  -6  -1 14676.3 1685.30   3
   0   6   1 16048.2 1582.95  13
   0   6   2 14171.8 1633.50  13
   0  -6  -2 11929.4 1573.28   3
   0   6   3 12673.4 1667.45  13
   0  -6  -3 11383.7 1522.26   3
   0   6   4 8994.66 1534.80  13
   0   6   5-214.835 521.578  13
   0   6   6 14457.9 2065.65  13
   0   6   7 25081.6 2771.43  13
   0   6   8 65705.7 4602.95  13
   0   6   9 4541.05 1431.92  13
   0   6  10 2658.21 1147.25  13
   0   6  11 31819.7 3479.69  13
   0   6  12 42590.9 4140.86  13
   0   6  13 1007.46 798.462  13
   0  -6 -13 1072.12 408.347   6
   0  -6 -14 7288.08 1022.96   6
   0   6  14 7496.40 1831.95  13
   0  -6 -15 2599.77 708.713   6
   0  -6 -16 1545.51 530.077   6
   0  -6 -17 12407.6 1263.67   6
   0  -6 -18 1866.95 525.936   6
   0  -6 -19 1130.37 408.376   6
   0  -6 -20 5257.64 728.193   6
   0  -6 -21 6747.50 725.277   6
   0  -6 -22-151.936 193.820   6
   0  -6 -23 14691.1 791.698   6
   0  -7  21 5093.11 519.829   4
   0  -7  20 1155.67 356.920   4
   0  -7  19 5813.17 778.453   4
   0   7 -18 732.024 277.046   5
   0  -7  18 1006.81 414.962   4
   0  -7  17 2361.07 634.634   4
   0   7 -17 1847.66 449.259   5
   0  -7  16 2530.82 710.513   4
   0  -7  15 237.598 396.025   4
   0  -7  14 739.287 514.338   4
   0  -7  13 6264.35 1075.28   4
   0  -7  12 2350.23 1069.09   2
   0  -7  12 4478.72 901.033   4
   0  -7  11 1262.57 447.331   4
   0  -7  11 1359.17 585.133   2
   0  -7  10 81237.7 5625.04   2
   0  -7  10 101278. 3618.64   4
   0  -7   9 30173.1 3215.67   2
   0  -7   8 55370.9 4084.63   2
   0  -7   7 67877.2 4187.57   2
   0  -7   7 69162.2 4979.22   3
   0  -7   6 5810.36 1126.13   2
   0  -7   6 6001.25 1433.44   3
   0  -7   5 1166.78 733.332   3
   0  -7   5 1038.26 489.964   2
   0  -7   4 447.719 458.463   3
   0  -7   3 79.3820 423.647   3
   0  -7   2 302.068 466.919   3
   0  -7   1 14939.7 1929.87   3
   0   7  -1 14504.4 1342.49  13
   0  -7   0 1640.37 691.444   3
   0   7   0 2013.31 611.345  13
   0   7   1 11856.9 1446.70  13
   0  -7  -1 11983.9 1718.31   3
   0  -7  -2 7481.48 1366.41   3
   0   7   2 7233.87 1221.82  13
   0   7   3 530.633 431.232  13
   0  -7  -3 1117.37 605.881   3
   0   7   4 1735.64 637.392  13
   0   7   5-13.4616 548.044  13
   0   7   6 6102.06 1420.93  13
   0   7   7 1830.73 905.272  13
   0   7   8 10152.9 1975.84  13
   0   7   9 18581.8 2668.78  13
   0   7  10 121929. 6938.93  13
   0   7  11 2057.24 973.700  13
   0   7  12 42727.9 4290.76  13
   0  -7 -12 36125.7 2129.50   6
   0  -7 -13 6605.37 961.209   6
   0   7  13 7151.43 1863.45  13
   0  -7 -14 7511.87 1023.43   6
   0  -7 -15 2100.32 649.556   6
   0  -7 -16 3877.92 753.579   6
   0  -7 -17 1283.84 457.141   6
   0  -7 -18 1440.71 435.622   6
   0  -7 -19 3123.20 597.470   6
   0  -7 -20 542.438 276.991   6
   0  -7 -21 3064.17 464.540   6
   0  -7 -22 13331.2 794.153   6
   0  -7 -23 249.240 124.035   6
   0  -8  21 6053.85 476.927   4
   0  -8  20 815.603 245.853   4
   0  -8  19 2512.26 480.238   4
   0  -8  18 553.848 335.084   4
   0  -8  17 1488.51 468.916   4
   0  -8  16 5572.53 919.759   4
   0  -8  15 1212.38 546.771   4
   0  -8  14 19866.6 1743.16   4
   0  -8  13 30000.7 2132.28   4
   0  -8  12 4315.18 908.027   4
   0  -8  11 6240.03 1006.92   4
   0  -8  11 4797.85 1752.88   3
   0  -8  10 17445.8 3065.20   3
   0  -8  10 18259.9 1649.99   4
   0  -8   9 18670.8 3063.97   3
   0  -8   9 22934.8 1824.45   4
   0  -8   8-79.1127 553.031   3
   0  -8   7 30867.4 3544.02   3
   0  -8   6 34382.6 3556.48   3
   0  -8   5 442.251 582.670   3
   0  -8   4 35426.0 3417.20   3
   0  -8   3 196.924 491.453   3
   0  -8   2 19142.8 2401.26   3
   0  -8   1 42808.0 3581.10   3
   0  -8   0 7545.19 1520.41   3
   0  -8  -1 180814. 7265.12   3
   0   8   1 171140. 5836.61  13
   0   8   2 11319.3 1634.82  13
   0  -8  -2 11670.7 1822.23   3
   0  -8  -3 11164.0 1788.16   3
   0   8   3 10199.1 1669.82  13
   0   8   4 95.5421 444.071  13
   0   8   5 10334.3 1905.33  13
   0   8   6 10549.4 1975.19  13
   0   8   7 29010.1 3362.58  13
   0   8   8 70715.3 5325.89  13
   0   8   9 2246.30 1149.38  13
   0   8  10 64467.4 5307.25  13
   0  -8 -10 69836.4 2733.67   6
   0  -8 -10 66113.6 2640.89  11
   0  -8 -11 27575.6 1802.09   6
   0   8  11 27253.8 3545.25  13
   0  -8 -11 26666.5 1645.56  11
   0   8  12 9016.82 2141.90  13
   0  -8 -12 6689.56 968.762   6
   0  -8 -12 7535.13 881.763  11
   0  -8 -13 20558.3 1607.43   6
   0  -8 -14 18918.5 1552.90   6
   0  -8 -15 11316.5 1220.35   6
   0  -8 -16-110.542 314.796   6
   0  -8 -17 1546.38 453.265   6
   0  -8 -18 2233.24 517.203   6
   0  -8 -19 741.158 361.373   6
   0  -8 -20 297.939 216.259   6
   0  -8 -21 2148.22 344.569   6
   0  -8 -22 4086.79 373.547   6
   0  -9  20 536.549 173.416   4
   0  -9  19 123.634 153.044   4
   0  -9  18 4026.60 574.874   4
   0  -9  17 3287.34 658.672   4
   0  -9  16 3548.34 694.109   4
   0  -9  15 13503.2 1346.82   4
   0  -9  14 860.185 440.152   4
   0  -9  13 15362.4 1525.86   4
   0  -9  12 3774.05 768.390   4
   0  -9  11 119.013 454.349   4
   0  -9  10 27185.3 2019.63   4
   0  -9   9 3933.65 1587.09   3
   0  -9   9 4021.91 687.613   1
   0  -9   9 4723.88 887.037   4
   0  -9   8 187.814 716.281   3
   0  -9   8 73.7499 272.364   4
   0  -9   8 666.368 366.278   1
   0  -9   7 759.817 712.801   3
   0  -9   7-531.068 342.097   1
   0  -9   7 197.841 294.544   4
   0  -9   6 103.526 355.393   1
   0  -9   6 948.650 836.482   3
   0  -9   6 786.803 405.921   4
   0  -9   5 583.943 662.562   3
   0  -9   4 6057.93 1467.18   3
   0  -9   3 2968.85 1110.83   3
   0  -9   2 5691.51 1428.32   3
   0  -9   1 36730.1 3617.90   3
   0  -9   0 5820.13 1425.10   3
   0  -9  -1 45647.7 3942.44   3
   0  -9  -2 37287.5 3583.21   3
   0   9   3 4260.63 1197.78  13
   0   9   4 14177.7 2140.77  13
   0   9   5 92791.6 5822.14  13
   0   9   6 4525.12 1351.54  13
   0  -9  -7 37550.9 2116.23  11
   0   9   7 31694.9 3627.52  13
   0  -9  -8 22572.4 1645.30  11
   0   9   8 21700.5 3143.59  13
   0  -9  -8 21434.4 1415.54   6
   0  -9  -9 10372.8 1030.35   6
   0  -9  -9 10722.0 1111.57  11
   0   9   9 10120.9 2090.83  13
   0   9  10 11086.6 2304.07  13
   0  -9 -10 10535.4 1085.31   6
   0  -9 -10 10756.8 1120.42  11
   0  -9 -11 1255.57 462.814  11
   0  -9 -11 1564.43 460.969   6
   0  -9 -12 24277.8 1583.59  11
   0  -9 -12 23214.7 1643.03   6
   0  -9 -13 12871.5 1127.59  11
   0  -9 -13 10193.4 1081.00   6
   0  -9 -14 11569.5 1174.43   6
   0  -9 -15 28069.8 1770.14   6
   0  -9 -16 1488.81 557.696   6
   0  -9 -17 22354.2 1444.41   6
   0  -9 -18 2679.31 493.174   6
   0  -9 -19 14221.1 940.532   6
   0  -9 -20 3148.31 400.894   6
   0  -9 -21 6447.51 471.752   6
   0 -10  19 11532.4 663.006   4
   0 -10  18 1427.18 306.392   4
   0 -10  17 9376.10 852.702   4
   0 -10  16 441.164 375.222   4
   0 -10  15 12761.6 1189.78   4
   0 -10  14 6757.66 976.207   4
   0 -10  13 4884.89 903.231   4
   0 -10  12 7185.02 1054.63   4
   0 -10  11 4919.86 898.492   4
   0 -10  10 3713.68 826.983   4
   0 -10  10 4857.90 690.385   1
   0 -10   9 9083.47 1207.05   4
   0 -10   9 7872.62 870.464   1
   0 -10   8 1575.90 531.560   1
   0 -10   8 1735.60 633.141   4
   0 -10   7 6471.47 958.924   4
   0 -10   7 5885.30 1769.82   3
   0 -10   7 6488.48 842.949   1
   0 -10   6 7359.08 864.551   1
   0 -10   6 8365.75 2027.36   3
   0 -10   6 8406.51 1016.48   4
   0 -10   5 954.463 348.114   1
   0 -10   5 1435.25 469.084   4
   0 -10   5 1568.70 837.014   3
   0 -10   4 12501.9 1122.39   1
   0 -10   4 14292.3 1194.20   4
   0 -10   4 12788.1 2381.01   3
   0 -10   3 1169.39 657.248   3
   0 -10   3 1599.03 480.255   1
   0 -10   3 1462.92 422.048   4
   0 -10   2 144.783 251.960   4
   0 -10   2-251.744 387.262   1
   0 -10   2 138.080 409.269   3
   0 -10   1 14916.7 2427.41   3
   0 -10   1 13599.1 1130.21   1
   0 -10   0 9957.99 976.941  11
   0 -10   0 9698.04 1982.05   3
   0 -10   0 11134.5 1058.33   8
   0 -10   0 9883.69 954.695   1
   0 -10  -1 1425.99 496.177   8
   0 -10  -1 796.767 572.750   3
   0 -10  -1 742.307 358.545   1
   0 -10  -2 11180.2 1080.32  11
   0 -10  -2 9112.44 914.816   1
   0 -10  -2 10062.2 1041.64   8
   0 -10  -3 40071.6 2098.29  11
   0 -10  -3 37011.9 1939.60   8
   0 -10  -3 38024.7 1788.72   1
   0 -10  -4 5600.30 788.377   8
   0 -10  -4 7755.45 858.266   1
   0 -10  -4 6934.05 936.378  11
   0 -10  -5 40351.9 2245.53  11
   0  10   5 46377.9 4207.21  13
   0 -10  -5 40937.0 2015.03   8
   0 -10  -6 13488.2 1300.88  11
   0  10   6 14579.0 2524.21  13
   0 -10  -6 15470.5 1135.80   6
   0 -10  -6 17112.7 1293.11   8
   0 -10  -7 19160.1 1310.74   6
   0 -10  -7 21729.4 1390.85   8
   0 -10  -7 19976.9 1588.88  11
   0  10   8 8508.79 1934.57  13
   0 -10  -8 12292.2 1279.38  11
   0 -10  -8 10287.3 996.992   6
   0 -10  -9 289.722 247.414   6
   0 -10  -9-248.180 394.378  11
   0 -10 -10 9817.30 1021.46   6
   0 -10 -10 9009.75 1067.75  11
   0 -10 -11 878.357 412.197  11
   0 -10 -11 941.214 372.620   6
   0 -10 -12 1980.40 519.144   6
   0 -10 -12 2727.84 587.462  11
   0 -10 -13 8406.91 930.553   6
   0 -10 -13 9744.12 979.213  11
   0 -10 -14 877.748 346.611   6
   0 -10 -14 1370.21 386.043  11
   0 -10 -15 14061.3 1196.38   6
   0 -10 -16 8155.76 868.292   6
   0 -10 -17 4605.60 599.458   6
   0 -10 -18 2405.01 406.439   6
   0 -10 -19 2269.07 347.665   6
   0 -10 -20 5656.85 418.780   6
   0 -11  18 81.4488 89.0335   4
   0 -11  17 3414.00 422.200   4
   0 -11  16-13.3959 185.732   4
   0 -11  15 1964.37 489.387   4
   0 -11  14 5466.43 791.650   4
   0 -11  13 21860.7 1584.94   4
   0 -11  12 2623.31 662.953   4
   0 -11  11 51559.5 2550.18   4
   0 -11  10 31043.2 1598.55   1
   0 -11  10 27469.9 1935.60   4
   0 -11   9 11890.0 1287.75   4
   0 -11   9 12111.3 1072.90   1
   0 -11   8 5051.23 838.415   4
   0 -11   8 5091.83 775.846   1
   0 -11   7 323.903 375.563   4
   0 -11   7 943.965 473.967   1
   0 -11   6 1157.25 418.683   1
   0 -11   6 1960.34 541.303   4
   0 -11   5 3994.14 627.746   1
   0 -11   5 4605.41 739.598   4
   0 -11   4 12460.7 1126.08   4
   0 -11   4 10784.9 1068.04   1
   0 -11   3-56.0944 465.301   3
   0 -11   3 231.468 268.872  11
   0 -11   3 174.695 390.402   1
   0 -11   3 226.437 363.129   4
   0 -11   2 4009.01 618.762   4
   0 -11   2 4482.54 753.606   1
   0 -11   2 4224.96 682.386  11
   0 -11   2 3421.52 1341.86   3
   0 -11   1 2399.36 599.326   1
   0 -11   1 2339.05 1073.74   3
   0 -11   1 2671.08 537.069   4
   0 -11   1 2073.90 521.837  11
   0 -11   0 17377.8 1319.39   1
   0 -11   0 17199.8 1308.64  11
   0 -11   0 16563.6 1196.19   4
   0 -11   0 15707.8 2615.16   3
   0 -11  -1 11876.2 1143.39  11
   0 -11  -1 12466.6 1114.03   1
   0 -11  -2 1594.51 495.196   1
   0 -11  -2 1695.43 548.085  11
   0 -11  -3 9772.49 1104.86  11
   0 -11  -3 10242.6 1041.69   1
   0 -11  -4 20653.0 1595.54  11
   0 -11  -5 2748.26 678.274  11
   0 -11  -6 8422.13 1080.15  11
   0 -11  -7 695.902 455.481  11
   0 -11  -7 304.318 278.815   6
   0 -11  -8 2416.86 472.152   6
   0 -11  -8 3138.64 710.703  11
   0 -11  -9 11780.1 1073.61   6
   0 -11  -9 11545.1 1232.28  11
   0 -11 -10 5069.67 837.403  11
   0 -11 -10 4953.23 707.201   6
   0 -11 -11 4780.67 722.116   6
   0 -11 -11 3968.96 719.549  11
   0 -11 -12 16687.8 1297.09   6
   0 -11 -12 18420.3 1386.30  11
   0 -11 -13-493.360 352.020   6
   0 -11 -13 315.627 288.089  11
   0 -11 -14 8937.17 834.882  11
   0 -11 -14 7831.94 832.485   6
   0 -11 -15 0.81619 243.240   6
   0 -11 -16 8158.05 737.864   6
   0 -11 -17-148.969 184.784   6
   0 -11 -18 918.737 210.916   6
   0 -12  16 758.519 198.116   4
   0 -12  15 934.952 269.697   4
   0 -12  14-48.2551 181.940   4
   0 -12  13 8811.37 924.922   4
   0 -12  12 247.145 276.467   4
   0 -12  11 5470.34 834.383   4
   0 -12  10 5261.48 645.761   1
   0 -12  10 4644.01 735.933   4
   0 -12   9 1929.51 457.590   1
   0 -12   9 1315.70 470.708   4
   0 -12   8 927.779 384.566   1
   0 -12   8 351.954 285.248   4
   0 -12   7 14112.7 1182.70   1
   0 -12   7 14379.8 1292.31   4
   0 -12   6 5089.39 732.713   1
   0 -12   6 5713.88 824.525   4
   0 -12   5 14285.3 1222.30   4
   0 -12   5 9173.59 1017.52   1
   0 -12   4 14278.5 1222.99   4
   0 -12   4 15117.8 1306.07   1
   0 -12   3 37113.0 2036.85   1
   0 -12   3 38096.0 1862.75   4
   0 -12   3 34124.2 1756.91  11
   0 -12   2 41081.0 1993.09  11
   0 -12   2 43481.1 1945.61   4
   0 -12   2 47522.6 2280.20   1
   0 -12   1-229.912 230.913   4
   0 -12   1 330.780 499.624   1
   0 -12   1 472.345 336.578  11
   0 -12   0 50891.3 2277.34   1
   0 -12   0 46437.5 1939.87   4
   0 -12   0 47173.0 2219.17  11
   0 -12  -1 6123.11 845.700   1
   0 -12  -1 5474.09 838.842  11
   0 -12  -2 559.828 518.770  11
   0 -12  -2 1107.43 558.473   1
   0 -12  -3 5055.36 866.094  11
   0 -12  -4 4707.09 901.386  11
   0 -12  -5 22285.3 1722.99  11
   0 -12  -6 2438.16 625.171  11
   0 -12  -7 9489.90 1094.13  11
   0 -12  -8 20216.9 1608.60  11
   0 -12  -9 232.090 341.363  11
   0 -12 -10 31448.9 1637.76   6
   0 -12 -10 33008.7 1898.64  11
   0 -12 -11-122.614 277.778   6
   0 -12 -11 144.478 323.445  11
   0 -12 -12 34363.2 1743.66  11
   0 -12 -12 30030.4 1532.03   6
   0 -12 -13 8117.08 771.855   6
   0 -12 -13 9391.29 849.888  11
   0 -12 -14 14199.8 966.008   6
   0 -12 -14 14836.4 946.069  11
   0 -12 -15 1476.85 320.891   6
   0 -12 -16 2002.91 300.902   6
   0 -13  14 5367.42 480.780   4
   0 -13  13 2647.31 403.349   4
   0 -13  12 3293.16 493.403   4
   0 -13  11 6927.97 767.406   4
   0 -13  10-652.760 399.143   4
   0 -13   9 320.908 289.773   4
   0 -13   8 4051.57 632.596   1
   0 -13   8 3962.29 639.349   4
   0 -13   7 5278.34 702.618   1
   0 -13   7 6254.15 796.839   4
   0 -13   6 10683.4 1056.79   4
   0 -13   6 11159.9 1052.78   1
   0 -13   5 20560.9 1364.57   4
   0 -13   5 16620.7 1273.75   1
   0 -13   4 15168.1 1163.48   4
   0 -13   4 15786.7 1308.87   1
   0 -13   3 7504.11 801.061   4
   0 -13   3 9765.62 1150.90   1
   0 -13   2 64160.2 2392.89  11
   0 -13   2 62376.4 2251.59   4
   0 -13   1 918.698 330.382   4
   0 -13   1 1220.74 389.073  11
   0 -13   1 2153.24 687.886   1
   0 -13   0 167.174 290.357  11
   0 -13  -1 22324.8 1558.04  11
   0 -13  -2 8237.74 1006.08  11
   0 -13  -3 604.969 366.247  11
   0 -13  -4 5490.07 831.312  11
   0 -13  -5 1805.24 583.742  11
   0 -13  -6-27.2252 426.752  11
   0 -13  -7 1195.69 446.329  11
   0 -13  -8 2199.04 601.865  11
   0 -13  -9 1084.07 487.399  11
   0 -13 -10 7627.22 877.808  11
   0 -13 -11 657.455 329.550  11
   0 -13 -12 1447.60 368.682  11
   0 -13 -13 4738.10 545.293  11
   0 -13 -14 774.671 232.960  11
   0 -14  11 53.1900 145.750   4
   0 -14  10 1234.16 272.532   4
   0 -14   9 2823.79 402.476   4
   0 -14   8-237.762 281.073   4
   0 -14   7 5334.65 610.939   4
   0 -14   6 735.212 220.820   4
   0 -14   5 8166.33 750.461   4
   0 -14   4 2029.64 410.687   4
   0 -14   3 2770.76 434.765   4
   0 -14   2 5.25062 241.414  11
   0 -14   1-93.1691 237.192  11
   0 -14   0 16662.5 1218.04  11
   0 -14  -1 1132.19 382.148  11
   0 -14  -2 50810.8 2233.31  11
   0 -14  -3 19348.2 1407.93  11
   0 -14  -4 16281.7 1290.69  11
   0 -14  -5 6482.52 853.814  11
   0 -14  -6 2257.14 454.530  11
   0 -14  -7 2866.03 592.999  11
   0 -14  -8 512.511 384.085  11
   0 -14  -9 10762.8 967.832  11
   0 -14 -10 7147.68 742.022  11
   0 -14 -11-282.836 255.610  11
   0 -14 -12 280.799 200.097  11
   0 -14 -13 2127.38 309.930  11
   0 -15   1 1788.37 339.319  11
   0 -15   0 14668.0 984.419  11
   0 -15  -1 7539.39 759.216  11
   0 -15  -2 4551.05 636.860  11
   0 -15  -3 10390.5 910.801  11
   0 -15  -4 2224.59 478.794  11
   0 -15  -5 300.651 265.882  11
   0 -15  -6-396.186 341.740  11
   0 -15  -7 384.845 304.363  11
   0 -15  -8 844.844 317.669  11
   0 -15  -9 3719.67 476.818  11
   0 -15 -10 2446.54 371.852  11
   0 -15 -11 14702.0 747.841  11
   0 -16  -1-195.105 212.438  11
   0 -16  -2 183.324 169.882  11
   0 -16  -3 1613.89 368.446  11
   0 -16  -4 380.745 227.134  11
   0 -16  -5 6267.46 568.862  11
   0 -16  -6 56.6504 185.524  11
   0 -16  -7 7406.08 602.770  11
   0 -16  -8 465.222 183.742  11
   1 -16  -6 1071.31 246.170  11
   1 -16  -5 373.092 149.645  11
   1 -16  -4-527.902 235.151  11
   1 -16  -3 357.986 169.001  11
   1 -16  -2 339.416 148.840  11
   1 -16  -1 8106.66 562.542  11
   1 -15 -10 4635.94 431.409  11
   1 -15  -9 16172.7 891.712  11
   1 -15  -8 1332.58 319.891  11
   1 -15  -7 4035.05 553.052  11
   1 -15  -6 377.869 237.876  11
   1 -15  -5 2233.57 457.689  11
   1 -15  -4 7142.16 775.599  11
   1 -15  -3 1214.50 413.931  11
   1 -15  -2 5263.69 625.103  11
   1 -15  -1 14004.9 979.505  11
   1 -15   0 12843.3 912.468  11
   1 -15   1 447.572 198.814  11
   1 -14 -12 189.043 160.042  11
   1 -14 -11 316.630 228.528  11
   1 -14 -10 2221.62 409.764  11
   1 -14  -9 421.133 313.102  11
   1 -14  -8 12300.7 988.421  11
   1 -14  -7 6425.77 833.719  11
   1 -14  -6 316.175 316.444  11
   1 -14  -5 9064.26 995.923  11
   1 -14  -4 494.872 353.591  11
   1 -14  -3 38156.1 1953.09  11
   1 -14  -2 1451.37 501.204  11
   1 -14  -1 39634.6 1919.37  11
   1 -14   0 7689.37 853.089  11
   1 -14   1 6188.59 737.929  11
   1 -14   2 150.893 240.721  11
   1 -14   3 275.411 219.665  11
   1 -14   7 10905.3 774.545   4
   1 -14   8 2261.67 357.106   4
   1 -14   9 4311.74 448.812   4
   1 -14  10 1644.83 275.957   4
   1 -13 -13 2205.74 330.484   6
   1 -13 -13 2676.02 387.878  11
   1 -13 -12 2535.09 407.207  11
   1 -13 -12 1541.42 310.204   6
   1 -13 -11 1622.59 402.120  11
   1 -13 -11 1185.41 305.684   6
   1 -13 -10 3364.34 496.866   6
   1 -13 -10 2868.13 539.036  11
   1 -13  -9 1064.70 466.409  11
   1 -13  -9 1533.80 374.721   6
   1 -13  -8 14326.3 1029.57   6
   1 -13  -8 14891.6 1293.87  11
   1 -13  -7 7595.65 967.848  11
   1 -13  -6-686.343 473.560  11
   1 -13  -5 9638.73 1105.97  11
   1 -13  -4 1853.86 474.636  11
   1 -13  -3 16479.2 1412.13  11
   1 -13  -2 14847.5 1318.20  11
   1 -13  -1 121.375 356.575  11
   1 -13   0 3021.76 598.757  11
   1 -13   0 3611.56 674.953   1
   1 -13   1 7551.16 929.622   1
   1 -13   1 5701.87 783.432  11
   1 -13   2 10729.1 1016.97  11
   1 -13   2 13483.0 1219.94   1
   1 -13   3 1111.74 578.399   1
   1 -13   3 231.478 255.185  11
   1 -13   4 28689.1 1741.97   1
   1 -13   5 1049.46 350.080   4
   1 -13   5 320.087 439.949   1
   1 -13   6 10132.9 993.465   1
   1 -13   6 12460.2 1003.06   4
   1 -13   7 1418.15 425.084   4
   1 -13   7 664.499 393.234   1
   1 -13   8 19977.5 1266.09   1
   1 -13   8 17358.6 1229.62   4
   1 -13   9 2200.44 442.968   4
   1 -13   9 2903.45 509.150   1
   1 -13  10 834.963 340.875   1
   1 -13  10 26.1775 247.246   4
   1 -13  11 440.604 208.766   4
   1 -13  12 114.543 171.681   4
   1 -13  13 12670.4 769.443   4
   1 -12 -16 970.556 213.661   6
   1 -12 -15 2702.76 391.739   6
   1 -12 -14 260.165 239.937   6
   1 -12 -14 167.223 203.935  11
   1 -12 -13 25210.7 1287.62  11
   1 -12 -13 22633.9 1289.67   6
   1 -12 -12 756.423 266.646   6
   1 -12 -12 1638.14 426.815  11
   1 -12 -11 26528.5 1507.47   6
   1 -12 -11 27933.3 1606.35  11
   1 -12 -10 30526.8 1791.25  11
   1 -12 -10 28241.7 1600.73   6
   1 -12  -9 1123.37 344.858   6
   1 -12  -9 2066.29 629.993  11
   1 -12  -8 21860.3 1392.45   6
   1 -12  -8 23666.4 1706.02  11
   1 -12  -7 434.345 298.042   6
   1 -12  -7 593.725 416.640  11
   1 -12  -6 3810.73 568.300   6
   1 -12  -6 3329.22 725.373  11
   1 -12  -5 1454.24 373.658   6
   1 -12  -5 1737.68 602.763  11
   1 -12  -4 5279.68 645.459   6
   1 -12  -4 5292.65 813.895  11
   1 -12  -3-24.1782 422.837  11
   1 -12  -2 567.423 371.016   1
   1 -12  -2 281.150 380.967  11
   1 -12  -1 10454.0 1081.49   1
   1 -12  -1 11109.3 1156.70  11
   1 -12   0 4738.28 797.254  11
   1 -12   0 5606.19 815.277   1
   1 -12   1 43031.6 2139.63   1
   1 -12   1 44973.3 2149.58  11
   1 -12   2 68500.0 2751.51   1
   1 -12   2 64131.7 2513.52  11
   1 -12   3 996.051 398.859  11
   1 -12   3 1042.50 374.397   4
   1 -12   3 1308.24 547.653   1
   1 -12   4 39929.3 2116.07   1
   1 -12   4 40106.3 1876.25   4
   1 -12   4 38177.6 1844.63  11
   1 -12   5 1662.02 452.681   4
   1 -12   5 2155.86 537.828   1
   1 -12   6 15702.7 1317.61   1
   1 -12   6 18357.7 1375.89   4
   1 -12   7 6577.31 858.285   4
   1 -12   7 7104.20 894.824   1
   1 -12   8 15925.4 1331.31   4
   1 -12   8 16131.8 1246.91   1
   1 -12   9 90.0107 275.695   4
   1 -12   9 433.519 322.948   1
   1 -12  10-336.460 369.431   4
   1 -12  10 326.097 295.243   1
   1 -12  11 6204.81 793.190   4
   1 -12  11 9435.12 786.438   1
   1 -12  12 231.912 294.393   4
   1 -12  13 15862.5 1132.55   4
   1 -12  14 9031.50 773.817   4
   1 -12  15 956.196 250.543   4
   1 -12  16 8799.99 560.891   4
   1 -11 -18 512.640 170.058   6
   1 -11 -17 3292.01 421.806   6
   1 -11 -16 2524.78 425.797   6
   1 -11 -15 3774.61 557.251   6
   1 -11 -14 9272.44 904.873   6
   1 -11 -13 12461.9 1066.06   6
   1 -11 -13 16052.7 1128.43  11
   1 -11 -12 27615.1 1588.27  11
   1 -11 -12 25758.5 1616.31   6
   1 -11 -11 5563.64 819.200   6
   1 -11 -11 5872.46 806.781  11
   1 -11 -10 50952.3 2295.48   6
   1 -11 -10 51409.6 2406.55  11
   1 -11  -9 342.816 378.899  11
   1 -11  -9 670.683 436.042   6
   1 -11  -8 7073.87 1000.44  11
   1 -11  -8 7915.88 869.617   8
   1 -11  -8 7276.68 878.996   6
   1 -11  -7 11584.3 1108.44   8
   1 -11  -7 11706.3 1060.26   6
   1 -11  -7 10886.3 1208.73  11
   1 -11  -6 1663.43 506.406   8
   1 -11  -6 1149.61 450.702  11
   1 -11  -6 2161.49 472.146   6
   1 -11  -5 167.982 250.400   6
   1 -11  -5-45.8556 404.768   8
   1 -11  -5 499.049 438.889  11
   1 -11  -4 2184.12 552.789   1
   1 -11  -4 815.786 404.940   8
   1 -11  -4 2072.91 620.546  11
   1 -11  -4 1458.00 381.208   6
   1 -11  -3 912.997 508.538  11
   1 -11  -3 178.378 331.782   1
   1 -11  -3 223.019 473.418   8
   1 -11  -3 350.592 227.601   6
   1 -11  -2 9952.79 1101.06   8
   1 -11  -2 9380.21 849.143   6
   1 -11  -2 9261.11 946.925   1
   1 -11  -2 10304.0 1115.24  11
   1 -11  -1 7958.02 945.947  11
   1 -11  -1 8181.47 898.460   1
   1 -11  -1 9265.55 1102.12   8
   1 -11   0 356.638 552.400   3
   1 -11   0 1854.83 513.859   1
   1 -11   0 1531.42 485.531  11
   1 -11   0 2037.89 648.042   8
   1 -11   1 9742.67 1018.91  11
   1 -11   1 10993.8 1074.94   1
   1 -11   1 9644.35 2115.81   3
   1 -11   2 7225.76 889.223  11
   1 -11   2 8500.97 969.867   1
   1 -11   3-26.5762 294.544  11
   1 -11   3 270.630 259.860   4
   1 -11   3-480.303 501.634   1
   1 -11   4 1670.33 461.533  11
   1 -11   4 2093.14 484.264   4
   1 -11   4 1912.67 509.708   1
   1 -11   5 10938.0 1054.43   4
   1 -11   5 9451.21 1018.81   1
   1 -11   6-426.753 458.976   1
   1 -11   6-245.450 294.885   4
   1 -11   7 3228.58 621.289   4
   1 -11   7 2753.67 637.208   1
   1 -11   8 4929.96 808.505   4
   1 -11   8 4899.25 757.412   1
   1 -11   9 2023.94 586.407   4
   1 -11   9 2462.17 589.693   1
   1 -11  10 19559.6 1594.09   4
   1 -11  10 20436.4 1338.60   1
   1 -11  11 3778.48 590.153   1
   1 -11  11 1739.40 474.539   4
   1 -11  12 1984.46 417.985   1
   1 -11  12 1471.47 442.384   4
   1 -11  13 16568.6 1431.30   4
   1 -11  14 2205.89 543.512   4
   1 -11  15 707.414 302.362   4
   1 -11  16 454.556 236.144   4
   1 -11  17 1188.03 294.638   4
   1 -10 -19 220.357 161.729   6
   1 -10 -18 286.628 165.747   6
   1 -10 -17 4162.93 550.381   6
   1 -10 -16 3756.10 594.129   6
   1 -10 -15 224.047 314.290   6
   1 -10 -14 352.722 302.055   6
   1 -10 -13 296.822 292.631  11
   1 -10 -13-367.699 413.426   6
   1 -10 -12 2068.49 482.329  11
   1 -10 -12 1499.12 504.104   6
   1 -10 -11 11.4248 277.847   6
   1 -10 -11-57.5621 363.199  11
   1 -10 -10 3073.17 607.885   6
   1 -10 -10 3734.30 701.881  11
   1 -10  -9 38526.7 2021.69   6
   1 -10  -9 38930.9 2174.86  11
   1 -10  -8 9516.05 960.643   8
   1 -10  -8 9813.13 1156.83  11
   1 -10  -8 8612.65 943.936   6
   1 -10  -7 145.497 307.001   6
   1 -10  -7 337.694 419.953   8
   1 -10  -7-384.168 441.320  11
   1 -10  -6 19900.9 1329.95   6
   1 -10  -6 18221.4 1519.08  11
   1 -10  -6 20868.2 1439.51   8
   1 -10  -5 21130.1 1334.37   6
   1 -10  -5 20352.5 1592.61  11
  -1  10   5 17833.7 2702.19  13
   1 -10  -5 18235.6 1351.51   8
   1 -10  -5 20887.7 1364.91   1
   1 -10  -4 6032.73 823.481   8
   1 -10  -4 7840.64 862.153   1
   1 -10  -4 8022.66 819.611   6
   1 -10  -4 8811.37 1066.59  11
   1 -10  -3 7034.27 905.393   8
   1 -10  -3 8065.80 833.542   1
   1 -10  -3 7257.80 777.537   6
   1 -10  -3 8156.32 960.964  11
   1 -10  -2 12668.1 1052.06   1
   1 -10  -2 13413.0 1162.96   8
   1 -10  -2 13656.6 1051.88   6
   1 -10  -2 13892.2 1227.99  11
   1 -10  -1 7923.36 947.225   8
   1 -10  -1 5936.89 731.123   1
   1 -10  -1 6692.77 1727.65   3
   1 -10  -1 6776.33 875.131  11
   1 -10   0 121.216 307.707   1
   1 -10   0 224.775 404.676   8
   1 -10   0 671.295 392.052  11
   1 -10   0-525.566 696.559   3
   1 -10   1 13388.4 2369.11   3
   1 -10   1 12594.0 1113.08  11
   1 -10   1 13392.5 1158.61   1
   1 -10   1 14514.9 1223.02   8
   1 -10   2 521.040 583.395   3
   1 -10   2 202.861 446.526   8
   1 -10   2 278.743 262.303  11
   1 -10   2 162.572 335.366   1
   1 -10   3 1293.47 898.488   3
   1 -10   3 1364.74 409.639   1
   1 -10   3 1186.78 367.953   4
   1 -10   3 1887.29 590.066   8
   1 -10   3 1422.06 433.176  11
   1 -10   4 339.120 522.898   3
   1 -10   4 195.126 222.114  11
   1 -10   4-162.270 413.141   1
   1 -10   4 244.977 260.434   4
   1 -10   5 207.399 223.211   4
   1 -10   5 127.623 605.672   3
   1 -10   5 127.727 399.654   1
   1 -10   6 1436.19 446.177   4
   1 -10   6 451.230 447.158   1
   1 -10   6 1036.91 976.083   3
   1 -10   7 333.836 359.843   4
   1 -10   7 175.406 413.917   1
   1 -10   8 8506.89 1092.35   4
   1 -10   8 8028.38 979.209   1
   1 -10   9 5630.90 834.125   1
   1 -10   9 4505.45 852.690   4
   1 -10  10 13314.7 1119.36   1
   1 -10  10 11423.1 1319.29   4
   1 -10  11 48410.7 2636.05   4
   1 -10  11 56235.5 2170.96   1
   1 -10  12 411.298 346.043   4
   1 -10  13 7700.27 1081.87   4
   1 -10  14 16025.3 1444.30   4
   1 -10  15 936.284 421.605   4
   1 -10  16 950.975 407.886   4
   1 -10  17 267.487 266.715   4
   1 -10  18 255.823 175.996   4
   1 -10  19 840.385 205.088   4
   1  -9 -20 16487.7 851.880   6
   1  -9 -19 3088.00 445.316   6
   1  -9 -18 5486.02 652.261   6
   1  -9 -17 18135.6 1263.70   6
   1  -9 -16 941.206 447.798   6
   1  -9 -15 2430.60 622.751   6
   1  -9 -14 897.141 378.588   6
   1  -9 -13 1173.32 346.188   6
   1  -9 -12 100.883 246.442  11
   1  -9 -12-52.2169 437.206   6
   1  -9 -11 837.271 395.946  11
   1  -9 -11 548.831 325.801   6
  -1   9  10 17108.8 2912.23  13
   1  -9 -10 18335.6 1474.77   6
   1  -9 -10 19661.4 1484.14  11
  -1   9   9 553.335 751.419  13
   1  -9  -9 99.2709 298.400   6
   1  -9  -9 281.519 323.591  11
   1  -9  -8 29506.3 1710.83   6
   1  -9  -8 32154.0 1924.97  11
  -1   9   8 29707.7 3682.84  13
   1  -9  -7 26747.6 1790.75  11
   1  -9  -7 25917.6 1537.96   6
  -1   9   7 24035.4 3243.50  13
   1  -9  -7 27025.9 1526.53   8
   1  -9  -6 26401.5 1751.07  11
  -1   9   6 23218.1 3088.89  13
  -1   9   5 46034.8 4174.55  13
  -1   9   4 10677.8 1906.70  13
  -1   9   3 16137.8 2233.71  13
   1  -9  -2 4253.73 1258.06   3
   1  -9  -1 6418.36 1519.28   3
   1  -9   0 14438.4 2292.83   3
   1  -9   1 344.038 446.261   3
   1  -9   2 2151.42 970.287   3
   1  -9   3 12122.3 2117.39   3
   1  -9   4 22739.2 2937.32   3
   1  -9   5 1078.37 755.245   3
   1  -9   5 1260.55 446.218   1
   1  -9   6 277.118 310.376   1
   1  -9   6 8.09274 246.453   4
   1  -9   6 69.8796 423.222   3
   1  -9   7 3031.63 587.532   1
   1  -9   7 2928.47 1199.72   3
   1  -9   7 5089.27 833.619   4
   1  -9   8 4227.08 630.633   1
   1  -9   8 4058.60 1510.17   3
   1  -9   8 4859.79 827.238   4
   1  -9   9 19619.0 1735.06   4
   1  -9   9 16992.9 3076.49   3
   1  -9   9 18795.1 1338.04   1
   1  -9  10 278.601 289.418   1
   1  -9  10 669.876 468.158   4
   1  -9  11 12801.2 1415.90   4
   1  -9  11 14126.0 1131.72   1
   1  -9  12 5924.19 985.694   4
   1  -9  13 457.165 423.501   4
   1  -9  14 2223.92 702.067   4
   1  -9  15 4400.24 822.577   4
   1  -9  16 497.175 318.696   4
   1  -9  17 5179.21 753.528   4
   1  -9  18 1390.57 376.335   4
   1  -9  19 11042.9 833.097   4
   1  -9  20 4048.47 419.572   4
   1  -8 -21 921.053 241.974   6
   1  -8 -20 9130.87 738.190   6
   1  -8 -19 17494.9 1134.51   6
   1  -8 -18 522.960 345.186   6
   1  -8 -17 4829.80 770.733   6
   1  -8 -16-227.521 350.456   6
   1  -8 -15 1790.25 535.793   6
   1  -8 -14 1682.39 504.894   6
   1  -8 -13-500.617 481.018   6
   1  -8 -12 6086.17 882.868   6
  -1   8  11 2466.49 1077.02  13
   1  -8 -11 2457.73 570.859  11
   1  -8 -11 1840.84 559.801   6
   1  -8 -10 5866.69 871.260   6
  -1   8  10 6635.69 1784.51  13
   1  -8 -10 6715.39 872.048  11
  -1   8   9 11764.2 2314.47  13
   1  -8  -9 11281.4 1104.01  11
   1  -8  -9 11871.0 1122.32   6
  -1   8   8 125939. 7218.41  13
  -1   8   7 22160.1 3037.60  13
  -1   8   6 44965.7 4122.67  13
  -1   8   5 14346.1 2287.08  13
  -1   8   4 5153.35 1325.20  13
  -1   8   3 309.301 588.284  13
  -1   8   2 137.301 400.576  13
   1  -8  -2-224.982 557.135   3
   1  -8  -1 60093.8 4281.02   3
  -1   8   1 55811.4 3479.92  13
   1  -8   0 9913.26 1790.88   3
   1  -8   1 59033.3 4282.31   3
   1  -8   2 1019.74 599.950   3
   1  -8   3 29297.6 3067.40   3
   1  -8   4 43685.6 3803.13   3
   1  -8   5 19687.0 2648.43   3
   1  -8   6 17769.7 2661.79   3
   1  -8   7 1763.94 991.408   3
   1  -8   8 7054.82 1035.45   4
   1  -8   8 5133.36 1639.79   3
   1  -8   9 4101.38 850.334   4
   1  -8   9 3946.64 632.202   1
   1  -8   9 3923.01 1473.49   3
   1  -8  10 1956.83 458.400   1
   1  -8  10 1969.58 583.730   4
   1  -8  10 1532.70 950.033   3
   1  -8  11 2691.18 668.441   4
   1  -8  11 3770.52 1493.58   3
   1  -8  12 6502.28 1044.66   4
   1  -8  13 4233.52 943.660   4
   1  -8  14 1373.66 681.643   4
   1  -8  15 10729.2 1328.28   4
   1  -8  16 169.866 303.943   4
   1  -8  17 803.797 446.338   4
   1  -8  18 7789.29 900.199   4
   1  -8  19 307.358 251.672   4
   1  -8  20 878.026 274.224   4
   1  -8  21 1537.59 270.853   4
   1  -7 -22 3321.84 391.638   6
   1  -7 -21 1969.12 354.025   6
   1  -7 -20 1070.97 338.292   6
   1  -7 -19 1741.46 436.462   6
   1  -7 -18 2603.32 555.208   6
   1  -7 -17 4580.29 775.877   6
   1  -7 -16 486.314 428.548   6
   1  -7 -15 936.004 441.459   6
   1  -7 -14 845.107 568.068   6
  -1   7  13 25662.4 3451.51  13
   1  -7 -13 19444.4 1600.12   6
   1  -7 -12 6318.63 909.556   6
  -1   7  12 6755.97 1828.97  13
   1  -7 -11 118434. 3716.38   6
  -1   7  11 115851. 6996.17  13
  -1   7  10 34576.1 3769.15  13
  -1   7   9 20047.7 2864.98  13
  -1   7   8 67852.3 5075.87  13
  -1   7   7 3621.50 1271.63  13
  -1   7   6 6592.34 1623.04  13
  -1   7   5 2232.98 859.952  13
  -1   7   4 3394.31 1063.05  13
  -1   7   3 20404.3 2430.68  13
  -1   7   2 5052.43 1177.44  13
   1  -7  -2 4456.60 1093.28   3
  -1   7   1 5611.54 1122.33  13
   1  -7  -1 4093.31 1048.97   3
   1  -7   0 6181.18 1279.33   3
  -1   7   0 6557.73 1048.25  13
   1  -7   1 170824. 6663.00   3
   1  -7   2 15931.4 2063.80   3
   1  -7   3 38050.4 3278.49   3
   1  -7   4 32844.6 3090.95   3
   1  -7   5 213.161 336.463   3
   1  -7   5 282.077 299.345   2
   1  -7   6 13776.7 2171.09   3
   1  -7   6 11576.0 1607.10   2
   1  -7   7 17617.8 2123.68   2
   1  -7   7 17440.4 2525.39   3
   1  -7   8 3202.69 1031.56   2
   1  -7   8 3372.88 1220.10   3
   1  -7   9 69276.7 5528.96   3
   1  -7   9 66421.3 4808.88   2
   1  -7  10 20846.4 2905.62   2
   1  -7  10 22193.9 1806.75   4
   1  -7  11 10187.5 2100.06   2
   1  -7  11 11460.7 1326.65   4
   1  -7  12 2806.35 1373.22   2
   1  -7  12 1060.58 443.479   4
   1  -7  13 3769.81 916.078   4
   1  -7  14 1229.75 600.039   4
   1  -7  15 4644.50 980.663   4
   1  -7  16 14987.7 1500.75   4
   1  -7  17 760.905 482.159   4
   1  -7  18 337.482 327.684   4
   1  -7  19 625.500 359.555   4
   1  -7  20 12261.7 975.635   4
   1  -7  21 18941.3 1022.21   4
   1  -7  22 1955.67 277.655   4
   1  -6 -23 2101.74 287.903   6
   1  -6 -22 6707.26 606.852   6
   1  -6 -21 32.1615 205.824   6
   1  -6 -20 43.1947 268.991   6
   1  -6 -19 1737.79 499.195   6
   1  -6 -18 4561.41 767.593   6
   1  -6 -17 2881.40 640.965   6
   1  -6 -16 4231.91 818.330   6
   1  -6 -15 22831.7 1774.55   6
   1  -6 -14 1343.26 549.451   6
  -1   6  14 596.872 827.639  13
  -1   6  13-459.877 655.667  13
   1  -6 -13 457.757 298.734   6
   1  -6 -12 11288.9 1172.99   6
  -1   6  12 14695.1 2506.25  13
  -1   6  11 2950.63 1264.05  13
  -1   6  10 11040.2 2049.67  13
  -1   6   9 2290.70 1066.90  13
  -1   6   8 301.080 781.540  13
  -1   6   7 6737.24 1537.85  13
  -1   6   6 4638.24 1278.64  13
  -1   6   5 25279.0 2730.17  13
  -1   6   4 6285.00 1408.54  13
  -1   6   3 7954.27 1439.23  13
   1  -6  -3 9184.81 1419.17   3
  -1   6   2 36091.1 2835.44  13
   1  -6  -2 36528.7 2753.57   3
  -1   6   1 7989.92 1272.03  13
   1  -6  -1 6977.56 1223.53   3
  -1   6   0 7529.40 1149.18  13
   1  -6   0 6800.32 1184.34   3
  -1   6  -1 7041.33 972.875  13
   1  -6   1 6749.22 759.920   2
   1  -6   1 7070.08 1285.96   3
   1  -6   2 22765.0 2253.26   3
   1  -6   2 20618.1 1479.94   2
  -1   6  -2 20719.1 1417.86  13
   1  -6   3 28568.5 1930.36   2
   1  -6   3 28444.7 2561.80   3
   1  -6   4 16613.5 1601.31   2
   1  -6   4 17255.2 2076.43   3
   1  -6   5 62148.5 3330.28   2
   1  -6   5 60579.6 3965.11   3
   1  -6   6 48287.4 3232.15   2
   1  -6   7 50704.8 3603.84   2
   1  -6   8 48833.2 3791.41   2
   1  -6   9 16910.8 2450.81   2
   1  -6  10 48197.6 4284.74   2
   1  -6  11-348.356 879.482   2
   1  -6  12 2329.68 1006.99   2
   1  -6  12 2181.56 416.240   7
   1  -6  13 3436.70 624.171   7
   1  -6  13 1754.67 1042.31   2
   1  -6  14 1727.22 444.591   7
   1  -6  15-455.986 514.368   7
  -1   6 -16 2693.61 615.211   5
   1  -6  16 3156.60 628.277   7
   1  -6  17 1922.63 653.188   4
  -1   6 -17 1667.04 499.643   5
   1  -6  18 35716.0 2114.43   4
  -1   6 -18 29156.5 1743.31   5
  -1   6 -19 11739.4 988.541   5
   1  -6  19 13502.0 1235.05   4
   1  -6  20 752.710 371.816   4
  -1   6 -20 629.171 246.354   5
   1  -6  21 978.150 357.688   4
  -1   6 -21 953.130 251.981   5
   1  -6  22 9579.92 687.661   4
   1  -5 -23 1631.44 308.592   6
   1  -5 -22-76.3121 190.474   6
   1  -5 -21 3092.01 537.066   6
   1  -5 -20 17884.7 1291.79   6
   1  -5 -19 548.829 337.723   6
   1  -5 -18 30833.6 1874.13   6
   1  -5 -17 8982.92 1081.06   6
   1  -5 -16 12671.2 1307.00   6
  -1   5  15 4218.12 1499.81  13
   1  -5 -15 3364.07 744.093   6
  -1   5  14 432.469 660.813  13
   1  -5 -14 959.298 472.154   6
   1  -5 -13 3628.63 747.376   6
  -1   5  13 3198.08 1169.95  13
  -1   5  12 807.570 794.708  13
  -1   5  11 12823.5 2164.48  13
  -1   5  10 1526.17 842.690  13
  -1   5   9 53110.6 4118.45  13
  -1   5   9 53080.4 3360.02  12
  -1   5   8 34022.0 3240.75  13
  -1   5   8 29158.3 2380.39  12
  -1   5   7 45471.3 3678.17  13
  -1   5   7 38595.7 2571.87  12
  -1   5   6 3425.43 706.080  12
  -1   5   6 5231.08 1292.91  13
  -1   5   5 11972.9 1183.66  12
  -1   5   5 13518.3 1972.51  13
  -1   5   4 15321.7 1165.67  12
  -1   5   4 16273.5 2022.83  13
   1  -5  -3 1870.72 649.387   3
  -1   5   3 1717.30 694.863  13
  -1   5   3 1696.53 338.304  12
  -1   5   2 21623.7 2117.01  13
  -1   5   2 24913.3 1202.93  12
   1  -5  -2 26934.8 2136.70   3
  -1   5   1 55344.6 1858.38  12
  -1   5   1 55572.8 3146.77  13
   1  -5  -1 53779.2 2980.64   3
   1  -5   0 2501.02 418.161   2
   1  -5   0 2708.06 724.434   3
  -1   5   0 2581.01 430.738  12
  -1   5   0 2502.44 672.492  13
  -1   5  -1 99485.0 3389.52  13
   1  -5   1 89267.6 2700.17   2
   1  -5   1 92354.1 4036.30   3
   1  -5   2 24598.3 2123.19   3
  -1   5  -2 24816.9 1435.54  13
   1  -5   2 23970.3 1568.40   2
  -1   5  -3 20067.9 1024.89  13
   1  -5   3 19853.6 1979.84   3
   1  -5   3 21351.9 1619.69   2
   1  -5   4 4383.56 965.330   3
   1  -5   4 4488.59 821.343   2
   1  -5   5 17390.4 1734.10   2
   1  -5   6 47509.1 3130.00   2
   1  -5   7 1422.00 696.845   2
   1  -5   8 3208.49 1000.37   2
   1  -5   9 924.285 539.918   2
   1  -5  10 1860.34 673.729   2
   1  -5  11 19679.0 2791.54   2
   1  -5  12 39812.2 4095.34   2
   1  -5  13 2686.75 529.640   7
  -1   5 -13 2997.94 622.429   5
   1  -5  13 2262.81 889.700   2
  -1   5 -14 68935.6 2769.60   5
   1  -5  14 67967.2 5670.84   2
   1  -5  14 70999.5 2596.50   7
  -1   5 -15 10158.4 1129.03   5
   1  -5  15 12219.8 1136.48   7
  -1   5 -16 17325.1 1471.67   5
   1  -5  16 18752.7 1377.50   7
  -1   5 -17 5340.10 920.464   5
   1  -5  17 7015.25 881.899   7
   1  -5  18 24831.6 1530.98   7
  -1   5 -18 21530.6 1614.93   5
   1  -5  19 1857.00 562.227   4
  -1   5 -19 926.467 364.342   5
   1  -5  20 1003.09 438.956   4
  -1   5 -20 973.119 392.307   5
  -1   5 -21 13.4046 183.844   5
   1  -5  21 62.9643 233.867   4
   1  -5  22-231.181 204.270   4
  -1   5 -22 69.1128 147.580   5
   1  -5  23 4553.90 433.737   4
   1  -4 -24 3251.42 336.858   6
   1  -4 -23 794.788 274.160   6
   1  -4 -22 4758.71 615.053   6
   1  -4 -21 2150.23 447.062   5
   1  -4 -21 2811.24 537.668   6
   1  -4 -20 41387.9 2025.50   6
   1  -4 -20 37289.8 1787.65   5
   1  -4 -19-87.0680 235.672   5
   1  -4 -19 382.138 403.035   6
   1  -4 -18 47633.0 2334.75   6
   1  -4 -18 43596.5 2117.20   5
   1  -4 -17 39613.1 2197.22   6
   1  -4 -17 35680.7 1944.45   5
   1  -4 -16 8937.08 1037.21   5
   1  -4 -16 11404.1 1263.49   6
  -1   4  15 7524.31 1838.21  13
   1  -4 -15 5532.39 842.879   5
  -1   4  14 12659.9 2276.34  13
  -1   4  13 128.179 610.604  13
  -1   4  12 20783.5 2678.63  13
  -1   4  11 32779.7 2869.72   2
  -1   4  11 32451.2 3234.09  13
  -1   4  10 11798.2 1717.26  12
  -1   4  10 11566.1 1915.21  13
  -1   4  10 10717.4 1618.75   2
  -1   4   9 69046.8 3799.95   2
  -1   4   9 68499.6 4404.33  13
  -1   4   9 68278.0 3874.46  12
  -1   4   8 35809.8 2672.25  12
  -1   4   8 39923.1 3331.65  13
  -1   4   7 11337.2 1758.03  13
  -1   4   7 9519.20 1296.28  12
  -1   4   6 634.296 627.840  13
  -1   4   6 817.931 424.428  12
  -1   4   5 32890.4 2816.86  13
  -1   4   5 32543.7 1899.28  12
  -1   4   4 14168.8 1893.69  13
  -1   4   4 14412.2 1149.64  12
  -1   4   3 31357.3 2565.58  13
  -1   4   3 34944.7 1543.47  12
   1  -4  -2 2605.68 613.875   3
  -1   4   2 2194.02 668.566  13
  -1   4   2 2664.23 405.926  12
  -1   4   1 29036.7 1345.58  12
   1  -4  -1 26922.8 1853.36   3
  -1   4   0 160565. 4636.12  13
   1  -4   0 163994. 3109.29   2
   1  -4   1 2174.05 433.462   2
   1  -4   1 1914.56 521.469   3
  -1   4  -1 2510.10 618.772  13
   1  -4   2 271500. 5000.73   2
   1  -4   2 270001. 6224.76   3
  -1   4  -2 274946. 4542.84  13
  -1   4  -3 114915. 2162.22  13
   1  -4   3 116452. 3542.59   2
   1  -4   4 5114.71 845.560   2
   1  -4   5 47320.3 2747.67   2
   1  -4   6 5860.73 1088.36   2
   1  -4   7 122.781 421.808   2
   1  -4   8 1012.84 543.085   2
   1  -4   9 148.587 414.432   2
   1  -4  10 22605.5 2745.26   2
   1  -4  11 3046.88 1036.47   2
   1  -4  12 57676.2 4774.29   2
   1  -4  13 4194.63 1415.26   2
   1  -4  14 42501.2 4406.96   2
   1  -4  14 40705.0 1886.13   7
  -1   4 -14 41264.9 2146.31   5
  -1   4 -15 449.475 388.201   5
   1  -4  15-289.091 811.470   2
   1  -4  15 186.189 322.341   7
   1  -4  16 1928.49 511.453   7
  -1   4 -16 1570.84 628.838   5
   1  -4  17 1392.25 415.731   7
  -1   4 -17 1716.16 577.542   5
  -1   4 -18 684.875 413.077   5
   1  -4  18 69.3230 377.631   7
  -1   4 -19 469.497 318.232   5
   1  -4  19 626.500 378.339   7
  -1   4 -20 4603.87 771.685   5
   1  -4  20 5288.73 704.517   7
   1  -4  21 657.802 352.396   4
  -1   4 -21 117.547 291.067   5
  -1   4 -22 4634.49 606.168   5
   1  -4  22 4146.61 594.804   4
   1  -4  23 7699.85 622.827   4
  -1   4 -23 9499.06 702.717   5
   1  -3 -24 195.035 143.005   6
   1  -3 -23 350.374 182.771   6
   1  -3 -23 790.044 234.190   5
   1  -3 -22 2061.06 448.197   6
   1  -3 -22 1900.67 419.561   5
   1  -3 -21 66.0358 259.301   5
   1  -3 -21 1249.70 474.462   6
   1  -3 -20 7835.23 928.434   6
   1  -3 -20 7164.51 914.700   5
   1  -3 -19 4002.24 743.690   6
   1  -3 -19 3332.24 688.736   5
   1  -3 -18 767.722 434.464   5
   1  -3 -17 5072.70 834.178   5
   1  -3 -16 4198.18 747.885   5
  -1   3  15 2168.13 978.018  13
  -1   3  14 16767.4 2412.80  13
  -1   3  14 18394.6 2532.63   2
  -1   3  13 23934.5 2771.51   2
  -1   3  13 23025.6 2761.09  13
  -1   3  12 29365.7 2965.92   2
  -1   3  12 30590.0 3070.73  13
  -1   3  11 53325.6 3957.09  13
  -1   3  11 59848.6 3992.85   2
  -1   3  11 53826.5 3864.52  12
  -1   3  10 5262.91 1264.35  13
  -1   3  10 5497.90 1143.64   2
  -1   3  10 5054.86 1171.11  12
  -1   3   9 126651. 5331.00  12
  -1   3   9 139208. 5917.20  13
  -1   3   8 288.902 429.314  12
  -1   3   8 486.541 482.501  13
  -1   3   7 2592.16 850.976  13
  -1   3   7 1491.21 567.067  12
  -1   3   6 701.968 391.231  12
  -1   3   6 320.926 386.452  13
  -1   3   5 13601.1 1218.05  12
  -1   3   5 15431.5 1811.53  13
  -1   3   4 17395.7 1221.59  12
  -1   3   4 15636.2 1734.38  13
  -1   3   3 295276. 4442.64  12
  -1   3   2 55277.0 1794.67  12
  -1   3   1 469.529 163.028  12
   1  -3   0 3539.93 438.049   2
   1  -3   1 999999. 8131.95   2
   1  -3   2 22423.9 1340.97   2
   1  -3   3 53046.0 2257.60   2
  -1   3  -3 47794.6 1321.41  13
   1  -3   4 110066. 3621.77   2
   1  -3   5 13847.6 1461.99   2
   1  -3   6 56481.9 3179.34   2
   1  -3   7 161.838 382.153   2
   1  -3   8 7222.19 1333.24   2
   1  -3   9 795.564 575.127   2
   1  -3  10 776.672 638.264   2
   1  -3  11 29624.2 3131.84   2
   1  -3  12 13709.4 2257.43   2
   1  -3  13 2026.79 997.096   2
   1  -3  14 5630.28 1574.24   2
   1  -3  14 6391.49 746.135   7
   1  -3  15 52.5375 275.896   7
   1  -3  15-376.954 929.450   2
   1  -3  16 1214.97 411.725   7
  -1   3 -16 1134.74 487.216   5
   1  -3  16 843.041 592.061   2
  -1   3 -17 9218.39 1174.13   5
   1  -3  17 10031.5 995.632   7
  -1   3 -18 25111.2 1860.90   5
   1  -3  18 26512.2 1578.64   7
  -1   3 -19 16154.9 1508.12   5
   1  -3  19 17252.0 1301.26   7
  -1   3 -20 24934.0 1726.70   5
   1  -3  20 25738.7 1496.43   7
  -1   3 -21 62767.8 2481.55   5
   1  -3  21 62858.7 2180.03   7
  -1   3 -22 401.860 281.391   5
   1  -3  22 620.855 304.216   4
   1  -3  23 19214.9 1036.63   4
  -1   3 -23 23840.5 1231.34   5
  -1   3 -24 1965.85 311.905   5
   1  -2 -24 248.591 129.051   5
   1  -2 -24 196.290 134.167   6
   1  -2 -23 2756.43 435.584   6
   1  -2 -23 2721.13 440.023   5
   1  -2 -22 3244.42 545.358   5
   1  -2 -22 3157.45 550.863   6
   1  -2 -21 4128.13 674.214   6
   1  -2 -21 3460.55 666.916   5
   1  -2 -20 226.614 315.881   5
   1  -2 -20 27.8735 299.450   6
  -1   2  20-88.3224 273.571   7
   1  -2 -19 2319.03 647.963   5
  -1   2  19 2401.78 475.604   7
   1  -2 -18 697.987 420.954   5
  -1   2  18 879.615 353.136   7
  -1   2  17 14450.6 1075.07   7
   1  -2 -17 15171.1 1381.64   5
  -1   2  16 4970.04 1387.96   2
   1  -2 -16 5354.97 834.609   5
  -1   2  16 5233.99 664.879   7
  -1   2  15 5645.11 676.707   7
  -1   2  15 7189.78 1803.58   2
  -1   2  14 3853.06 1108.84  13
  -1   2  14 1869.90 771.790   2
  -1   2  13 50132.3 3767.40  13
  -1   2  13 52907.5 4241.46   2
  -1   2  12 6006.87 1389.48   2
  -1   2  12 5784.24 1337.41  13
  -1   2  11 32265.6 3064.65   2
  -1   2  11 33555.4 2919.44  13
  -1   2  11 32714.7 3055.54  12
  -1   2  10 6659.09 1376.90  12
  -1   2  10 7763.92 1388.22  13
  -1   2  10 7913.41 1403.15   2
  -1   2   9-328.131 380.686  13
  -1   2   9 144.207 447.915  12
  -1   2   8 17939.9 1973.32  13
  -1   2   8 16160.0 1826.69  12
  -1   2   7 9331.83 1360.33  13
  -1   2   7 6865.98 1142.25  12
  -1   2   6 976.661 410.814  12
  -1   2   6 481.597 384.534  13
  -1   2   5 268.707 322.936  13
  -1   2   5 721.027 344.878  12
  -1   2   4 81744.8 2585.56  12
  -1   2   3 6072.42 645.167  12
  -1   2   2 19366.2 1036.64  12
  -1   2   1 150519. 2704.46  12
   1  -2   0 149163. 2531.74   2
   1  -2   1 88579.4 2205.19   2
   1  -2   2 64528.4 2064.84   2
   1  -2   3 47116.2 1997.82   2
   1  -2   4 45892.6 2228.90   2
   1  -2   5 53638.2 2722.71   2
   1  -2   6 4019.75 917.971   2
   1  -2   6 3378.26 276.871  13
   1  -2   7 3670.42 902.532   2
   1  -2   7 4357.52 371.476  13
   1  -2   8 23992.7 2347.49   2
   1  -2   9 16404.4 2101.09   2
   1  -2  10 1654.55 941.841   2
   1  -2  11 41806.6 3563.22   2
   1  -2  12 27881.7 3109.30   2
   1  -2  13 566.780 523.282   2
   1  -2  14-26.1561 446.714   2
   1  -2  15 4860.58 1465.08   2
   1  -2  15 3287.39 570.677   7
   1  -2  16 15904.0 1171.06   7
   1  -2  16 14070.8 2588.68   2
   1  -2  17 586.712 365.328   7
  -1   2 -18 17771.6 1556.79   5
   1  -2  18 16995.8 1256.98   7
   1  -2  19 18971.6 1360.02   7
  -1   2 -19 18630.5 1602.82   5
  -1   2 -20 464.689 409.722   5
   1  -2  20 471.010 373.074   7
   1  -2  21 25319.9 1433.05   7
  -1   2 -21 25701.9 1716.06   5
   1  -2  22 7179.86 736.765   7
  -1   2 -22 7288.87 865.382   5
  -1   2 -23 2682.52 483.266   5
   1  -2  23 2597.52 418.967   4
  -1   2 -24 536.637 175.238   6
  -1   2 -24 619.395 238.462   5
   1  -1 -24 1189.29 247.021   5
   1  -1 -24 1399.64 259.321   6
   1  -1 -23 22.6978 211.717   6
   1  -1 -23-23.0760 186.316   5
   1  -1 -22 16035.5 1143.22   6
   1  -1 -22 17601.3 1243.00   5
  -1   1  22 14721.3 891.315   7
   1  -1 -21 14265.6 1257.50   5
  -1   1  21 13567.4 964.227   7
   1  -1 -21 14375.6 1211.13   6
  -1   1  20 1779.31 418.294   7
   1  -1 -20 2405.90 594.073   5
  -1   1  19 22606.0 1358.27   7
   1  -1 -19 24295.6 1751.63   5
  -1   1  18 5220.46 721.564   7
   1  -1 -18 4940.95 878.103   5
   1  -1 -17 6641.55 967.249   5
  -1   1  17 6162.26 757.637   7
  -1   1  16 5487.30 682.235   7
   1  -1 -16 5519.52 854.964   5
  -1   1  16 5168.46 1667.82   2
  -1   1  15 21172.3 2982.27   2
  -1   1  15 18053.4 1159.74   7
  -1   1  14 1539.11 855.886   2
  -1   1  13 2138.99 934.977   2
  -1   1  13 1509.58 660.819  13
  -1   1  12 1848.33 822.108   2
  -1   1  12 2198.32 800.245  13
  -1   1  11 27899.7 2877.99  12
  -1   1  11 28448.5 2883.57   2
  -1   1  11 26831.0 2419.14  13
  -1   1  10 18743.4 1998.76  13
  -1   1  10 19266.2 2321.79  12
  -1   1  10 19050.1 2248.12   2
  -1   1   9 236683. 6720.36  13
  -1   1   9 232649. 7243.07  12
  -1   1   8 2046.94 604.233  13
  -1   1   8 2049.14 686.338  12
  -1   1   7 95960.3 4054.69  12
  -1   1   7 108218. 4250.82  13
  -1   1   6 74182.2 3239.51  12
  -1   1   6 76909.0 3404.24  13
  -1   1   5 179305. 4440.30  12
  -1   1   4 7330.66 798.304  12
  -1   1   3 5271.73 587.663  12
  -1   1   2 18649.9 971.637  12
  -1   1   1 36782.3 1261.27  12
   1  -1   0 90.6441 106.195   2
   1  -1   1 15604.1 837.578   2
   1  -1   2 20870.1 1057.75   2
   1  -1   3 22595.2 1281.93   2
   1  -1   3 21215.0 758.178  13
   1  -1   4 231505. 2815.58  13
   1  -1   4 232598. 4804.07   2
   1  -1   5 36803.3 2178.09   2
   1  -1   5 38322.6 1349.73  13
   1  -1   6 12421.1 1424.66   2
   1  -1   6 13586.0 929.829  13
   1  -1   7 7234.50 1224.43   2
   1  -1   7 9133.14 830.514  13
   1  -1   8 36331.5 1815.77  13
   1  -1   8 42118.6 2962.33   2
   1  -1   9 3483.56 625.066  13
   1  -1   9 3027.33 975.925   2
   1  -1  10 1978.82 910.047   2
   1  -1  11 1338.75 826.140   2
   1  -1  12 11874.9 1996.39   2
   1  -1  13 24704.4 2933.09   2
   1  -1  14 25532.5 3118.09   2
   1  -1  15 7837.76 1886.79   2
   1  -1  15 9828.30 929.713   7
   1  -1  16 39992.2 4182.77   2
   1  -1  16 40445.4 1842.70   7
   1  -1  17 653.530 375.890   7
   1  -1  18 33692.8 1758.28   7
  -1   1 -19 196.680 412.081   5
   1  -1  19-347.218 346.197   7
   1  -1  20 4805.29 731.074   7
  -1   1 -20 4542.42 914.147   5
  -1   1 -21 2176.55 659.548   5
   1  -1  21 1869.08 465.221   7
   1  -1  22 19.7128 303.953   7
  -1   1 -22 34.6607 297.970   5
   1  -1  23 476.857 245.438   7
  -1   1 -23-10.1134 230.685   5
   1  -1  23 425.004 223.072   4
  -1   1 -24 681.292 234.040   6
  -1   1 -24 1063.39 324.722   5
   1   0 -24 2485.40 311.166   6
   1   0 -24 2579.86 383.298   5
   1   0 -23 6336.94 712.362   5
   1   0 -23 6008.68 606.998   6
   1   0 -22 4903.81 632.940   6
   1   0 -22 4872.54 718.522   5
   1   0 -21 32559.5 1858.80   5
  -1   0  21 30744.3 1451.69   7
  -1   0  20 13364.0 1054.31   7
   1   0 -20 13950.0 1326.86   5
  -1   0  19 18023.9 1248.62   7
   1   0 -19 19998.6 1639.86   5
   1   0 -18 34529.6 2124.97   5
  -1   0  18 31064.9 1646.60   7
   1   0 -17 4735.44 841.959   5
  -1   0  17 4447.45 664.333   7
  -1   0  16-374.293 608.696   2
   1   0 -16 840.280 453.483   5
  -1   0  16 269.204 316.301   7
  -1   0  15 20899.3 3107.21   2
  -1   0  15 19057.0 1214.89   7
  -1   0  14 6401.99 1707.87   2
  -1   0  13 4908.35 1379.32   2
  -1   0  12 268.994 517.094   2
  -1   0  12 448.871 376.509  13
  -1   0  11 127.778 439.467   2
  -1   0  11 322.369 380.786  13
  -1   0  10 1186.67 693.432  12
  -1   0  10 1019.85 507.134  13
  -1   0  10 214.778 542.863   2
  -1   0   9 6999.62 1399.18  12
  -1   0   9 6267.97 1035.95  13
  -1   0   8 9289.62 1231.89  13
  -1   0   8 9944.58 1484.14  12
  -1   0   7 24233.3 2113.20  12
  -1   0   7 25389.2 1912.27  13
  -1   0   6 121790. 4250.42  12
  -1   0   5 9719.93 1068.88  12
  -1   0   4 170164. 3884.34  12
  -1   0   3 78777.0 2271.09  12
  -1   0   2 28495.0 1148.63  12
   1   0   2 388294. 3573.71  13
   1   0   2 380187. 4089.49   2
   1   0   3 47716.3 1462.57  13
   1   0   3 48137.9 1719.30   2
   1   0   4 22989.0 1459.71   2
   1   0   4 22832.1 1183.34  13
   1   0   5 15265.1 1361.59   2
   1   0   5 15331.7 1093.22  13
   1   0   6 3972.30 649.333  13
   1   0   6 4534.61 831.320   2
   1   0   7 15147.9 1292.44  13
   1   0   7 14034.9 1604.03   2
   1   0   8 9418.31 1083.77  13
   1   0   8 8999.41 1372.04   2
   1   0   9 23741.6 2314.69   2
   1   0   9 22925.2 1775.21  13
   1   0  10 7525.14 1487.96   2
   1   0  10 7441.30 1070.86  13
   1   0  11 60612.4 3107.83  13
   1   0  11 60584.1 4063.13   2
   1   0  12 2737.31 1032.23   2
   1   0  13 27322.3 3000.93   2
   1   0  14 23266.2 2906.92   2
   1   0  15 136.855 254.780   7
   1   0  15 537.686 513.228   2
   1   0  16 11188.9 2226.63   2
   1   0  16 14547.0 1151.71   7
   1   0  17 8681.91 2059.32   2
   1   0  17 9802.67 950.154   7
   1   0  18 10486.8 1017.99   7
  -1   0 -19 3970.92 867.115   5
   1   0  19 4008.12 663.724   7
  -1   0 -20 603.632 473.364   5
   1   0  20 145.280 375.432   7
  -1   0 -21 488.660 436.849   5
   1   0  21 334.848 328.217   7
   1   0  22-346.302 338.990   7
  -1   0 -22 308.559 305.826   5
   1   0  23 2872.96 444.019   7
  -1   0 -23 2651.24 530.243   5
  -1   0 -24 74.6616 208.261   5
  -1   0 -24 694.620 242.877   6
  -1   0 -25 205.822 131.544   5
   1   1 -24 1645.22 337.447   5
   1   1 -23 4570.65 621.738   5
   1   1 -23 4729.71 515.274   6
   1   1 -22 750.060 310.597   6
   1   1 -22 948.575 398.834   5
   1   1 -21 2373.26 629.582   5
  -1  -1  21 2965.21 522.293   7
   1   1 -20 4224.17 799.506   5
  -1  -1  20 5205.63 705.011   7
   1   1 -19 10458.0 1258.43   5
  -1  -1  19 10428.3 975.751   7
  -1  -1  18 2383.84 528.111   7
   1   1 -18 3121.46 713.578   5
   1   1 -17 3910.16 810.281   5
  -1  -1  17 4312.50 658.733   7
  -1  -1  16 882.480 364.854   7
   1   1 -16 758.776 468.751   5
   1   1 -15 5788.46 933.050   5
  -1  -1  15 6337.50 1777.30   2
  -1  -1  15 5495.92 720.495   7
  -1  -1  14 1832.13 1103.90   2
  -1  -1  13 24579.3 3088.01   2
  -1  -1  12 29016.2 3196.62   2
  -1  -1  11 242.940 471.656   2
  -1  -1  10 52904.5 3703.92  12
  -1  -1  10 49321.5 3780.60   2
  -1  -1  10 49675.4 2588.16  13
  -1  -1   9 677.916 450.585   2
  -1  -1   9 812.175 435.742  13
  -1  -1   9 1188.50 707.709  12
  -1  -1   8 26280.4 2375.16  12
  -1  -1   8 24360.6 1703.74  13
  -1  -1   7 790.334 340.359  13
  -1  -1   7 1073.96 527.839  12
  -1  -1   6 6975.72 1084.59  12
  -1  -1   5 2530.95 642.290  12
  -1  -1   4 74181.9 2773.23  12
  -1  -1   3 54997.1 2030.60  12
  -1  -1   2 27087.9 1179.08  12
   1   1  -1 142689. 2077.26  13
  -1  -1   1 137614. 2084.99  12
   1   1   0 419757. 3659.94  13
  -1  -1   0 421386. 3138.57  12
   1   1   1 26460.2 1014.39  13
   1   1   1 28472.7 804.398   2
   1   1   2 201267. 2578.87   2
   1   1   2 203902. 3203.02  13
   1   1   3 44694.2 1720.25  13
   1   1   3 42675.7 1500.08   2
   1   1   4 15590.7 1163.69  13
   1   1   4 17767.7 1202.68   2
   1   1   5 61864.1 2512.44  13
   1   1   5 68073.5 2749.72   2
   1   1   6 19160.9 1624.48   2
   1   1   6 21142.1 1589.03  13
   1   1   7 11750.5 1413.69   2
   1   1   7 12766.0 1340.42  13
   1   1   8 806.270 513.106  13
   1   1   8 171.026 340.357   2
   1   1   9 45159.3 2681.97  13
   1   1   9 45726.9 3128.26   2
   1   1  10 6101.39 1276.32   2
   1   1  10 6049.14 1086.25  13
   1   1  11 31202.1 2428.45  13
   1   1  11 32724.9 2940.52   2
   1   1  12 10635.0 1815.00   2
   1   1  12 7861.47 1282.54  13
   1   1  13 908.501 722.694   2
   1   1  13 564.184 373.077  13
   1   1  14 21349.1 2747.84   2
   1   1  15 27975.9 1465.60   7
   1   1  15 29016.8 3306.87   2
   1   1  16 373.966 278.083   7
   1   1  16 1822.38 1041.83   2
   1   1  17 4662.88 1452.40   2
   1   1  17 5660.16 786.707   7
   1   1  18 8856.29 942.366   7
   1   1  19 2330.94 606.927   7
   1   1  20 10444.0 968.116   7
  -1  -1 -20 10497.8 1179.19   5
   1   1  21 275.309 326.350   7
  -1  -1 -21 184.354 357.421   5
   1   1  22 5001.96 620.384   7
  -1  -1 -22 5216.30 752.033   5
   1   1  23 8296.98 716.093   7
  -1  -1 -23 8906.38 826.780   6
  -1  -1 -23 8654.69 859.501   5
   1   1  24 695.558 237.511   7
  -1  -1 -24 1447.02 327.235   6
  -1  -1 -24 1177.29 327.436   5
  -1  -1 -25 1195.84 234.449   5
  -1  -1 -25 1374.14 225.817   6
   1   2 -24 1561.67 317.182   5
   1   2 -23 6612.61 697.764   5
   1   2 -23 5897.85 520.609   6
   1   2 -22 2629.96 449.859   6
   1   2 -22 2436.34 580.729   5
   1   2 -21 191.999 301.641   5
  -1  -2  20 2704.79 612.771   7
   1   2 -20 2621.12 656.231   5
  -1  -2  19 14506.1 1156.11   7
   1   2 -19 13928.5 1449.61   5
   1   2 -18 712.747 471.730   5
  -1  -2  18 657.004 341.769   7
  -1  -2  17 6841.06 815.628   7
   1   2 -17 6503.49 1021.29   5
   1   2 -16 2076.12 648.434   5
  -1  -2  16 2244.83 528.964   7
  -1  -2  16 3911.58 1622.93   2
   1   2 -15 209.708 322.336   5
  -1  -2  15-147.030 300.173   7
  -1  -2  15-279.050 609.038   2
   1   2 -14 960.255 474.109   5
  -1  -2  14 791.777 695.310   2
  -1  -2  13 1430.67 814.323   2
  -1  -2  12 1351.69 774.813   2
  -1  -2  11 679.424 582.642   2
  -1  -2  10 1351.87 925.121   2
  -1  -2   9 61313.1 4043.32   2
  -1  -2   8 20800.7 2145.15  12
  -1  -2   8 20280.6 2237.89   2
  -1  -2   8 19246.0 1248.35  13
  -1  -2   7 2720.42 776.929  12
  -1  -2   7 2952.59 489.140  13
  -1  -2   6 4659.39 564.086  13
  -1  -2   6 6322.48 1080.99  12
  -1  -2   5 4335.57 845.417  12
  -1  -2   4 28060.4 1877.59  12
  -1  -2   3 77599.9 2761.23  12
   1   2  -2 8682.93 543.258  13
  -1  -2   2 8413.58 775.650  12
  -1  -2   1 120.767 105.579  12
   1   2  -1 51.5374 134.834  13
  -1  -2   0 2206.57 202.602  12
   1   2   0 2011.34 321.713  13
   1   2   1 37741.6 1437.39  13
  -1  -2  -1 39035.8 1376.21   3
   1   2   2 6393.03 703.792  13
   1   2   2 6549.92 382.766   2
   1   2   3 554.275 193.233   2
   1   2   3 657.949 314.181  13
   1   2   4 6255.48 686.506   2
   1   2   4 5953.73 846.078  13
   1   2   5 5699.62 770.674   2
   1   2   5 3774.20 754.177  13
   1   2   6 220825. 5583.58  13
   1   2   6 193874. 4915.00   2
   1   2   7 17278.6 1698.91  13
   1   2   7 12704.2 1449.09   2
   1   2   8 116441. 4477.58  13
   1   2   8 108892. 4338.76   2
   1   2   9 43468.5 2851.81  13
   1   2   9 41851.4 2881.98   2
   1   2  10 6235.71 1177.52  13
   1   2  10 6692.52 1261.89   2
   1   2  11 153605. 5739.33  13
   1   2  11 158478. 6210.00   2
   1   2  12 1107.27 613.728  13
   1   2  12 2075.06 822.953   2
   1   2  13 3178.31 1013.84   2
   1   2  13 2773.08 871.150  13
   1   2  14 234.189 293.274  13
   1   2  14 903.456 631.050   2
   1   2  15 29465.8 3257.68   2
   1   2  15 31789.3 1579.22   7
   1   2  16 3777.17 631.492   7
   1   2  16 1702.86 809.245   2
   1   2  17-121.102 694.597   2
   1   2  17 1780.19 484.479   7
   1   2  18 6870.35 834.396   7
   1   2  19 997.554 427.373   7
  -1  -2 -20 8469.78 1044.98   5
   1   2  20 8002.39 867.024   7
   1   2  21 7023.70 766.012   7
  -1  -2 -21 7623.98 965.474   5
   1   2  22 544.375 242.636   7
  -1  -2 -22 490.269 305.858   5
   1   2  23 6838.99 654.726   7
  -1  -2 -23 8856.96 831.027   6
  -1  -2 -23 8650.64 828.295   5
  -1  -2 -24 10085.4 772.737   5
   1   2  24 8725.32 575.598   7
  -1  -2 -25 6126.00 451.786   6
   1   3 -24 14.4123 102.018   5
   1   3 -23 2334.85 404.154   5
   1   3 -22 7003.39 792.458   5
   1   3 -22 6457.56 604.812   6
   1   3 -21 1985.09 546.235   5
  -1  -3  21 1588.84 396.963   4
  -1  -3  20 17010.4 1260.60   4
   1   3 -20 20203.2 1547.87   5
   1   3 -19 36439.5 2172.52   5
  -1  -3  19 34123.9 1752.12   7
  -1  -3  18 14103.1 1165.53   7
   1   3 -18 13955.1 1421.14   5
  -1  -3  17 865.103 354.729   7
   1   3 -17 700.517 474.369   5
  -1  -3  16 4937.61 677.142   7
   1   3 -16 5927.93 923.161   5
   1   3 -15 7169.05 1026.01   5
  -1  -3  15 7167.90 805.570   7
  -1  -3  15 7832.25 1970.98   2
  -1  -3  14 39996.1 4118.93   2
  -1  -3  14 40961.4 1867.46   7
   1   3 -14 44486.2 2345.81   5
  -1  -3  13 2805.70 1093.73   2
  -1  -3  12 9363.74 1860.44   2
  -1  -3  11 8191.74 1709.71   2
  -1  -3  10 124793. 6093.16   2
  -1  -3   9 7554.30 1492.09   2
  -1  -3   8 115844. 5365.98   2
  -1  -3   7 94251.2 4643.30   2
  -1  -3   6 38860.6 2818.13   2
  -1  -3   6 37218.7 2604.58  12
  -1  -3   5 12774.8 1439.18  12
  -1  -3   5 13095.9 1611.02   2
  -1  -3   4 1952.36 580.377  12
  -1  -3   3 148498. 3926.41  12
   1   3  -2 980.068 216.866  13
  -1  -3   2 1287.46 348.147  12
   1   3  -1 5563.03 545.754  13
  -1  -3   0 9009.40 856.338   3
   1   3   0 9024.19 733.683  13
  -1  -3   0 10250.4 585.053   2
  -1  -3  -1 117398. 3014.64   3
   1   3   1 120182. 2946.69  13
  -1  -3  -2 3277.29 535.121   3
   1   3   2 3440.88 617.054  13
   1   3   3 118606. 1676.32   2
   1   3   3 125755. 3765.27  13
   1   3   4 2901.72 669.142  13
   1   3   4 2908.60 372.301   2
   1   3   5 3126.62 488.185   2
   1   3   5 2985.52 738.666  13
   1   3   6 16956.3 1363.22   2
   1   3   6 15075.5 1659.05  13
   1   3   7 63594.6 3450.70  13
   1   3   7 42817.1 2406.68   2
   1   3   8 766.678 614.595  13
   1   3   8 153.032 270.615   2
   1   3   9 10092.4 1429.14   2
   1   3   9 10303.5 1525.88  13
   1   3  10 3910.03 982.072   2
   1   3  10 3847.35 990.749  13
   1   3  11 127.416 478.367   2
   1   3  11 9.55047 434.415  13
   1   3  12 35736.6 3058.73   2
   1   3  12 33217.6 2983.04  13
   1   3  13 40748.7 3441.10   2
   1   3  13 36993.7 3233.20  13
   1   3  14 3875.71 1140.50   2
   1   3  14 4465.78 1190.24  13
   1   3  15 60848.7 4373.75  13
   1   3  15 63673.7 4649.47   2
   1   3  15 62491.9 2211.51   7
   1   3  16 7924.97 844.414   7
   1   3  17 5013.98 707.615   7
   1   3  18 733.116 424.310   7
   1   3  19 7864.14 872.534   7
  -1  -3 -20 432.365 362.103   5
   1   3  20-420.719 335.257   7
  -1  -3 -21 4419.31 764.897   5
   1   3  21 4770.84 610.079   7
  -1  -3 -22 4384.91 696.785   5
  -1  -3 -22 5219.77 735.107   6
   1   3  22 4157.33 528.744   7
  -1  -3 -23 443.476 247.201   5
   1   3  23 253.224 177.207   7
  -1  -3 -23 74.2978 231.182   6
  -1  -3 -24 18093.8 918.324   5
  -1  -3 -24 20458.8 1025.48   6
   1   4 -23 416.003 193.456   5
  -1  -4  22 16207.6 899.573   4
   1   4 -22 22102.3 1232.06   5
   1   4 -21 11847.4 1055.22   5
  -1  -4  21 9373.23 842.104   4
  -1  -4  20 1741.03 455.077   4
   1   4 -20 2429.08 587.710   5
  -1  -4  19 7444.06 976.470   4
   1   4 -19 8924.54 1055.21   5
  -1  -4  18 735.017 366.237   7
   1   4 -18 1013.42 478.688   5
  -1  -4  18 904.752 438.868   4
   1   4 -17 420.521 393.786   5
  -1  -4  17 89.9667 329.359   7
  -1  -4  16 769.423 391.825   7
   1   4 -16 416.775 417.940   5
  -1  -4  15 857.696 692.908   2
   1   4 -15 235.042 384.475   5
  -1  -4  15 652.377 412.530   7
  -1  -4  14-280.934 409.030   7
   1   4 -14 327.729 395.517   5
  -1  -4  14-244.832 762.205   2
  -1  -4  13 18186.1 1245.26   7
  -1  -4  13 17984.1 2707.00   2
  -1  -4  12 49498.2 4280.30   2
  -1  -4  11 39170.4 3691.40   2
  -1  -4  10 129257. 6357.67   2
  -1  -4   9 6337.52 1394.74   2
  -1  -4   8 22299.4 2423.80   2
  -1  -4   7 64230.2 3920.30   2
  -1  -4   6 8339.06 1379.82   2
  -1  -4   5 5860.99 1069.43   2
  -1  -4   4 13543.8 1481.89   2
   1   4  -3 28133.5 1006.37  13
  -1  -4   3 29802.8 1951.44   2
  -1  -4   2 5118.85 707.977   2
   1   4  -2 4941.07 517.632  13
  -1  -4   1 159495. 4349.83   3
  -1  -4   1 161322. 2999.33   2
   1   4  -1 155253. 3214.15  13
   1   4   0 10234.4 898.579  13
  -1  -4   0 9989.17 520.876   2
  -1  -4   0 9608.87 1066.94   3
   1   4   1 72109.2 2565.83  13
  -1  -4  -1 69693.8 2726.00   3
   1   4   2 4744.84 763.897  13
  -1  -4  -2 4154.07 717.702   3
   1   4   3 1704.29 527.489  13
  -1  -4  -3 1276.82 477.564   3
   1   4   4 79983.6 1337.60   2
   1   4   4 101377. 3995.75  13
   1   4   5 2032.34 638.131  13
   1   4   5 1600.18 293.435   2
   1   4   6 12205.7 1008.77   2
   1   4   6 10445.7 1514.68  13
   1   4   7 6428.57 1328.55  13
   1   4   7 5347.67 800.796   2
   1   4   8 5577.32 923.706   2
   1   4   8 10032.4 1611.05  13
   1   4   9 2259.49 663.958   2
   1   4   9 2228.96 901.459  13
   1   4  10 86029.5 4750.38  13
   1   4  10 78401.6 3935.39   2
   1   4  11 66239.7 3823.13   2
   1   4  11 68589.7 4368.42  13
   1   4  12 2807.87 933.572  13
   1   4  13 85032.3 5195.11  13
   1   4  14 18360.3 2520.49  13
   1   4  15 7791.12 824.796   7
   1   4  15 6450.81 1564.09  13
   1   4  16-213.416 615.612  13
   1   4  16 408.597 302.324   7
   1   4  17 134.281 306.899   7
   1   4  18-55.8092 297.756   7
   1   4  19 615.322 354.301   7
  -1  -4 -20 1701.15 529.557   6
   1   4  20 2088.55 442.678   7
  -1  -4 -20 1547.29 494.028   5
  -1  -4 -21 498.708 308.086   5
   1   4  21 663.415 318.043   7
  -1  -4 -21 481.395 371.826   6
   1   4  22 281.705 187.960   7
  -1  -4 -22 487.797 291.599   6
  -1  -4 -22 540.561 307.512   5
  -1  -4 -23 443.653 248.294   5
  -1  -4 -23 764.163 286.345   6
  -1  -4 -24 129.468 142.835   6
   1   5 -22 820.175 261.966   5
  -1  -5  22 498.263 188.959   4
   1   5 -21 4966.01 634.027   5
  -1  -5  21 4485.98 589.865   4
   1   5 -20 1219.56 400.343   5
  -1  -5  20 1058.13 351.276   4
   1   5 -19-59.9607 300.590   5
  -1  -5  19 276.245 338.108   4
  -1  -5  18 1295.51 532.044   4
   1   5 -18 1419.94 488.737   5
  -1  -5  17 626.749 387.499   4
   1   5 -17 659.443 408.275   5
  -1  -5  16 503.796 371.903   7
   1   5 -16 769.373 496.315   5
   1   5 -15 15306.6 1481.55   5
  -1  -5  15 15526.3 1263.27   7
  -1  -5  14 4645.11 704.406   7
  -1  -5  14 3518.34 1267.47   2
   1   5 -14 4748.17 848.421   5
  -1  -5  13 72131.5 2597.10   7
   1   5 -13 77949.4 3037.28   5
  -1  -5  13 66982.8 5311.57   2
  -1  -5  12 18303.3 2744.01   2
  -1  -5  11 38421.3 3758.77   2
  -1  -5  10 80283.8 5179.15   2
  -1  -5   9 273.525 440.329   2
  -1  -5   8 47626.7 3673.52   2
  -1  -5   7 10676.7 1685.60   2
  -1  -5   6 17030.9 1944.76   2
  -1  -5   5 43365.8 2838.90   2
  -1  -5   4 32537.1 2209.47   2
  -1  -5   3 203826. 4826.76   2
   1   5  -3 193338. 3004.32  13
   1   5  -2 68006.1 2190.34  13
  -1  -5   2 64011.2 2296.09   2
  -1  -5   2 66109.7 3287.71   3
  -1  -5   1 28575.5 2099.41   3
  -1  -5   1 28104.8 1244.41   2
   1   5  -1 29970.0 1591.41  13
  -1  -5   0 136.983 49.0360   2
   1   5   0 223.029 236.726  13
  -1  -5   0 245.749 307.463   3
   1   5   1 90156.6 3224.95  13
  -1  -5  -1 88298.9 3549.29   3
   1   5   2 11397.8 1259.74  13
  -1  -5  -2 9902.38 1205.91   3
  -1  -5  -3 5890.08 974.170   3
   1   5   3 5878.44 1022.70  13
   1   5   4 17138.2 1803.94  13
   1   5   5 7108.63 1261.31  13
   1   5   6 2584.12 873.112  13
   1   5   7 35555.6 3046.09  13
   1   5   8 65290.2 4224.12  13
   1   5   9 24488.3 2694.92  13
   1   5  10 3974.77 1184.52  13
   1   5  11 64033.5 4561.31  13
   1   5  12 70008.7 4866.69  13
   1   5  13 26753.2 3081.34  13
   1   5  14 43788.9 1854.09   7
   1   5  14 41866.9 3979.75  13
   1   5  15 4346.81 1469.14  13
   1   5  15 5529.30 734.113   7
   1   5  16-54.1650 325.046   7
   1   5  17 602.495 308.828   7
  -1  -5 -18 2894.06 684.684   6
   1   5  18 1937.96 488.164   7
   1   5  19 7962.71 814.237   7
  -1  -5 -19 7120.17 892.565   5
  -1  -5 -19 7927.64 990.827   6
  -1  -5 -20 1830.18 525.797   6
   1   5  20 2558.19 459.115   7
  -1  -5 -20 2078.67 485.510   5
  -1  -5 -21 12900.5 1087.33   6
  -1  -5 -21 11806.8 995.862   5
  -1  -5 -22 6841.69 680.695   5
  -1  -5 -22 8490.69 795.670   6
  -1  -5 -23 215.455 189.647   6
  -1  -5 -24 3993.15 400.611   6
  -1  -6  21 2211.33 379.381   4
   1   6 -21 1516.77 311.913   5
  -1  -6  20 1308.37 379.195   4
   1   6 -20 930.140 353.243   5
   1   6 -19 10563.9 1034.85   5
  -1  -6  19 13221.7 1148.27   4
   1   6 -18 1327.07 455.873   5
  -1  -6  18 811.701 398.290   4
   1   6 -17 17878.7 1495.71   5
  -1  -6  17 16436.7 1516.48   4
  -1  -6  16 9745.53 1196.27   4
   1   6 -16 6757.36 1023.06   5
  -1  -6  15 6126.92 1006.17   4
   1   6 -15 4428.53 817.246   5
   1   6 -14 7578.38 990.498   5
  -1  -6  14 8635.98 1203.46   4
   1   6 -13 22158.1 1606.68   5
  -1  -6  13 24349.0 1863.66   4
  -1  -6  13 20672.1 3070.33   2
   1   6 -12 12317.1 1186.50   5
  -1  -6  12 10482.7 2186.92   2
  -1  -6  12 9848.22 957.542   7
  -1  -6  12 11633.5 1315.96   4
  -1  -6  11 8978.09 1950.84   2
  -1  -6  10 17271.8 2539.95   2
  -1  -6   9 2202.76 981.603   2
  -1  -6   8 284.643 465.434   2
  -1  -6   7 3924.10 1033.65   2
  -1  -6   6 2136.59 690.012   2
  -1  -6   5 11903.1 1479.05   2
  -1  -6   4 790.523 554.456   3
  -1  -6   4 1197.40 460.478   2
  -1  -6   3 20563.6 1511.39   2
  -1  -6   3 21733.4 2197.34   3
   1   6  -2 17317.1 1226.76  13
  -1  -6   2 16310.6 1146.03   2
  -1  -6   2 16571.6 1848.14   3
  -1  -6   1 29807.5 2401.06   3
   1   6  -1 31300.5 1813.19  13
  -1  -6   0-64.7606 328.493   3
   1   6   0-23.2031 233.830  13
  -1  -6  -1 432.576 285.200   3
   1   6   1 796.363 419.640  13
  -1  -6  -2 229.680 259.686   3
   1   6   2 1188.82 495.150  13
  -1  -6  -3 39507.5 2713.20   3
   1   6   3 40531.2 2799.28  13
   1   6   4 5825.33 1166.79  13
   1   6   5 14124.3 1890.44  13
   1   6   6 22351.1 2511.52  13
   1   6   7 1504.15 774.029  13
   1   6   8 41416.1 3634.12  13
   1   6   9 23691.5 2591.79  13
   1   6  10 695.812 527.791  13
   1   6  11 9404.14 1866.12  13
   1   6  12 1597.73 940.684  13
   1   6  13 789.699 693.421  13
  -1  -6 -13 993.816 431.947   6
  -1  -6 -14 13055.1 1336.91   6
   1   6  14 10966.5 2258.46  13
   1   6  15-282.022 649.873  13
  -1  -6 -15 878.384 484.102   6
  -1  -6 -16 510.886 458.311   6
  -1  -6 -17 6760.99 955.606   6
  -1  -6 -18 2396.30 619.474   6
  -1  -6 -19 7933.98 974.912   6
  -1  -6 -20 11586.0 1065.82   6
  -1  -6 -21 76.8181 241.213   6
  -1  -6 -22 12978.8 905.710   6
  -1  -6 -23 15666.0 847.515   6
  -1  -7  21 486.765 194.883   4
  -1  -7  20 6053.58 660.226   4
   1   7 -20 4516.84 514.460   5
  -1  -7  19 1435.65 406.708   4
   1   7 -19 1904.98 419.511   5
  -1  -7  18 3135.67 664.202   4
   1   7 -18 2238.78 492.897   5
   1   7 -17 6070.86 861.462   5
  -1  -7  17 7706.02 1025.17   4
   1   7 -16 310.668 368.253   5
  -1  -7  16-21.3892 288.758   4
  -1  -7  15 8024.48 1112.55   4
   1   7 -15 7530.76 998.331   5
   1   7 -14 1733.05 532.613   5
  -1  -7  14 2361.65 727.536   4
  -1  -7  13 12093.2 1385.91   4
  -1  -7  12 2605.46 683.663   4
  -1  -7  12 1535.97 874.391   2
  -1  -7  11 14089.9 2393.98   2
  -1  -7  11 14683.7 1467.28   4
  -1  -7  10 17645.6 1527.17   4
  -1  -7  10 16071.4 2488.38   2
  -1  -7   9 18754.6 2533.18   2
  -1  -7   8 111697. 5840.13   2
  -1  -7   7 11859.7 1765.42   2
  -1  -7   6 10742.2 1910.26   3
  -1  -7   6 9530.59 1466.86   2
  -1  -7   5 8856.61 1674.18   3
  -1  -7   5 9464.78 1310.49   2
  -1  -7   4 29067.0 2834.26   3
  -1  -7   3 12912.9 1857.05   3
  -1  -7   2 19945.4 2204.10   3
   1   7  -1 155.532 201.220  13
  -1  -7   1 223.263 305.688   3
   1   7   0 13815.6 1430.76  13
  -1  -7   0 12336.4 1694.19   3
   1   7   1 58708.4 3126.22  13
  -1  -7  -1 63148.3 3765.15   3
   1   7   2 10886.5 1442.02  13
  -1  -7  -2 11324.5 1594.75   3
  -1  -7  -3 32405.5 2710.22   3
   1   7   3 33977.9 2711.80  13
   1   7   4 63581.7 3992.47  13
   1   7   5 12679.7 1904.38  13
   1   7   6 7712.63 1457.82  13
   1   7   7 929.022 590.240  13
   1   7   8 2973.24 1041.79  13
   1   7   9 11887.3 2190.30  13
   1   7  10 11068.3 2100.72  13
   1   7  11 44426.8 4252.75  13
  -1  -7 -12 239.683 264.053   6
   1   7  12 422.932 658.181  13
   1   7  13 37918.6 4137.33  13
  -1  -7 -13 32486.3 2013.18   6
  -1  -7 -14 1303.07 490.039   6
   1   7  14 1827.02 1097.97  13
  -1  -7 -15 26177.4 1842.64   6
  -1  -7 -16 2511.19 617.676   6
  -1  -7 -17 6208.09 891.927   6
  -1  -7 -18 407.529 359.570   6
  -1  -7 -19 872.974 396.814   6
  -1  -7 -20 5181.35 662.959   6
  -1  -7 -21 5586.08 616.706   6
  -1  -7 -22 1881.19 334.508   6
  -1  -7 -23 7454.42 504.908   6
  -1  -8  20 20381.0 1014.16   4
  -1  -8  19 1805.60 416.861   4
  -1  -8  18 1167.13 406.874   4
  -1  -8  17 2051.48 534.923   4
  -1  -8  16 4385.81 781.187   4
  -1  -8  15 804.313 483.157   4
  -1  -8  14 995.241 500.847   4
  -1  -8  13 13779.5 1537.85   4
  -1  -8  12 418.998 406.539   4
  -1  -8  11 16201.9 3064.53   3
  -1  -8  11 14954.1 1511.29   4
  -1  -8  10 54493.5 5454.38   3
  -1  -8  10 52504.3 2741.52   4
  -1  -8   9 9110.79 1153.17   4
  -1  -8   9 9100.81 2166.20   3
  -1  -8   8 44412.8 2287.42   4
  -1  -8   8 40232.9 4261.48   3
  -1  -8   7 56997.3 4856.47   3
  -1  -8   6 20918.2 2831.32   3
  -1  -8   5 25440.7 2989.48   3
  -1  -8   4 4007.13 1160.19   3
  -1  -8   3 18651.9 2397.62   3
  -1  -8   2 3429.89 978.098   3
  -1  -8   1 646.014 453.630   3
  -1  -8   0 2753.00 879.128   3
  -1  -8  -1 52302.0 3787.38   3
   1   8   1 52168.1 3115.83  13
  -1  -8  -2 1992.53 719.713   3
   1   8   2 2092.17 729.391  13
   1   8   3 34848.9 2950.37  13
  -1  -8  -3 35197.5 3115.45   3
   1   8   4 1795.56 812.513  13
   1   8   5-152.683 423.635  13
   1   8   6 15229.4 2293.63  13
   1   8   7 19863.0 2731.05  13
   1   8   8 30992.1 3512.62  13
   1   8   9 18947.7 2855.62  13
   1   8  10 84174.3 6044.60  13
   1   8  11 9957.73 2170.77  13
  -1  -8 -11 9515.98 1067.21   6
   1   8  12 53362.2 4993.86  13
  -1  -8 -12 49477.5 2434.55   6
  -1  -8 -13 5154.17 717.256  11
  -1  -8 -13 3488.17 696.352   6
  -1  -8 -14 10405.8 1138.27   6
  -1  -8 -15 1405.18 441.622   6
  -1  -8 -16 14687.6 1338.66   6
  -1  -8 -17 1688.86 498.205   6
  -1  -8 -18 961.234 398.078   6
  -1  -8 -19 94.4391 281.316   6
  -1  -8 -20 6520.97 668.481   6
  -1  -8 -21 6937.63 607.972   6
  -1  -8 -22 241.771 137.328   6
  -1  -9  20 1594.58 247.055   4
  -1  -9  19 11576.0 779.606   4
  -1  -9  18 2994.33 507.585   4
  -1  -9  17 2947.97 542.335   4
  -1  -9  16 11702.4 1143.44   4
  -1  -9  15 2616.24 612.309   4
  -1  -9  14 11702.4 1323.28   4
  -1  -9  13 10335.3 1268.63   4
  -1  -9  12 7186.13 1044.51   4
  -1  -9  11 7393.54 1053.01   4
  -1  -9  10 183.254 335.644   4
  -1  -9   9 1159.51 845.324   3
  -1  -9   9 583.414 449.306   4
  -1  -9   8 202.973 304.655   1
  -1  -9   8 749.829 625.970   3
  -1  -9   8 317.612 385.601   4
  -1  -9   7 13413.4 1297.17   4
  -1  -9   7 11950.0 2415.49   3
  -1  -9   7 11729.6 1044.63   1
  -1  -9   6 657.401 775.379   3
  -1  -9   6 1222.69 488.195   4
  -1  -9   5 1425.66 847.493   3
  -1  -9   4 7046.74 1692.22   3
  -1  -9   3 632.516 564.627   3
  -1  -9   2 47390.0 4015.58   3
  -1  -9   1 52029.5 4150.46   3
  -1  -9   0 20250.3 2586.26   3
  -1  -9  -1 153407. 7129.63   3
  -1  -9  -2 20955.3 2593.58   3
   1   9   2 20790.6 2261.41  13
   1   9   3 28736.8 2814.17  13
   1   9   4 2929.92 1051.07  13
   1   9   5 6794.94 1498.99  13
   1   9   6 3326.29 1183.18  13
   1   9   7 8437.06 1921.04  13
   1   9   8 13165.7 2414.41  13
   1   9   9 502.288 693.173  13
  -1  -9 -10 1111.70 419.292  11
  -1  -9 -10 1146.48 302.678   6
   1   9  10 1900.08 1001.53  13
  -1  -9 -11-125.926 336.086  11
  -1  -9 -11 64.9899 272.939   6
  -1  -9 -12 785.152 404.250   6
  -1  -9 -12 657.845 336.940  11
  -1  -9 -13 4314.19 721.400   6
  -1  -9 -13 5364.67 752.562  11
  -1  -9 -14 30042.5 1711.84  11
  -1  -9 -14 26857.5 1760.21   6
  -1  -9 -15 1607.44 476.417   6
  -1  -9 -16 22673.5 1551.96   6
  -1  -9 -17 2553.20 590.295   6
  -1  -9 -18 6752.62 763.945   6
  -1  -9 -19 16445.5 1039.27   6
  -1  -9 -20 2337.44 360.346   6
  -1  -9 -21 10408.4 612.284   6
  -1 -10  19 2102.75 277.995   4
  -1 -10  18 12225.6 793.914   4
  -1 -10  17 3098.25 502.106   4
  -1 -10  16 20560.2 1370.12   4
  -1 -10  15 9177.58 1044.26   4
  -1 -10  14 7426.67 1031.55   4
  -1 -10  13 4968.66 841.237   4
  -1 -10  12 952.867 366.192   4
  -1 -10  11 1046.48 357.375   4
  -1 -10  10 459.860 461.570   4
  -1 -10   9 13433.6 1093.55   1
  -1 -10   9 14836.8 1490.72   4
  -1 -10   8-160.984 381.657   1
  -1 -10   8 439.139 354.209   4
  -1 -10   7 52.7802 460.645   3
  -1 -10   7 415.926 351.051   1
  -1 -10   7 452.146 322.686   4
  -1 -10   6 365.650 390.921   3
  -1 -10   6 315.099 299.314   1
  -1 -10   6 191.311 305.953   4
  -1 -10   5 178.490 309.671   1
  -1 -10   5 68.4444 476.387   3
  -1 -10   5 441.026 288.632   4
  -1 -10   4 6098.43 825.121   4
  -1 -10   4 5616.77 1567.41   3
  -1 -10   4 6823.09 852.968   1
  -1 -10   3 241.229 313.643   1
  -1 -10   3 305.221 546.904   3
  -1 -10   3 149.178 291.272   4
  -1 -10   2 6595.84 1616.77   3
  -1 -10   2 7760.06 860.139   1
  -1 -10   2 6577.65 780.296   4
  -1 -10   1 23715.3 3034.65   3
  -1 -10   1 24311.2 1503.84   1
  -1 -10   0 15643.8 2457.24   3
  -1 -10   0 14852.0 1147.58   1
  -1 -10  -1 28353.5 3287.13   3
  -1 -10  -1 25326.9 1470.11   1
  -1 -10  -2 62662.0 2329.42   1
  -1 -10  -2 65185.0 4960.58   3
  -1 -10  -3 1567.57 489.039  11
  -1 -10  -3 1205.93 437.316   1
  -1 -10  -4 33391.1 1959.31  11
   1  10   4 32361.3 3323.13  13
  -1 -10  -5 34611.7 2046.90  11
   1  10   5 39957.9 3867.76  13
  -1 -10  -6 639.277 404.655  11
   1  10   6 1181.91 855.348  13
   1  10   7 23183.0 3232.35  13
  -1 -10  -7 22182.0 1698.38  11
  -1 -10  -8-97.3165 391.544  11
   1  10   8-999.937 1100.49  13
   1  10   9 18934.2 3082.69  13
  -1 -10  -9 23349.9 1712.52  11
  -1 -10 -10 6518.59 906.018  11
  -1 -10 -10 6249.04 797.218   6
  -1 -10 -11 1816.02 482.873   6
  -1 -10 -11 2402.20 619.131  11
  -1 -10 -12-79.1025 282.290   6
  -1 -10 -12 647.217 409.661  11
  -1 -10 -13 2174.54 524.746  11
  -1 -10 -13 1339.53 339.151   6
  -1 -10 -14 16907.2 1244.88  11
  -1 -10 -14 13422.5 1173.86   6
  -1 -10 -15 3684.66 640.864   6
  -1 -10 -16 49653.8 2072.02   6
  -1 -10 -17 2829.70 492.064   6
  -1 -10 -18 19765.7 1091.53   6
  -1 -10 -19 8634.95 646.481   6
  -1 -10 -20 1378.65 220.096   6
  -1 -11  17 20401.2 968.617   4
  -1 -11  16 821.071 269.701   4
  -1 -11  15 5117.61 671.470   4
  -1 -11  14 12606.5 1148.76   4
  -1 -11  13 299.436 381.696   4
  -1 -11  12 6368.15 945.403   4
  -1 -11  11 3546.91 682.039   4
  -1 -11  10-822.335 607.234   4
  -1 -11   9 21340.4 1366.04   1
  -1 -11   9 19395.3 1645.79   4
  -1 -11   8 42.1439 353.747   1
  -1 -11   8 549.208 409.158   4
  -1 -11   7 638.063 384.138   1
  -1 -11   7 276.353 294.716   4
  -1 -11   6 27.3211 368.976   1
  -1 -11   6 59.3305 279.431   4
  -1 -11   5 25087.3 1656.47   4
  -1 -11   5 18411.2 1379.20   1
  -1 -11   4 7895.41 953.939   1
  -1 -11   4 7733.33 901.505   4
  -1 -11   3 7772.95 1932.50   3
  -1 -11   3 8012.90 969.864   1
  -1 -11   3 7504.21 905.186   4
  -1 -11   2 9692.65 2075.73   3
  -1 -11   2 10302.3 1021.77   4
  -1 -11   2 11436.8 1115.71   1
  -1 -11   2 10529.5 995.706  11
  -1 -11   1 2198.04 523.284  11
  -1 -11   1 2577.06 530.969   4
  -1 -11   1 3018.81 597.076   1
  -1 -11   1 2667.69 1207.78   3
  -1 -11   0 3296.32 597.602  11
  -1 -11   0 3582.40 647.839   1
  -1 -11   0 3917.95 1353.50   3
  -1 -11   0 3162.46 577.506   4
  -1 -11  -1 2219.17 526.444   1
  -1 -11  -1 2246.40 444.531   4
  -1 -11  -1 2724.84 1063.74   3
  -1 -11  -1 1914.56 443.383  11
  -1 -11  -2 13469.0 1067.35   4
  -1 -11  -2 14443.3 1277.95  11
  -1 -11  -2 14711.5 1209.01   1
  -1 -11  -3 27049.5 1485.35   4
  -1 -11  -3 26836.6 1797.18  11
  -1 -11  -4 1525.11 400.215   4
  -1 -11  -4 2143.21 589.092  11
  -1 -11  -5 7768.28 1017.31  11
  -1 -11  -6 3427.99 686.406  11
  -1 -11  -7 3449.71 712.050  11
  -1 -11  -8 7626.29 1079.19  11
  -1 -11  -9 2271.26 658.381  11
  -1 -11 -10 4297.59 790.510  11
  -1 -11 -11 3628.69 673.777  11
  -1 -11 -12 26.5226 244.077   6
  -1 -11 -12 373.905 397.374  11
  -1 -11 -13 9231.17 943.185  11
  -1 -11 -13 6443.97 763.887   6
  -1 -11 -14 10378.7 946.919  11
  -1 -11 -14 8671.72 858.358   6
  -1 -11 -15 6415.88 723.143   6
  -1 -11 -15 7523.00 735.257  11
  -1 -11 -16 11343.0 876.282   6
  -1 -11 -17 3554.35 439.719   6
  -1 -11 -18 3140.80 353.337   6
  -1 -12  16 660.028 193.579   4
  -1 -12  15 664.444 240.180   4
  -1 -12  14 2136.98 430.760   4
  -1 -12  13 15745.7 1162.52   4
  -1 -12  12 841.243 388.728   4
  -1 -12  11 18481.4 1428.18   4
  -1 -12  10 890.872 403.079   4
  -1 -12   9 17467.9 1188.09   1
  -1 -12   9 17611.2 1456.15   4
  -1 -12   8 24788.8 1466.99   1
  -1 -12   8 25698.8 1770.50   4
  -1 -12   7 327.222 374.048   1
  -1 -12   7 76.3806 282.726   4
  -1 -12   6 602.837 362.219   1
  -1 -12   6 883.919 433.855   4
  -1 -12   5 13243.6 1211.92   4
  -1 -12   5 9244.15 964.822   1
  -1 -12   4 1535.55 603.853   1
  -1 -12   4 1164.80 414.256   4
  -1 -12   3 17500.9 1336.40   4
  -1 -12   3 19749.2 1507.57   1
  -1 -12   2 4000.08 760.910   1
  -1 -12   2 4043.39 653.980  11
  -1 -12   2 4159.47 660.228   4
  -1 -12   1 5211.25 823.594   1
  -1 -12   1 4561.28 648.951   4
  -1 -12   1 4369.41 693.848  11
  -1 -12   0 22218.3 1421.12   4
  -1 -12   0 26358.7 1668.07   1
  -1 -12   0 24347.1 1580.40  11
  -1 -12  -1 2670.09 576.621  11
  -1 -12  -1 2486.06 479.663   4
  -1 -12  -2 5155.13 824.742  11
  -1 -12  -2 4167.40 611.381   4
  -1 -12  -3 680.494 327.716   4
  -1 -12  -3 846.150 484.708  11
  -1 -12  -4 38347.6 2233.77  11
  -1 -12  -5 10348.4 1160.90  11
  -1 -12  -6 4700.53 825.831  11
  -1 -12  -7 2292.05 642.550  11
  -1 -12  -8-130.866 377.960  11
  -1 -12  -9 1310.74 535.846  11
  -1 -12 -10 665.669 375.606  11
  -1 -12 -11 22175.5 1530.03  11
  -1 -12 -12 33632.8 1774.85  11
  -1 -12 -13 556.183 318.949  11
  -1 -12 -14 15164.6 1028.44  11
  -1 -12 -15 305.404 222.326  11
  -1 -13  14 1136.44 265.529   4
  -1 -13  13 1478.61 327.535   4
  -1 -13  12 2162.99 418.060   4
  -1 -13  11 6683.61 772.457   4
  -1 -13  10-703.618 398.211   4
  -1 -13   9 2316.97 502.643   4
  -1 -13   8 607.219 401.671   4
  -1 -13   7 12558.2 1182.14   4
  -1 -13   6 436.277 359.166   4
  -1 -13   5 24867.3 1603.82   4
  -1 -13   4 12564.7 1115.77   4
  -1 -13   3 56381.4 2286.29   4
  -1 -13   2 30871.2 1636.31   4
  -1 -13   2 26406.6 1506.75  11
  -1 -13   1 5947.69 710.547   4
  -1 -13   1 4688.29 672.155  11
  -1 -13   0 53843.8 2306.48  11
  -1 -13   0 52830.7 2086.11   4
  -1 -13  -1 5007.22 630.102   4
  -1 -13  -1 4902.31 790.143  11
  -1 -13  -2-40.1330 209.359   4
  -1 -13  -2 6.86749 407.893  11
  -1 -13  -3 3149.82 704.252  11
  -1 -13  -4 7967.08 1030.95  11
  -1 -13  -5 11205.4 1228.65  11
  -1 -13  -6 114.309 392.293  11
  -1 -13  -7 7162.74 931.905  11
  -1 -13  -8 556.394 391.699  11
  -1 -13  -9 12409.5 1154.92  11
  -1 -13 -10 11103.2 1073.94  11
  -1 -13 -11 759.179 342.241  11
  -1 -13 -12 6828.50 746.017  11
  -1 -13 -13 861.255 299.775  11
  -1 -13 -14 704.471 249.827  11
  -1 -13 -15 7802.81 555.930  11
  -1 -14  12 2661.33 344.514   4
  -1 -14  11 2762.48 402.155   4
  -1 -14  10-180.679 227.248   4
  -1 -14   9 517.016 265.183   4
  -1 -14   8 1331.88 286.455   4
  -1 -14   7 6204.68 712.490   4
  -1 -14   6 165.853 256.883   4
  -1 -14   5 15797.9 1128.99   4
  -1 -14   4 1725.91 428.868   4
  -1 -14   3 903.204 308.273   4
  -1 -14   2 3428.13 522.417   4
  -1 -14   1 2412.25 469.363  11
  -1 -14   1 2479.27 435.707   4
  -1 -14   0 2317.34 502.357  11
  -1 -14   0 2995.11 448.862   4
  -1 -14  -1 9647.87 971.576  11
  -1 -14  -1 9007.40 777.432   4
  -1 -14  -2 28061.2 1659.11  11
  -1 -14  -3-424.650 336.985  11
  -1 -14  -4 36821.7 2002.81  11
  -1 -14  -5 306.509 366.532  11
  -1 -14  -6 14522.2 1275.72  11
  -1 -14  -7 1356.81 428.134  11
  -1 -14  -8 7275.08 934.989  11
  -1 -14  -9 5162.16 727.364  11
  -1 -14 -10 1092.82 424.370  11
  -1 -14 -11 261.540 222.407  11
  -1 -14 -12 3843.24 494.916  11
  -1 -14 -13 13629.7 791.229  11
  -1 -15   9 481.082 166.847   4
  -1 -15   8 3631.69 398.006   4
  -1 -15   7 5230.53 506.302   4
  -1 -15   6 2489.81 382.602   4
  -1 -15   5 1338.64 305.145   4
  -1 -15   4 766.207 259.245   4
  -1 -15   3 1817.45 337.228   4
  -1 -15   2 4361.27 485.726   4
  -1 -15   0 18931.4 1096.91  11
  -1 -15  -1 206.015 258.480  11
  -1 -15  -2 15490.2 1105.59  11
  -1 -15  -3 342.355 307.413  11
  -1 -15  -4 7656.83 832.980  11
  -1 -15  -5 970.073 366.532  11
  -1 -15  -6 2435.05 483.101  11
  -1 -15  -7-5.77022 269.282  11
  -1 -15  -8 4409.14 624.417  11
  -1 -15  -9 889.640 328.417  11
  -1 -15 -10 2050.76 372.464  11
  -1 -15 -11 9896.12 671.978  11
  -1 -15 -12 951.066 226.003  11
  -1 -16  -1 1526.18 272.320  11
  -1 -16  -2 3212.72 407.355  11
  -1 -16  -3 872.968 271.763  11
  -1 -16  -4 1993.39 369.398  11
  -1 -16  -5 4618.66 532.361  11
  -1 -16  -6 551.358 217.041  11
  -1 -16  -7 5023.68 516.983  11
  -1 -16  -8 3304.98 422.340  11
  -1 -16  -9 6215.00 494.500  11
   2 -15  -9 531.211 170.698  11
   2 -15  -8 17195.6 894.587  11
   2 -15  -7 11694.2 819.325  11
   2 -15  -6 3113.53 448.329  11
   2 -15  -5 5912.90 642.225  11
   2 -15  -4 816.714 356.719  11
   2 -15  -3 2312.05 471.477  11
   2 -15  -2 5163.74 612.111  11
   2 -15  -1 7993.47 727.793  11
   2 -15   0 1749.75 341.996  11
   2 -15   1 9829.90 712.040  11
   2 -15   2 12715.3 755.348  11
   2 -14 -11 2288.21 314.982  11
   2 -14 -10 1286.62 303.298  11
   2 -14  -9 6796.00 684.545  11
   2 -14  -8 783.039 361.476  11
   2 -14  -7 3016.18 544.008  11
   2 -14  -6 6846.84 773.722  11
   2 -14  -5 1580.48 447.787  11
   2 -14  -4 4123.46 709.435  11
   2 -14  -3 1898.71 558.309  11
   2 -14  -2 2211.45 535.857  11
   2 -14  -1 14758.9 1164.11  11
   2 -14   0 1704.70 445.004  11
   2 -14   1 5589.06 690.840  11
   2 -14   2 914.147 258.824  11
   2 -14   3 1018.87 282.074  11
   2 -14   3 5445.89 802.883   1
   2 -14   4 4283.43 730.562   1
   2 -14   5 2236.97 444.005   1
   2 -14   6 4801.50 646.490   1
   2 -13 -13 870.443 214.760   6
   2 -13 -12 670.072 212.414  11
   2 -13 -12 522.922 203.909   6
   2 -13 -11 8728.97 725.462   6
   2 -13 -11 11620.3 861.676  11
   2 -13 -10 1829.69 450.555  11
   2 -13 -10 1134.11 313.492   6
   2 -13  -9 1071.38 399.461  11
   2 -13  -9 841.412 306.479   6
   2 -13  -8 16138.5 1100.94   6
   2 -13  -8 15556.5 1256.47  11
   2 -13  -7 1531.54 497.740  11
   2 -13  -7 1548.04 414.465   6
   2 -13  -6 16099.2 1103.51   6
   2 -13  -6 14866.7 1294.59  11
   2 -13  -5 27336.9 1722.01  11
   2 -13  -4 205.107 348.535  11
   2 -13  -3 23507.5 1654.15  11
   2 -13  -2 123.891 336.755  11
   2 -13  -1 13404.1 1237.01  11
   2 -13  -1 14079.1 1189.02   1
   2 -13   0 1670.83 525.844   1
   2 -13   0 1217.67 449.008  11
   2 -13   1 4907.13 741.839  11
   2 -13   1 6375.94 888.842   1
   2 -13   2 843.596 396.070  11
   2 -13   2 1358.81 587.586   1
   2 -13   3 685.813 540.773   1
   2 -13   3 109.065 293.338  11
   2 -13   4 2089.81 432.645  11
   2 -13   4 4394.63 751.239   1
   2 -13   5-127.698 492.485   1
   2 -13   6 1032.53 410.341   1
   2 -13   7 155.359 305.269   1
   2 -13   8 9644.71 872.813   1
   2 -13   9 1318.92 321.325   4
   2 -13   9 1177.89 323.551   1
   2 -13  10 3504.39 478.271   1
   2 -13  10 1850.73 361.114   4
   2 -13  11 9147.26 697.757   4
   2 -13  12 1003.05 240.040   4
   2 -12 -16 7016.15 480.325   6
   2 -12 -15 520.762 201.314   6
   2 -12 -14 709.960 273.267   6
   2 -12 -13 154.291 186.427   6
   2 -12 -13-44.6572 167.878  11
   2 -12 -12 552.152 250.363   6
   2 -12 -12 945.271 284.769  11
   2 -12 -11 4280.59 586.328   6
   2 -12 -11 6089.70 725.507  11
   2 -12 -10 0.33095 287.135  11
   2 -12 -10-611.941 365.849   6
   2 -12  -9 7092.10 817.198   6
   2 -12  -9 7459.27 943.075  11
   2 -12  -8 22086.1 1634.53  11
   2 -12  -8 23030.0 1449.33   6
   2 -12  -7 1402.50 379.310   6
   2 -12  -7 2217.08 631.097  11
   2 -12  -6 9705.87 948.104   6
   2 -12  -6 11478.6 1101.58   8
   2 -12  -6 7765.02 1047.72  11
   2 -12  -5 6253.08 867.943   8
   2 -12  -5 6081.24 740.762   6
   2 -12  -5 5510.90 885.666  11
   2 -12  -4 3341.46 561.056   6
   2 -12  -4 1500.05 415.200   8
   2 -12  -4 2750.56 622.527  11
   2 -12  -3 9679.11 889.859   6
   2 -12  -3 9909.71 1164.80  11
   2 -12  -3 9199.90 1079.64   8
   2 -12  -3 10232.8 1040.76   1
   2 -12  -2 13414.0 1316.32   8
   2 -12  -2 12351.1 1122.60   1
   2 -12  -2 12775.7 1285.26  11
   2 -12  -1 2253.42 724.455   8
   2 -12  -1 1525.84 462.922   1
   2 -12  -1 1283.35 448.428  11
   2 -12   0 5090.51 825.529  11
   2 -12   0 5321.32 773.952   1
   2 -12   1 34432.2 1939.89  11
   2 -12   1 38592.3 1972.88   1
   2 -12   2 33.1974 314.166  11
   2 -12   2 232.643 410.371   1
   2 -12   3 16298.8 1290.03  11
   2 -12   3 18490.5 1441.64   1
   2 -12   4 28000.5 1772.53   1
   2 -12   4 26243.7 1553.69  11
   2 -12   5 663.744 380.383   1
   2 -12   6 8167.56 938.023   1
   2 -12   6 8801.39 913.519   4
   2 -12   7 2657.19 548.901   4
   2 -12   7 2560.89 617.874   1
   2 -12   8 13030.4 1108.42   4
   2 -12   8 14855.4 1206.50   1
   2 -12   9 554.954 348.343   4
   2 -12   9 60.6884 309.074   1
   2 -12  10 103.829 283.801   1
   2 -12  10-182.692 283.889   4
   2 -12  11 5247.79 611.678   1
   2 -12  11 3091.88 545.560   4
   2 -12  12 6371.06 736.125   4
   2 -12  12 6885.69 629.785   1
   2 -12  13 18604.5 1135.05   4
   2 -12  14-24.7393 163.709   4
   2 -12  15 23470.0 969.337   4
   2 -11 -17 471.854 212.296   6
   2 -11 -16 4253.63 509.961   6
   2 -11 -15-183.451 204.747   6
   2 -11 -14 2799.46 484.967   6
   2 -11 -13 6844.31 776.310   6
   2 -11 -13 9149.08 822.356  11
   2 -11 -12 4757.92 636.540  11
   2 -11 -12 3217.28 574.740   6
   2 -11 -11 47673.4 2134.56  11
   2 -11 -11 48433.0 2230.76   6
   2 -11 -10 7348.51 925.402   6
   2 -11 -10 5082.79 766.404  11
   2 -11  -9 21743.1 1510.07   6
   2 -11  -9 19355.4 1531.17  11
   2 -11  -9 18708.1 1241.09   8
   2 -11  -8 21303.4 1679.26  11
   2 -11  -8 20770.8 1415.48   8
   2 -11  -8 21367.8 1491.19   6
   2 -11  -7 1790.58 627.446  11
   2 -11  -7 2331.13 582.983   8
   2 -11  -7 1832.59 503.227   6
   2 -11  -6 713.801 294.314   6
   2 -11  -6 424.266 392.363   8
   2 -11  -6 824.085 438.712  11
   2 -11  -5 7280.15 921.871   8
   2 -11  -5 7344.15 834.788   6
   2 -11  -5 5245.96 862.573  11
   2 -11  -4 10316.4 1103.77   8
   2 -11  -4 13137.6 1087.94   6
   2 -11  -4 13429.8 1114.44   1
   2 -11  -4 12315.8 1270.57  11
   2 -11  -3 9.91063 381.121  11
   2 -11  -3 991.900 539.478   8
   2 -11  -3 356.361 355.171   1
   2 -11  -3 24.1929 313.648   6
   2 -11  -2 6772.06 750.922   6
   2 -11  -2 7563.09 881.673   1
   2 -11  -2 8017.27 1025.63  11
   2 -11  -2 8099.67 1058.01   8
   2 -11  -1 11212.1 1163.39  11
   2 -11  -1 11992.0 1084.16   1
   2 -11  -1 12740.6 1246.79   8
   2 -11  -1 11242.7 978.721   6
   2 -11   0 1887.23 478.772  11
   2 -11   0 3541.29 747.076   8
   2 -11   0 2777.77 591.454   1
   2 -11   1 26436.0 1654.41   1
   2 -11   1 23570.8 1595.22  11
   2 -11   1 27693.3 1705.78   8
   2 -11   2-105.012 316.932  11
   2 -11   2 1020.05 599.138   8
   2 -11   2-288.398 470.981   1
   2 -11   3 19598.0 1457.33   1
   2 -11   3 18022.1 1343.87  11
   2 -11   4 614.174 370.955  11
   2 -11   4 107.444 499.964   1
   2 -11   5 6701.31 815.342  11
   2 -11   5 5464.11 761.546   1
   2 -11   6 21493.6 1477.25   4
   2 -11   6 18787.8 1390.58   1
   2 -11   7 2557.01 560.546   4
   2 -11   7 3394.50 723.067   1
   2 -11   8 3337.21 735.193   1
   2 -11   8 2695.32 578.303   4
   2 -11   9 3066.44 649.267   4
   2 -11   9 4150.77 689.831   1
   2 -11  10 2146.22 547.784   4
   2 -11  10 3242.15 601.492   1
   2 -11  11-246.997 387.828   4
   2 -11  11 1100.03 405.517   1
   2 -11  12 9773.71 1053.31   4
   2 -11  12 12564.6 957.119   1
   2 -11  13 20293.7 1430.55   4
   2 -11  13 21961.6 1102.71   1
   2 -11  14 4509.51 691.775   4
   2 -11  15 7281.74 745.844   4
   2 -11  16 7672.04 672.313   4
   2 -11  17 33.9420 111.922   4
   2 -10 -19 591.004 178.515   6
   2 -10 -18 209.386 193.834   6
   2 -10 -17 1806.14 370.990   6
   2 -10 -16 157.066 241.230   6
   2 -10 -15 1244.81 380.736   6
   2 -10 -14 748.182 399.939   6
   2 -10 -13 9302.55 994.420   6
   2 -10 -12 308.699 328.000   6
   2 -10 -12 1208.45 397.686  11
   2 -10 -11 6795.88 840.119  11
   2 -10 -11 6666.68 897.352   6
   2 -10 -10 24164.1 1627.68  11
   2 -10 -10 24729.5 1688.21   6
   2 -10  -9 5120.80 791.115   6
   2 -10  -9 4313.14 771.520  11
   2 -10  -8 5165.37 760.791   8
   2 -10  -8 5007.90 750.664   6
   2 -10  -8 6023.16 890.254  11
   2 -10  -7 30784.5 1730.91   8
   2 -10  -7 29002.3 1716.80   6
   2 -10  -7 27069.7 1881.86  11
   2 -10  -6 24842.4 1605.00   8
   2 -10  -6 26381.1 1603.05   6
   2 -10  -6 22360.4 1685.30  11
   2 -10  -5 278.736 269.236   6
   2 -10  -5-24.0995 312.463  11
   2 -10  -5-56.5716 340.837   8
   2 -10  -5 156.302 300.579   1
   2 -10  -4 13446.4 1213.64   8
   2 -10  -4 15736.2 1168.34   6
   2 -10  -4 14532.4 1148.93   1
   2 -10  -4 17391.0 1480.14  11
   2 -10  -3 294.488 411.530   8
   2 -10  -3 442.718 334.208   1
   2 -10  -3 472.388 283.027   6
   2 -10  -3 788.422 446.583  11
   2 -10  -2 16708.7 1181.56   6
   2 -10  -2 15601.2 1162.09   1
   2 -10  -2 16627.9 1333.42   8
   2 -10  -2 17727.1 1410.72  11
   2 -10  -1 690.801 289.217   6
   2 -10  -1 908.349 371.297   8
   2 -10  -1 293.780 302.824   1
   2 -10  -1 452.448 307.497  11
   2 -10   0 19782.2 2939.68   3
   2 -10   0 17984.6 1305.66   1
   2 -10   0 18334.9 1229.53   6
   2 -10   0 19038.0 1378.45  11
   2 -10   0 18680.7 1402.94   8
   2 -10   1-459.762 699.002   3
   2 -10   1 443.205 511.822   8
   2 -10   1-214.622 364.557   1
   2 -10   1-65.5164 240.333  11
   2 -10   2 94.6017 541.125   3
   2 -10   2-22.5651 359.340   8
   2 -10   2 22.0990 371.692   1
   2 -10   2 139.732 299.114  11
   2 -10   3 2378.59 587.806   1
   2 -10   3 1317.29 841.284   3
   2 -10   3 2041.15 540.325   8
   2 -10   3 1436.74 418.162  11
   2 -10   4 1082.77 431.708  11
   2 -10   4 1349.78 589.555   1
   2 -10   4 1422.60 864.018   3
   2 -10   4 750.054 453.272   8
   2 -10   5 3667.04 630.426  11
   2 -10   5 4220.38 776.876   1
   2 -10   5 2903.95 1287.93   3
   2 -10   5 3392.12 594.842   4
   2 -10   6 813.562 363.608   1
   2 -10   6 1358.25 398.444   4
   2 -10   7 27891.2 1734.84   1
   2 -10   7 35034.4 1964.37   4
   2 -10   8 12408.4 1179.99   1
   2 -10   8 13341.0 1322.40   4
   2 -10   9 7541.15 912.563   1
   2 -10   9 7769.34 1051.18   4
   2 -10  10 68971.4 2564.78   1
   2 -10  10 69743.6 3061.91   4
   2 -10  11 6094.95 829.242   1
   2 -10  11 3939.41 748.506   4
   2 -10  12 21569.8 1304.93   1
   2 -10  12 17537.9 1540.16   4
   2 -10  13 25785.9 1831.62   4
   2 -10  13 28355.9 1389.95   1
   2 -10  14 640.388 401.324   4
   2 -10  15-144.783 299.763   4
   2 -10  16 554.476 323.806   4
   2 -10  17 891.465 308.869   4
   2 -10  18 923.217 254.975   4
   2  -9 -20 1512.69 271.830  10
   2  -9 -20 2142.09 295.843   6
   2  -9 -19 490.967 215.432   6
   2  -9 -18 6184.30 648.529   6
   2  -9 -17 804.739 348.866   6
   2  -9 -16 287.493 347.642   6
   2  -9 -15 6222.06 877.053   6
   2  -9 -14 1117.70 494.762   6
   2  -9 -13-202.457 346.222   6
   2  -9 -12-364.763 421.828   6
   2  -9 -12 571.655 365.617  11
   2  -9 -11 5255.06 845.837   6
   2  -9 -11 6432.84 820.756  11
   2  -9 -10 67.0516 281.466   6
   2  -9 -10 329.506 371.092  11
   2  -9  -9 23453.5 1659.88   6
   2  -9  -9 25590.8 1715.86  11
  -2   9   9 25685.3 3587.95  13
   2  -9  -8 18415.5 1412.66   6
   2  -9  -8 19287.1 1517.31  11
   2  -9  -8 17524.7 1236.77   8
  -2   9   8 18904.9 2986.85  13
   2  -9  -7 24.2732 250.729   6
  -2   9   7 979.609 811.897  13
   2  -9  -7 99.5006 316.594  11
   2  -9  -7 102.005 353.880   8
   2  -9  -6 84708.2 2819.16   8
  -2   9   6 74638.5 5713.95  13
   2  -9  -6 76524.5 3003.77  11
   2  -9  -6 88792.3 2855.36   6
   2  -9  -5 8060.95 846.929   6
   2  -9  -5 7911.74 986.690  11
   2  -9  -5 6247.23 768.546   8
  -2   9   4 61516.2 4812.31  13
   2  -9  -4 70631.5 2848.48  11
   2  -9  -4 58951.9 2329.76   8
  -2   9   3 4198.78 1227.87  13
   2  -9  -1 578.577 573.810   3
   2  -9   0 6467.59 1588.09   3
   2  -9   1 1067.63 667.891   3
   2  -9   2 7833.35 1788.48   3
   2  -9   3 38206.1 1900.45   1
   2  -9   3 40133.3 3947.35   3
   2  -9   4 4839.75 781.634   1
   2  -9   4 3529.65 1231.14   3
   2  -9   4 4499.54 644.101   8
   2  -9   5 22246.0 3026.30   3
   2  -9   5 22951.4 1450.39   8
   2  -9   5 22265.8 1506.92   1
   2  -9   6 2281.16 995.828   3
   2  -9   6 2825.28 585.029   1
   2  -9   6 2996.59 592.370   4
   2  -9   7 2077.69 1041.78   3
   2  -9   7 2349.73 525.540   1
   2  -9   7 3250.98 643.845   4
   2  -9   8 1441.26 890.322   3
   2  -9   8 1604.03 551.509   4
   2  -9   8 1903.03 499.149   1
   2  -9   9 1106.01 505.471   4
   2  -9   9 923.174 420.568   1
   2  -9  10 14903.8 1545.83   4
   2  -9  10 16025.3 1240.22   1
   2  -9  11 22464.1 1871.05   4
   2  -9  11 25647.4 1528.86   1
   2  -9  12 760.477 353.963   1
   2  -9  12 250.113 360.505   4
   2  -9  13 13165.7 1446.45   4
   2  -9  14 10317.7 1262.95   4
   2  -9  15 609.449 372.580   4
   2  -9  16 790.140 390.435   4
   2  -9  17 473.066 299.970   4
   2  -9  18 1164.05 337.656   4
   2  -9  19 9580.12 747.257   4
   2  -9  20 610.491 197.775   4
   2  -8 -21 3120.34 353.359   6
   2  -8 -20 15530.7 893.968   6
   2  -8 -19 199.387 212.584   6
   2  -8 -18 20512.9 1278.91   6
   2  -8 -17 2633.31 569.215   6
   2  -8 -16 4295.43 765.458   6
   2  -8 -15 1993.71 578.071   6
   2  -8 -14-250.607 318.660   6
   2  -8 -13 154.391 377.482   6
   2  -8 -12 8781.56 1061.23   6
   2  -8 -11 14946.4 1378.37   6
  -2   8  11 13662.1 2623.04  13
   2  -8 -11 16845.8 1264.71  11
   2  -8 -10 3323.19 658.064   6
  -2   8  10 3541.80 1365.44  13
   2  -8 -10 2419.77 496.693  11
  -2   8   9 32195.5 3840.09  13
   2  -8  -9 34428.0 1932.69   6
   2  -8  -9 34065.4 1884.47  11
  -2   8   8 65766.9 5404.12  13
   2  -8  -8 62444.7 2579.93  11
   2  -8  -8 61685.0 2480.85   6
  -2   8   7 589.691 762.706  13
  -2   8   6 73679.9 5468.53  13
  -2   8   5 11385.6 2222.72  13
  -2   8   4 7957.04 1721.35  13
  -2   8   3 987.070 795.240  13
  -2   8   2 3413.30 1191.28  13
   2  -8  -2 2686.20 1002.54   3
   2  -8  -1 16158.4 2295.29   3
  -2   8   1 17323.8 2135.01  13
   2  -8   0 11164.9 1938.96   3
   2  -8   1 6934.62 1523.59   3
   2  -8   2 15443.7 2254.96   3
   2  -8   3 31364.2 3242.35   3
   2  -8   4 5853.46 1443.86   3
   2  -8   5 44492.3 3990.57   3
   2  -8   6 2075.57 996.494   3
   2  -8   7 2513.84 1094.63   3
   2  -8   8 238.403 266.487   4
   2  -8   8 363.476 322.371   1
   2  -8   9 2303.56 563.198   1
   2  -8   9 2885.82 703.188   4
   2  -8   9 3530.71 1478.62   3
   2  -8  10 4363.27 666.584   1
   2  -8  10 4872.00 1631.99   3
   2  -8  10 4210.15 863.892   4
   2  -8  11 5917.05 984.804   4
   2  -8  11 7815.43 871.489   1
   2  -8  12 4858.72 703.765   1
   2  -8  12 3940.33 856.355   4
   2  -8  13 3701.79 894.951   4
   2  -8  14 4148.30 959.083   4
   2  -8  15 6812.43 1123.48   4
   2  -8  16 388.799 383.264   4
   2  -8  17 996.883 402.443   4
   2  -8  18 5217.62 725.675   4
   2  -8  19 691.607 306.086   4
   2  -8  20 6254.87 621.006   4
   2  -8  21 332.437 156.930   4
   2  -7 -22 118.627 140.278  10
   2  -7 -22 243.649 147.773   6
   2  -7 -21 3662.35 441.742   6
   2  -7 -20 5950.62 639.639   6
   2  -7 -19 155.113 276.771   6
   2  -7 -18 613.986 378.336   6
   2  -7 -17 2754.74 600.310   6
   2  -7 -16 4790.59 769.194   6
   2  -7 -15 327.740 324.721   6
   2  -7 -14 17536.5 1528.35   6
   2  -7 -13 2540.22 593.880   6
  -2   7  12 15149.0 2723.34  13
   2  -7 -12 15145.8 1414.87   6
  -2   7  11 33455.5 3939.10  13
   2  -7 -11 32097.5 1999.32   6
  -2   7  10 2476.84 1165.42  13
   2  -7 -10 2077.51 582.241   6
  -2   7   9 57351.9 4939.09  13
  -2   7   8 46899.4 4415.80  13
  -2   7   7 946.139 892.735  13
  -2   7   6 24058.6 3053.93  13
  -2   7   5 3741.28 1218.50  13
  -2   7   4 7024.86 1655.61  13
  -2   7   3 6914.06 1499.13  13
  -2   7   2 14654.4 2095.53  13
   2  -7  -2 14108.8 1980.84   3
  -2   7   1 10055.9 1596.88  13
   2  -7  -1 9114.26 1630.01   3
   2  -7   0 14228.0 1985.70   3
  -2   7   0 15650.6 1823.29  13
   2  -7   1 142955. 6312.99   3
   2  -7   2 20189.6 2393.20   3
   2  -7   3 148310. 6517.62   3
   2  -7   4 1679.15 745.192   3
   2  -7   5 32443.1 3171.10   3
   2  -7   5 29208.5 2402.66   2
   2  -7   6 20272.7 2598.79   3
   2  -7   6 19112.4 2080.35   2
   2  -7   7 3502.25 1183.08   3
   2  -7   7 3750.66 1046.48   2
   2  -7   8 138.059 450.496   3
   2  -7   8 713.530 562.522   2
   2  -7   9 22645.2 3116.99   3
   2  -7   9 21491.0 2785.53   2
   2  -7  10 384.954 487.670   3
   2  -7  10-76.2203 566.028   2
   2  -7  10 336.100 375.992   1
   2  -7  11 1406.85 464.195   2
   2  -7  11 1903.56 1121.95   3
   2  -7  11 3128.63 593.481   1
   2  -7  12 693.855 560.621   3
   2  -7  12-574.504 903.820   2
   2  -7  13 4030.40 882.523   4
   2  -7  14 2787.01 810.691   4
   2  -7  15 13374.4 1475.61   4
   2  -7  16 515.730 472.574   4
   2  -7  17 863.557 498.198   4
   2  -7  18 985.345 442.703   4
   2  -7  19 302.270 276.479   4
   2  -7  20 8981.80 862.079   4
   2  -7  21 2881.78 436.722   4
   2  -7  22 2280.63 303.156   4
   2  -6 -22-8.00604 169.884   6
   2  -6 -21 2890.75 442.712   6
   2  -6 -20 99.4529 232.152   6
   2  -6 -19 741.376 315.117   6
   2  -6 -18 5873.72 794.523   6
   2  -6 -17 6028.12 850.060   6
   2  -6 -16 27435.7 1838.57   6
   2  -6 -15 7003.61 988.327   6
   2  -6 -14 185.020 413.031   6
   2  -6 -13 7326.48 1000.49   6
  -2   6  13 10000.9 2192.82  13
   2  -6 -12 9369.75 1113.65   6
  -2   6  12 13546.2 2487.48  13
  -2   6  11 31708.7 3672.68  13
   2  -6 -11 27116.8 1855.36   6
  -2   6  10 6831.15 1788.06  13
  -2   6   9 13374.5 2347.85  13
  -2   6   8 9763.38 1886.08  13
  -2   6   7 3838.76 1294.92  13
  -2   6   6 106.411 465.124  13
  -2   6   5 1059.94 790.445  13
  -2   6   4-381.986 465.863  13
  -2   6   3 1670.52 786.129  13
   2  -6  -2 25087.0 2386.37   3
  -2   6   2 17343.8 2175.34  13
   2  -6  -1 146.412 297.903   3
  -2   6   1-82.3825 431.691  13
  -2   6   0 6231.36 1131.58  13
   2  -6   0 6142.25 1207.38   3
  -2   6   0 5694.02 783.825  12
   2  -6   1 43194.1 3150.05   3
  -2   6  -1 41558.8 2206.57  12
   2  -6   1 40254.5 2138.80   2
  -2   6  -1 45943.1 2841.04  13
   2  -6   2 82096.6 4422.67   3
   2  -6   2 76926.2 3167.11   2
  -2   6  -2 83834.9 3371.63  13
   2  -6   3 8044.08 1124.64   2
   2  -6   3 7149.08 1390.51   3
   2  -6   4 39811.5 2571.36   2
   2  -6   4 42686.6 3265.46   3
   2  -6   5 47072.2 3547.57   3
   2  -6   5 47991.2 3031.43   2
   2  -6   6 486.503 501.303   3
   2  -6   6 1079.52 589.720   2
   2  -6   7 33861.8 2977.32   2
   2  -6   7 34231.9 3305.33   3
   2  -6   8 2512.57 1007.72   2
   2  -6   9 73998.3 5096.67   2
   2  -6  10 11759.7 2184.06   2
   2  -6  11 33112.6 3877.18   2
   2  -6  12 19842.7 1414.53   7
   2  -6  12 18010.0 2984.51   2
   2  -6  13 2660.13 594.072   7
   2  -6  13 4139.36 1587.29   2
   2  -6  14 690.633 415.733   7
   2  -6  15 7596.09 921.080   7
   2  -6  16 6184.66 804.516   7
   2  -6  18 3848.49 789.986   4
   2  -6  19 300.254 322.121   4
   2  -6  20 5057.29 756.999   4
   2  -6  21 10819.0 909.227   4
   2  -6  22 928.355 240.239   4
   2  -5 -23 82.2318 130.970  10
   2  -5 -23 300.799 139.668   6
   2  -5 -22 11.7477 182.098   6
   2  -5 -21 2766.97 480.849   6
   2  -5 -20 18.1696 258.221   6
   2  -5 -19 6283.58 810.366   6
   2  -5 -18 15633.4 1304.69   6
   2  -5 -17 3301.79 717.196   6
   2  -5 -16 12612.0 1302.83   6
   2  -5 -15-93.1560 278.077   6
   2  -5 -14 13944.6 1392.40   6
  -2   5  14 14364.3 2581.06  13
   2  -5 -13 3504.39 731.308   6
  -2   5  13 4410.08 1360.91  13
   2  -5 -12 7510.01 969.533   6
  -2   5  12 10360.9 2150.32  13
  -2   5  11 12536.8 2325.18  13
  -2   5  10 437.123 594.894  12
  -2   5  10 801.984 779.949  13
  -2   5   9 56196.9 3868.63  12
  -2   5   9 67848.9 4888.84  13
  -2   5   8 17427.4 2483.38  13
  -2   5   8 13517.4 1789.88  12
  -2   5   7 37422.2 2700.05  12
  -2   5   7 42318.3 3710.19  13
  -2   5   6 9546.57 1746.65  13
  -2   5   6 10408.8 1330.82  12
  -2   5   5 17515.9 2374.36  13
  -2   5   5 17295.3 1564.02  12
  -2   5   4 10408.7 1775.93  13
  -2   5   4 10241.9 1095.82  12
  -2   5   3 17155.7 1341.68  12
  -2   5   3 14791.9 2067.99  13
  -2   5   2 62517.1 3989.13  13
  -2   5   2 71409.6 2639.39  12
   2  -5  -2 71837.5 3602.96   3
  -2   5   1 93.7033 521.058  13
   2  -5  -1 352.794 346.031   3
  -2   5   1 162.164 177.606  12
   2  -5   0 84974.8 3907.39   3
   2  -5   0 81648.6 2812.37   2
  -2   5   0 83531.1 2978.80  12
   2  -5   1 4016.09 674.048   2
   2  -5   1 3943.25 874.499   3
  -2   5  -1 4940.67 926.291  13
  -2   5  -2 26326.5 1937.39  13
   2  -5   2 26374.2 1825.76   2
   2  -5   2 29080.6 2356.68   3
   2  -5   3 49162.4 3140.24   3
  -2   5  -3 47799.9 2227.39  13
   2  -5   3 48984.7 2623.57   2
   2  -5   4 816.100 496.217   3
   2  -5   4 1219.64 530.611   2
   2  -5   5 34430.3 2829.38   3
   2  -5   5 37850.1 2629.59   2
   2  -5   6 6942.40 1235.55   2
   2  -5   7 71300.4 4186.90   2
   2  -5   8 17377.5 2235.77   2
   2  -5   9 12722.9 2052.11   2
   2  -5  10 10387.0 2063.31   2
   2  -5  11-272.145 1114.29   2
   2  -5  12 21159.4 3102.31   2
   2  -5  13 19661.8 1351.71   7
   2  -5  13 17817.8 2907.96   2
   2  -5  14 1196.03 912.940   2
   2  -5  14 832.110 396.903   7
  -2   5 -15 561.049 369.849   5
   2  -5  15 334.584 336.135   7
  -2   5 -16 10223.4 1103.01   5
   2  -5  16 11650.6 1086.89   7
   2  -5  17 8762.71 945.974   7
  -2   5 -17 8048.58 1025.34   5
   2  -5  18 26020.2 1552.14   7
  -2   5 -18 21808.6 1578.55   5
  -2   5 -19 51.9045 233.270   5
   2  -5  19-93.8376 335.997   7
   2  -5  20 15642.2 1295.91   4
  -2   5 -20 12243.2 1069.01   5
   2  -5  21 290.155 306.241   4
  -2   5 -21-51.0396 183.626   5
  -2   5 -22 1590.64 318.824   5
   2  -5  22 2029.14 413.677   4
   2  -5  23 3414.89 394.137   4
   2  -4 -23 5274.27 501.756  10
   2  -4 -23 5305.84 489.793   6
   2  -4 -22 228.348 173.958   6
   2  -4 -21 23173.5 1329.83   6
   2  -4 -20 19589.7 1336.69   6
   2  -4 -19 43510.4 2109.06   6
   2  -4 -18 97407.6 3247.41   6
   2  -4 -17 156.582 366.394   6
   2  -4 -16 18545.9 1539.66   6
   2  -4 -15 13370.4 1357.05   6
  -2   4  15 13276.9 2437.42  13
  -2   4  14 221.637 454.246  13
   2  -4 -14 610.099 425.431   6
   2  -4 -13 5917.43 926.248   6
  -2   4  13 6118.38 1674.85  13
  -2   4  12 17723.7 2509.14  12
  -2   4  12 16772.5 2547.26  13
  -2   4  11 706.934 367.985   2
  -2   4  11 1257.85 889.288  13
  -2   4  10 1174.03 645.135  12
  -2   4  10 2081.86 1005.42  13
  -2   4   9 76547.9 4490.23  12
  -2   4   9 91033.5 5435.02  13
  -2   4   8 16415.1 2321.06  13
  -2   4   8 14329.3 1812.45  12
  -2   4   7 7558.34 1217.05  12
  -2   4   7 7128.36 1504.01  13
  -2   4   6 2735.58 700.038  12
  -2   4   6 2409.15 934.323  13
  -2   4   5 3465.92 1024.97  13
  -2   4   5 4255.73 756.518  12
  -2   4   4 924.288 315.545  12
  -2   4   3 20372.8 1441.79  12
  -2   4   2 8823.81 920.912  12
   2  -4  -2 8702.35 1148.45   3
   2  -4  -1 33083.6 2197.74   3
  -2   4   1 35385.3 1841.12  12
   2  -4   0 3578.91 718.501   3
  -2   4   0 3711.70 603.454  12
   2  -4   0 3607.88 573.593   2
   2  -4   1 375976. 7368.68   3
   2  -4   1 365032. 5983.60   2
   2  -4   2 25507.8 1992.00   3
   2  -4   2 24016.2 1663.97   2
   2  -4   3 13741.9 1333.07   2
   2  -4   3 13835.9 1547.06   3
   2  -4   4 81490.9 3412.42   2
   2  -4   5 69449.9 3386.41   2
   2  -4   6 4066.12 970.404   2
   2  -4   7 408.062 491.113   2
   2  -4   8 600.670 565.282   2
   2  -4   9 2094.90 884.616   2
   2  -4  10 249.527 446.147   2
   2  -4  11 10497.7 2078.80   2
   2  -4  12 17165.7 2725.22   2
   2  -4  13 5804.01 1760.29   2
   2  -4  14 38214.9 4264.77   2
   2  -4  14 36365.3 1778.93   7
   2  -4  15 10300.7 2348.52   2
   2  -4  15 11525.3 1024.29   7
  -2   4 -16 14594.3 1364.60   5
   2  -4  16 15384.4 1206.47   7
   2  -4  17 108.951 402.087   7
  -2   4 -17 146.766 369.558   5
   2  -4  18 1838.81 446.269   7
  -2   4 -18 2111.41 592.098   5
  -2   4 -19 734.766 397.901   5
   2  -4  19 803.665 405.238   7
   2  -4  20 9994.54 917.147   7
  -2   4 -20 9608.04 1009.07   5
   2  -4  21 92.2563 321.991   4
  -2   4 -21 29.5690 237.043   5
   2  -4  22 993.598 358.752   4
  -2   4 -22 915.436 325.088   5
   2  -4  23 2768.90 416.826   4
  -2   4 -23 2942.27 399.893   5
   2  -3 -23 924.854 262.785  10
   2  -3 -23 684.217 219.322   6
   2  -3 -22 519.900 205.698   5
   2  -3 -22 564.815 280.755   6
   2  -3 -21 16128.1 1099.14   5
   2  -3 -21 17187.1 1194.13   6
   2  -3 -20 19911.2 1328.85   5
   2  -3 -20 21948.8 1453.46   6
   2  -3 -19 109.178 331.258   6
   2  -3 -19 303.284 296.118   5
   2  -3 -18 40263.2 2075.14   5
   2  -3 -18 40127.6 2133.33   6
   2  -3 -17 27432.3 1828.68   6
   2  -3 -17 25630.4 1701.55   5
   2  -3 -16 2773.49 650.635   5
   2  -3 -16 4242.46 812.343   6
   2  -3 -15 442.018 334.483   5
  -2   3  15 402.661 489.126  13
  -2   3  14 15775.9 2515.24  13
   2  -3 -14 9972.13 1153.39   5
  -2   3  14 13629.0 2323.27   2
  -2   3  13 3664.43 1264.02  13
  -2   3  13 3884.96 1282.30   2
  -2   3  12 23522.6 2876.42   2
  -2   3  12 20733.8 2770.01  13
  -2   3  12 22533.6 2897.65  12
  -2   3  11 6672.60 1521.91  13
  -2   3  11 6018.90 1471.18  12
  -2   3  10 25081.8 2799.52  13
  -2   3  10 22339.5 2668.70  12
  -2   3   9 25355.8 2777.48  13
  -2   3   9 21037.6 2354.60  12
  -2   3   8 11334.1 1781.30  13
  -2   3   8 10021.5 1539.57  12
  -2   3   7 6175.70 1117.75  12
  -2   3   7 5296.86 1247.80  13
  -2   3   6 332.403 358.864  12
  -2   3   5 11489.0 1238.31  12
  -2   3   4 1923.22 490.164  12
  -2   3   3 3401.33 596.546  12
  -2   3   2 2910.60 539.953  12
   2  -3  -2 2177.13 539.245   3
   2  -3  -1 25054.0 1666.32   3
  -2   3   1 25501.3 1492.51  12
   2  -3   0 313572. 5728.58   3
   2  -3   0 297857. 4813.23   2
   2  -3   1 73033.6 2847.48   3
   2  -3   1 73151.7 2552.87   2
   2  -3   2 401089. 6930.88   3
   2  -3   2 402116. 6380.65   2
   2  -3   3 94550.3 3262.17   2
   2  -3   4 52244.7 2593.67   2
   2  -3   5 16061.1 1597.07   2
   2  -3   6 14631.3 1684.98   2
   2  -3   7 2655.73 828.440   2
   2  -3   8 20193.5 2270.65   2
   2  -3   9 523.003 482.598   2
   2  -3  10 1255.96 695.888   2
   2  -3  11 6699.22 1551.98   2
   2  -3  12 8810.34 1850.37   2
   2  -3  13-467.504 673.953   2
   2  -3  14 18192.7 2875.58   2
   2  -3  14 18119.1 1213.92   7
   2  -3  15 14907.4 2773.16   2
   2  -3  15 14520.9 1129.73   7
   2  -3  16 9569.99 962.263   7
   2  -3  16 7132.16 1839.96   2
   2  -3  17 5695.53 748.798   7
  -2   3 -18 11945.2 1343.76   5
   2  -3  18 13378.9 1140.40   7
  -2   3 -19 269.386 358.984   5
   2  -3  19 591.102 356.364   7
   2  -3  20 27690.6 1538.83   7
  -2   3 -20 27568.8 1768.08   5
   2  -3  21 538.200 310.759   7
  -2   3 -21 400.572 324.567   5
   2  -3  22 17162.5 1265.63   4
   2  -3  22 20125.5 1166.84   7
  -2   3 -22 18153.4 1249.61   5
  -2   3 -23 11758.4 876.439   5
   2  -3  23 12668.7 897.907   4
   2  -3  24 2306.82 305.902   4
  -2   3 -24 3543.65 384.934   5
   2  -2 -23 691.614 253.107   5
   2  -2 -23 191.996 161.138  10
   2  -2 -23 487.018 209.500   6
   2  -2 -22 726.332 263.511   6
   2  -2 -22 703.195 308.050   5
   2  -2 -21 12815.9 1041.63   6
   2  -2 -21 10612.5 1027.52   5
   2  -2 -20 417.246 338.614   6
   2  -2 -20 481.975 343.184   5
   2  -2 -19 37.7952 357.963   6
   2  -2 -19 439.263 387.499   5
   2  -2 -18 3138.66 664.773   5
   2  -2 -18 3419.59 695.854   6
   2  -2 -17 1978.24 521.433   5
   2  -2 -16 6765.14 983.547   5
  -2   2  16 8589.62 2050.83   2
   2  -2 -15 1643.62 481.941   5
  -2   2  15 1233.36 816.916   2
  -2   2  14 18688.2 2771.38   2
   2  -2 -14 18524.8 1448.30   5
  -2   2  14 19430.3 2620.89  13
  -2   2  13 12728.3 2065.89  13
  -2   2  13 13643.5 2326.52   2
  -2   2  12 38008.3 3707.65   2
  -2   2  12 37623.6 3474.71  13
  -2   2  12 37109.4 3683.75  12
  -2   2  11 29444.9 3024.60  13
  -2   2  11 30131.5 3195.79  12
  -2   2  10 22046.8 2511.44  13
  -2   2  10 21493.3 2549.40  12
  -2   2   9 45063.1 3478.97  12
  -2   2   9 49999.8 3639.47  13
  -2   2   8 187.384 370.199  12
  -2   2   8-246.031 558.651  13
  -2   2   7 50994.1 3074.64  12
  -2   2   6 4019.30 812.306  12
  -2   2   5 1332.92 457.780  12
  -2   2   4 55455.2 2431.70  12
  -2   2   3 930.886 373.992  12
  -2   2   2 25190.3 1471.48  12
   2  -2  -1 9302.24 867.717   3
  -2   2   1 8890.02 848.220  12
   2  -2   0 112336. 2882.19   3
   2  -2   0 106091. 2732.17   2
   2  -2   1 307812. 4914.43   2
   2  -2   1 305636. 4881.06   3
   2  -2   2 14878.1 1162.56   2
   2  -2   3 62517.1 2514.43   2
   2  -2   4 68414.0 2824.01   2
   2  -2   5 1064.16 387.390   2
   2  -2   6 21805.7 1953.82   2
   2  -2   7 1609.02 705.801   2
   2  -2   8 67262.3 3982.00   2
   2  -2   9 4372.43 1148.31   2
   2  -2  10 1044.13 720.607   2
   2  -2  11 34217.5 3351.89   2
   2  -2  12 12062.8 2120.17   2
   2  -2  13 1089.53 861.431   2
   2  -2  14 213.440 543.964   2
   2  -2  15 18386.9 1270.78   7
   2  -2  15 18547.7 2887.79   2
   2  -2  16 10063.6 980.582   7
   2  -2  16 9050.16 2076.74   2
   2  -2  17 7505.28 862.031   7
   2  -2  18 30265.4 1691.28   7
   2  -2  19 2779.70 599.021   7
  -2   2 -19 3861.91 794.493   5
   2  -2  20 28086.4 1583.60   7
  -2   2 -20 28475.0 1867.77   5
   2  -2  21 27355.4 1475.94   7
  -2   2 -21 27164.6 1718.61   5
   2  -2  22 2315.21 463.166   7
  -2   2 -22 2156.45 515.847   5
   2  -2  23 20764.6 1160.42   4
  -2   2 -23 21856.6 1280.66   5
   2  -2  23 23297.7 1157.88   7
   2  -2  24 1052.42 241.194   4
  -2   2 -24 1940.91 351.389   5
   2  -1 -23 788.489 261.976   5
   2  -1 -23 744.271 228.053   6
   2  -1 -22 413.346 203.726   6
   2  -1 -22 512.929 236.666  10
   2  -1 -21-189.560 248.103   6
   2  -1 -21-30.7551 235.911   5
   2  -1 -20 406.315 315.818   5
   2  -1 -20 533.472 306.650   6
   2  -1 -19 890.315 484.670   5
   2  -1 -18 6571.52 961.958   5
  -2   1  18 6906.66 744.037   7
   2  -1 -17 678.612 376.088   5
  -2   1  17 510.090 295.303   7
  -2   1  16 25166.7 3534.09   2
   2  -1 -16 25197.9 1758.02   5
   2  -1 -15 8482.66 1043.32   5
  -2   1  15 6882.99 1872.22   2
  -2   1  14-488.867 769.401   2
  -2   1  13 3644.96 1190.00   2
  -2   1  13 3542.86 1132.01  13
  -2   1  12 671.188 812.173  12
  -2   1  12 391.928 531.486  13
  -2   1  12 822.553 677.987   2
  -2   1  11 5802.49 1329.63  13
  -2   1  11 5311.77 1366.01  12
  -2   1  10 17389.3 2339.24  12
  -2   1  10 18128.2 2186.37  13
  -2   1   9-246.296 497.246  13
  -2   1   9 413.862 431.714  12
  -2   1   8 138364. 5513.95  13
  -2   1   8 141803. 5587.70  12
  -2   1   7 48610.2 2992.89  12
  -2   1   6 2475.48 671.163  12
  -2   1   5 29989.3 1930.50  12
  -2   1   4 179.945 234.324  12
  -2   1   3 94474.0 2886.99  12
  -2   1   2 128574. 3185.68  12
  -2   1   1 5419.10 617.846  12
   2  -1   0 2619.98 345.414   3
   2  -1   0 2803.81 430.238   2
   2  -1   1 10479.8 853.197   2
   2  -1   1 10435.2 707.596   3
   2  -1   2 4786.66 646.845   2
   2  -1   3 44459.6 1997.14   2
   2  -1   3 42777.4 1497.76  13
   2  -1   4 48533.7 1648.88  13
   2  -1   4 47533.1 2219.88   2
   2  -1   5 9499.62 778.342  13
   2  -1   5 9944.05 1144.16   2
   2  -1   6 20642.4 1216.52  13
   2  -1   6 21298.7 1836.11   2
   2  -1   7 2306.60 686.143   2
   2  -1   7 2108.69 448.248  13
   2  -1   8 36155.6 2865.32   2
   2  -1   8 35695.5 1851.97  13
   2  -1   9 89.8836 217.364  13
   2  -1   9 309.057 417.894   2
   2  -1  10 1271.94 748.377   2
   2  -1  11 181.420 568.314   2
   2  -1  12 53973.5 4251.00   2
   2  -1  13 14064.5 2339.18   2
   2  -1  14 3357.00 1114.99   2
   2  -1  15 39470.7 1765.09   7
   2  -1  15 40113.2 4163.82   2
   2  -1  16 5510.44 1683.94   2
   2  -1  16 7925.49 880.092   7
   2  -1  17 7703.61 877.401   7
   2  -1  18 4505.31 717.939   7
   2  -1  19-24.2884 392.780   7
  -2   1 -20 2764.83 705.235   5
   2  -1  20 2621.62 549.734   7
   2  -1  21 6725.64 773.429   7
  -2   1 -21 5947.29 944.176   5
  -2   1 -22 601.175 341.492   5
   2  -1  22 239.349 306.625   7
  -2   1 -23 1090.50 392.762   5
   2  -1  23 1504.38 351.888   7
   2  -1  24 3112.32 390.495   4
  -2   1 -24 4215.26 536.842   5
   2   0 -24 3734.92 374.203   5
   2   0 -23 998.730 246.748   6
   2   0 -23 1010.94 301.934   5
   2   0 -22 9642.43 804.691   6
   2   0 -22 11436.3 969.459   5
   2   0 -21 9526.35 917.262   6
   2   0 -21 10781.2 1064.16   5
   2   0 -20 3379.91 670.909   5
  -2   0  20 2731.53 478.787   7
   2   0 -20 2846.51 604.216   6
  -2   0  19 49355.0 1929.54   7
   2   0 -19 56389.0 2548.47   5
   2   0 -18 20345.1 1623.42   5
  -2   0  18 17338.6 1206.28   7
   2   0 -17 2512.69 643.997   5
  -2   0  17 1707.41 426.848   7
  -2   0  16 8734.13 852.857   7
   2   0 -16 9941.10 1143.77   5
  -2   0  16 7981.75 2028.70   2
  -2   0  15 6754.72 755.723   7
  -2   0  15 7937.78 2014.19   2
   2   0 -15 6951.72 979.605   5
  -2   0  14 7329.27 1847.75   2
   2   0 -14 5273.36 863.358   5
  -2   0  13 15461.6 2535.25   2
  -2   0  12 1656.68 950.376   2
  -2   0  12 3173.78 1230.41  12
  -2   0  12 1665.72 690.002  13
  -2   0  11 437.611 287.788  13
  -2   0  11 917.714 757.823  12
  -2   0  10 8022.06 1383.82  13
  -2   0  10 9611.13 1850.11  12
  -2   0   9 42118.0 2965.61  13
  -2   0   9 39577.2 3309.67  12
  -2   0   8 20217.4 2167.40  12
  -2   0   7 180697. 5811.85  12
  -2   0   6 38913.6 2461.60  12
  -2   0   5 18212.9 1541.79  12
  -2   0   4 186343. 4377.92  12
  -2   0   3 17301.5 1249.54  12
  -2   0   2 163.349 207.758  12
  -2   0   1 16041.6 1030.81  12
   2   0   0 17666.0 1023.01   2
  -2   0   0 17342.7 1015.95  12
   2   0   1 10244.9 759.008  13
   2   0   1 9293.61 401.640   3
   2   0   1 10336.9 800.271   2
   2   0   2 241517. 4009.08   2
   2   0   2 231875. 3591.44  13
   2   0   3 4393.03 522.568  13
   2   0   3 4232.96 614.963   2
   2   0   4 50321.5 1898.52  13
   2   0   4 51998.6 2183.10   2
   2   0   5 5915.35 707.039  13
   2   0   5 5999.58 874.869   2
   2   0   6 914.207 520.163   2
   2   0   6 1212.59 388.196  13
   2   0   7 24721.5 1684.89  13
   2   0   7 24959.5 2129.20   2
   2   0   8 6102.76 885.462  13
   2   0   8 6694.93 1213.74   2
   2   0   9 1626.20 624.749   2
   2   0   9 2249.30 631.739  13
   2   0  10 19709.7 2315.16   2
   2   0  10 21816.6 1850.72  13
   2   0  11 29410.0 2207.23  13
   2   0  11 29613.3 2983.46   2
   2   0  12 33211.8 3274.57   2
   2   0  13 76303.2 5175.94   2
   2   0  14 759.032 659.085   2
   2   0  15 28206.1 1474.73   7
   2   0  15 28469.4 3416.53   2
   2   0  16 2632.80 571.831   7
   2   0  16 1230.80 777.940   2
   2   0  17 1325.75 935.407   2
   2   0  17 1790.95 541.517   7
   2   0  18 734.471 440.222   7
   2   0  19 155.661 345.911   7
  -2   0 -20 1511.28 613.124   5
   2   0  20 2081.53 534.483   7
  -2   0 -21 1271.72 543.401   5
   2   0  21 680.675 319.464   7
   2   0  22 889.312 346.921   7
  -2   0 -22 625.230 363.405   5
   2   0  23-70.4443 257.044   7
  -2   0 -23 221.010 240.559   5
  -2   0 -24-190.459 197.207   6
   2   0  24 51.2472 208.380   7
   2   0  24 242.676 145.771   4
  -2   0 -24 54.8646 181.409   5
  -2   0 -25 5356.34 497.972   5
  -2   0 -25 5859.98 456.163   6
   2   1 -24 2137.75 302.086   5
   2   1 -23 2936.96 349.311   6
   2   1 -23 3960.01 524.870   5
   2   1 -22 6480.62 763.489   5
   2   1 -22 6260.33 629.912   6
   2   1 -21 12737.8 994.832   6
   2   1 -21 13421.3 1189.75   5
   2   1 -20 183.985 329.890   5
  -2  -1  20 340.806 270.429   7
   2   1 -19 20327.6 1593.51   5
  -2  -1  19 19037.8 1233.09   7
   2   1 -18 4247.82 772.474   5
  -2  -1  18 4169.66 652.225   7
   2   1 -17 932.505 478.583   5
  -2  -1  17 136.030 296.543   7
  -2  -1  16 391.853 839.578   2
   2   1 -16 750.248 453.750   5
  -2  -1  16 373.382 330.279   7
  -2  -1  15 5207.79 715.616   7
  -2  -1  15 6622.54 1939.74   2
   2   1 -15 5511.62 893.668   5
   2   1 -14 205.898 352.402   5
  -2  -1  14 164.985 772.623   2
  -2  -1  13 27610.3 3401.38   2
  -2  -1  12 2959.25 1145.30   2
  -2  -1  11 7010.42 1632.21  12
  -2  -1  11 6056.48 1582.30   2
  -2  -1  10 10733.9 1886.38  12
  -2  -1  10 10219.9 1393.04  13
  -2  -1   9 1939.83 583.324  13
  -2  -1   9 1797.90 775.305  12
  -2  -1   8 1984.40 788.144  12
  -2  -1   7 2249.64 823.433  12
  -2  -1   6 95495.3 3905.27  12
  -2  -1   5 17343.4 1553.92  12
  -2  -1   4 107984. 3362.98  12
  -2  -1   3 183153. 3905.73  12
  -2  -1   2 14479.4 1018.43  12
  -2  -1   1 264108. 3945.14  12
  -2  -1   0 67112.5 1894.34  12
   2   1   0 68044.6 1985.57  13
   2   1   1 83676.2 2045.43   2
   2   1   1 84803.5 2249.32  13
   2   1   2 86857.3 2398.86  13
   2   1   2 90707.4 2275.27   2
   2   1   3 15613.6 1116.36  13
   2   1   3 17397.7 1103.41   2
   2   1   4 36427.8 1804.84  13
   2   1   4 34372.5 1676.23   2
   2   1   5 11640.7 1116.14  13
   2   1   5 10826.0 1099.52   2
   2   1   6 8490.27 1029.84  13
   2   1   6 8413.66 1117.92   2
   2   1   7 60286.0 2896.81  13
   2   1   7 66141.8 3315.90   2
   2   1   8-50.7693 283.724  13
   2   1   8 169.129 302.764   2
   2   1   9 59278.7 3184.14  13
   2   1   9 43715.7 3090.98   2
   2   1  10 79656.2 3849.68  13
   2   1  10 72051.3 4197.34   2
   2   1  11 126959. 4978.36  13
   2   1  11 125662. 5869.92   2
   2   1  12 415.044 395.457  13
   2   1  12-427.988 596.821   2
   2   1  13 14486.8 2216.10   2
   2   1  13 14378.1 1799.97  13
   2   1  14 11943.1 2098.42   2
   2   1  15 125.532 263.580   7
   2   1  15-19.1633 635.754   2
   2   1  16-228.467 756.042   2
   2   1  16 805.035 415.862   7
   2   1  17 69.2605 536.303   2
   2   1  17 153.717 312.749   7
   2   1  18 4494.78 751.259   7
   2   1  19 1193.39 455.464   7
   2   1  20 5747.95 764.910   7
   2   1  21 6573.41 776.868   7
  -2  -1 -21 5472.80 903.139   5
  -2  -1 -22 4568.73 758.230   5
   2   1  22 3723.95 552.548   7
  -2  -1 -23 478.667 323.120   5
   2   1  23 259.348 248.061   7
  -2  -1 -24 804.713 265.891   6
  -2  -1 -24 894.943 295.157   5
   2   1  24 780.283 226.467   7
  -2  -1 -25 1080.57 242.102   5
  -2  -1 -25 1294.09 240.745   6
   2   2 -24 2349.87 321.194   5
   2   2 -23 106.407 202.380   5
   2   2 -22 273.345 185.722   6
   2   2 -22 503.260 297.005   5
   2   2 -21 1652.74 540.609   5
   2   2 -21 1112.22 350.015   6
   2   2 -20-54.6543 355.462   5
   2   2 -19 79.9270 329.334   5
  -2  -2  19-347.099 373.945   7
  -2  -2  18 2327.49 525.467   7
   2   2 -18 2470.07 684.498   5
   2   2 -17 2620.84 717.068   5
  -2  -2  17 3350.05 619.800   7
  -2  -2  16 686.185 365.070   7
   2   2 -16 568.905 474.996   5
  -2  -2  15 10085.3 949.293   7
  -2  -2  15 10016.1 2254.18   2
   2   2 -15 10637.6 1231.10   5
  -2  -2  14 8632.92 2012.74   2
  -2  -2  14 7629.28 794.385   7
   2   2 -14 8435.38 1105.22   5
  -2  -2  13 18940.7 2767.21   2
  -2  -2  12 5967.86 1626.22   2
  -2  -2  11 18703.9 2595.56   2
  -2  -2  11 18965.0 2533.53  12
  -2  -2  10 1575.94 752.890   2
  -2  -2  10 2278.76 940.957  12
  -2  -2   9 20407.3 1681.77  13
  -2  -2   9 22674.8 2509.81  12
  -2  -2   8 10306.2 1619.21  12
  -2  -2   7 21687.5 2153.49  12
  -2  -2   6 52317.9 3057.82  12
  -2  -2   5 3494.35 764.520  12
  -2  -2   4 6917.38 926.373  12
  -2  -2   3 114240. 3178.11  12
  -2  -2   2 105284. 2669.30  12
   2   2  -1 10196.3 803.918  13
  -2  -2   1 9609.73 726.840  12
  -2  -2   0 634.725 186.939  12
  -2  -2   0 789.396 206.155   3
   2   2   0 734.725 266.729  13
  -2  -2  -1 3723.79 406.992  12
  -2  -2  -1 3699.03 394.718   3
   2   2   1 3752.53 530.206  13
   2   2   2 59209.7 1635.82   2
   2   2   2 58194.5 2142.47  13
   2   2   3 234344. 3599.46   2
   2   2   3 233017. 4586.78  13
   2   2   4 6457.30 872.899  13
   2   2   4 6107.44 667.786   2
   2   2   5 59174.9 2726.26  13
   2   2   5 58672.9 2274.72   2
   2   2   6 113282. 4039.36  13
   2   2   6 120577. 3734.90   2
   2   2   7 14067.8 1464.60   2
   2   2   7 10300.2 1372.35  13
   2   2   8 124799. 4720.24  13
   2   2   8 131791. 4727.84   2
   2   2   9 32778.6 2610.89   2
   2   2   9 43524.3 2946.83  13
   2   2  10 97496.7 4482.23  13
   2   2  10 82078.5 4359.82   2
   2   2  11 17136.0 1969.85  13
   2   2  11 17973.4 2220.75   2
   2   2  12 7680.61 1336.67  13
   2   2  12 6734.18 1454.08   2
   2   2  13 16103.7 2271.71   2
   2   2  13 17361.9 2115.92  13
   2   2  14 3467.16 1022.97  13
   2   2  14 3423.06 1246.01   2
   2   2  15 70698.8 5150.60   2
   2   2  15 72448.4 2425.79   7
   2   2  16 8619.30 900.579   7
   2   2  16 9577.38 1968.13   2
   2   2  17 21116.3 1389.67   7
   2   2  17 20078.4 2968.16   2
   2   2  18 5214.30 755.264   7
   2   2  19 23058.9 1449.13   7
   2   2  20 13953.2 1143.29   7
   2   2  21 9050.43 908.090   7
  -2  -2 -21 8892.33 1042.64   5
  -2  -2 -22 25679.1 1596.76   5
   2   2  22 26556.4 1353.64   7
  -2  -2 -23 4290.19 631.911   6
  -2  -2 -23 3294.83 554.227   5
   2   2  23 3179.73 458.194   7
  -2  -2 -24 917.847 296.348   6
   2   2  24 342.421 177.331   7
  -2  -2 -24 357.548 220.428   5
  -2  -2 -25 6251.67 479.873   5
  -2  -2 -25 6519.96 489.495   6
   2   3 -23 1504.88 320.504   5
   2   3 -22 906.395 320.792   5
   2   3 -21 441.542 349.600   5
   2   3 -20 3149.70 685.281   5
   2   3 -19 2340.75 665.317   5
  -2  -3  18-372.585 416.961   7
   2   3 -18 262.181 410.486   5
  -2  -3  18 780.357 400.662   4
  -2  -3  17 8969.71 941.945   7
   2   3 -17 7832.87 1108.08   5
  -2  -3  16 8347.21 919.112   7
   2   3 -16 9020.66 1170.57   5
   2   3 -15 314.709 328.948   5
  -2  -3  15 496.611 625.231   2
  -2  -3  15-143.386 385.822   7
  -2  -3  14 1129.40 889.223   2
  -2  -3  14 1298.06 413.912   7
   2   3 -14 1669.73 567.751   5
  -2  -3  13 25282.3 3297.14   2
  -2  -3  12 359.160 654.115   2
  -2  -3  11 223.979 460.293   2
  -2  -3  10 21845.9 2687.70   2
  -2  -3   9 67129.7 4441.74   2
  -2  -3   9 65017.9 4142.41  12
  -2  -3   8 133969. 5671.19  12
  -2  -3   7 10452.2 1566.54  12
  -2  -3   6 95846.2 4337.93  12
  -2  -3   5-90.4492 404.211  12
  -2  -3   4 23354.6 1817.80  12
  -2  -3   3 23942.0 1620.83  12
   2   3  -2 122580. 2893.65  13
  -2  -3   2 127747. 3188.98  12
   2   3  -1 141.330 181.682  13
  -2  -3   1 303.332 173.855  12
   2   3   0 56481.3 2074.58  13
  -2  -3   0 52878.4 1395.74  12
  -2  -3   0 52666.5 1985.47   3
  -2  -3  -1 148177. 3226.91   3
   2   3   1 148311. 3474.38  13
  -2  -3  -1 146031. 2090.57  12
   2   3   2 2222.35 467.136  13
  -2  -3  -2 2190.87 423.156   3
   2   3   3 35966.9 1199.83   2
   2   3   3 37755.9 2031.06  13
   2   3   4 142877. 2808.86   2
   2   3   4 144171. 4298.81  13
   2   3   5 56072.4 2896.25  13
   2   3   5 57407.8 2048.51   2
   2   3   6 8380.31 1210.39  13
   2   3   6 8637.06 932.869   2
   2   3   7 1305.42 560.799  13
   2   3   7 704.197 349.077   2
   2   3   8 36540.1 2772.10  13
   2   3   8 39600.4 2508.79   2
   2   3   9 4945.28 1071.44  13
   2   3   9 3941.44 876.873   2
   2   3  10 30367.6 2758.28  13
   2   3  10 23314.0 2280.27   2
   2   3  11 96581.0 4873.52   2
   2   3  11 108269. 5183.52  13
   2   3  12 1330.78 562.505   2
   2   3  12 1471.84 630.486  13
   2   3  13 2295.33 829.743   2
   2   3  13 2923.75 956.599  13
   2   3  14 6047.50 1394.65  13
   2   3  14 5658.36 1365.51   2
   2   3  15 11116.6 1869.93  13
   2   3  15 12098.6 1015.42   7
   2   3  15 10006.0 1887.20   2
   2   3  16 663.931 388.701   7
   2   3  17 4617.65 692.332   7
   2   3  18-167.335 402.804   7
   2   3  19 18720.4 1324.24   7
   2   3  20 1284.83 460.156   7
  -2  -3 -21-95.4331 314.122   5
   2   3  21 62.3633 329.071   7
  -2  -3 -22 570.775 357.248   6
   2   3  22 659.536 318.193   7
  -2  -3 -22 665.739 383.066   5
   2   3  23 8654.44 704.678   7
  -2  -3 -23 9733.18 889.434   5
   2   3  24 15334.9 749.622   7
  -2  -3 -24 17924.2 988.333   6
  -2  -3 -24 16664.6 944.832   5
  -2  -3 -25 8528.49 528.703   6
   2   4 -23 2292.87 329.700   5
   2   4 -22 5985.98 652.624   5
   2   4 -21 102.068 301.152   5
   2   4 -20 20212.5 1414.80   5
  -2  -4  20 16044.7 1083.08   4
   2   4 -19 3030.83 675.177   5
  -2  -4  19 2062.55 475.030   4
  -2  -4  18 455.114 341.072   4
   2   4 -18-12.3600 329.214   5
   2   4 -17 9566.42 1174.50   5
  -2  -4  17 9412.22 978.467   7
  -2  -4  17 9287.02 1104.10   4
  -2  -4  16 23033.7 1656.23   4
  -2  -4  16 22287.5 1474.18   7
   2   4 -16 23100.1 1801.79   5
   2   4 -15 1042.09 489.160   5
  -2  -4  15-82.7122 308.595   7
  -2  -4  14 2670.84 1098.35   2
  -2  -4  14 1728.70 422.132   7
   2   4 -14 1405.73 528.153   5
  -2  -4  13 4011.03 1446.33   2
   2   4 -13 4148.59 780.943   5
  -2  -4  13 3625.52 613.014   7
  -2  -4  12 4509.84 1327.98   2
  -2  -4  11 41807.9 3894.25   2
  -2  -4  10 32468.4 3313.15   2
  -2  -4   9 10981.9 1827.93   2
  -2  -4   8 251353. 8346.20   2
  -2  -4   7 21763.8 2287.19  12
  -2  -4   7 25452.8 2591.21   2
  -2  -4   6 1152.26 609.258  12
  -2  -4   5 9274.48 1364.70  12
  -2  -4   4 270.183 282.764  12
  -2  -4   3 78829.2 3189.90  12
   2   4  -2 2461.77 476.332  13
  -2  -4   2 1721.61 415.720  12
   2   4  -1 29462.2 1567.81  13
  -2  -4   1 27039.1 1761.50   3
  -2  -4   0 556.329 260.114   3
   2   4   0 805.964 349.258  13
  -2  -4   0 575.773 144.582  12
  -2  -4  -1 4903.04 735.723   3
   2   4   1 4961.53 720.514  13
   2   4   2 102595. 3377.04  13
  -2  -4  -2 103536. 3281.77   3
   2   4   3 1444.31 458.462  13
   2   4   4 18083.8 736.480   2
   2   4   4 20166.9 1764.78  13
   2   4   5 5255.56 524.507   2
   2   4   5 4727.14 939.205  13
   2   4   6 5232.90 1045.94  13
   2   4   6 7102.81 747.061   2
   2   4   7 1342.09 398.098   2
   2   4   7 771.715 444.286  13
   2   4   8 38718.8 3114.35  13
   2   4   8 45134.3 2497.52   2
   2   4   9-80.1980 235.107   2
   2   4   9 256.277 447.422  13
   2   4  10 6173.07 1112.13   2
   2   4  10 9562.44 1689.23  13
   2   4  11 2340.24 652.250   2
   2   4  11 4018.93 1123.80  13
   2   4  12 48294.8 3842.79  13
   2   4  13 29495.8 3045.60  13
   2   4  14 13526.1 2124.06  13
   2   4  15 56243.7 4421.50  13
   2   4  15 61546.8 2307.11   7
   2   4  16 6494.79 1515.50  13
   2   4  16 9026.29 930.516   7
   2   4  17 35214.7 1777.04   7
   2   4  18 155.650 326.681   7
   2   4  19 13587.0 1092.39   7
   2   4  20 2081.90 495.208   7
  -2  -4 -21 2981.38 632.681   5
  -2  -4 -21 3192.73 645.171   6
   2   4  21 2749.45 498.219   7
   2   4  22 438.461 268.857   7
  -2  -4 -22 246.094 219.690   5
  -2  -4 -22 455.027 306.459   6
  -2  -4 -23 1072.63 334.065   6
  -2  -4 -23 677.621 272.816   5
   2   4  23 664.638 245.257   7
  -2  -4 -24 8540.59 644.741   6
  -2  -4 -24 6770.07 537.915   5
   2   5 -22 3824.34 453.314   5
   2   5 -21 2490.91 455.741   5
   2   5 -20 6372.65 756.618   5
  -2  -5  20 5255.76 632.842   4
   2   5 -19 33775.2 1849.50   5
  -2  -5  19 29684.3 1631.54   4
   2   5 -18 379.050 331.149   5
  -2  -5  18 451.400 359.753   4
  -2  -5  17 7048.09 957.409   4
   2   5 -17 6870.68 1006.44   5
  -2  -5  16 12448.1 1293.61   4
   2   5 -16 10336.6 1224.03   5
  -2  -5  15 480.511 428.416   4
   2   5 -15-174.999 344.064   5
   2   5 -14 9193.12 1181.36   5
  -2  -5  14 8912.80 1141.73   4
  -2  -5  14 10239.6 2238.40   2
  -2  -5  14 8850.45 968.818   7
   2   5 -13 14335.3 1420.79   5
  -2  -5  13 14374.3 2474.56   2
  -2  -5  13 14351.6 1178.94   7
   2   5 -12 13405.6 1301.73   5
  -2  -5  12 11820.8 2187.41   2
  -2  -5  12 11127.3 1010.24   7
  -2  -5  11 43685.7 4070.57   2
  -2  -5  10 45088.8 3982.88   2
  -2  -5   9 632.906 687.165   2
  -2  -5   8 16815.6 2246.35   2
  -2  -5   7 9957.10 1633.38   2
  -2  -5   6 22217.8 2353.44   2
  -2  -5   5 9409.81 1449.88   2
  -2  -5   4 15685.1 1704.51   2
  -2  -5   3 127164. 4439.32   2
   2   5  -3 147742. 3177.63  13
  -2  -5   2 13729.3 1487.40   3
  -2  -5   2 15471.0 1350.19   2
   2   5  -2 15637.3 1180.79  13
   2   5  -1 18929.9 1362.06  13
  -2  -5   1 17666.2 1196.32   2
  -2  -5   1 15189.2 1526.02   3
   2   5   0 52450.5 2350.46  13
  -2  -5   0 51423.6 1440.89   2
  -2  -5   0 49439.9 2637.69   3
   2   5   1 76269.6 3029.15  13
  -2  -5  -1 77612.3 3246.63   3
   2   5   2 212.940 302.844  13
  -2  -5  -2 115.371 197.729   3
  -2  -5  -3 25250.2 1895.61   3
   2   5   3 26580.9 1993.07  13
   2   5   4 1864.58 592.057  13
   2   5   5 11344.6 1579.53  13
   2   5   6 1051.54 537.390  13
   2   5   7 1687.93 643.355  13
   2   5   8 45040.0 3538.77  13
   2   5   9 4496.94 1220.16  13
   2   5  10 3796.91 1119.40  13
   2   5  11 49692.4 4014.59  13
   2   5  12 239.094 514.410  13
   2   5  13 146110. 7243.77  13
   2   5  14 33919.9 3565.11  13
   2   5  14 35772.2 1772.91   7
   2   5  15 49099.0 2080.58   7
   2   5  15 42797.4 4106.36  13
   2   5  16 5478.05 1501.57  13
   2   5  16 6798.41 814.132   7
   2   5  17 4734.30 710.745   7
   2   5  18 63.6781 292.123   7
  -2  -5 -19 587.174 413.838   6
   2   5  19 364.682 298.745   7
  -2  -5 -20 1217.11 442.699   6
   2   5  20 1050.73 399.984   7
  -2  -5 -20 926.000 357.992   5
  -2  -5 -21 7927.52 864.819   5
   2   5  21 8422.28 756.391   7
  -2  -5 -21 7810.58 881.673   6
   2   5  22 7207.44 623.748   7
  -2  -5 -22 8491.89 804.814   6
  -2  -5 -22 7637.83 778.366   5
   2   5  23 576.715 169.683   7
  -2  -5 -23 774.067 239.298   5
  -2  -5 -23 1189.09 305.187   6
  -2  -5 -24 1343.90 250.848   6
   2   6 -21 172.972 145.704   5
  -2  -6  21-81.7637 138.479   4
   2   6 -20 3240.80 522.867   5
  -2  -6  20 2890.96 457.968   4
  -2  -6  19 319.421 247.999   4
   2   6 -19-337.167 282.476   5
   2   6 -18 18509.8 1394.93   5
  -2  -6  18 17712.9 1415.50   4
   2   6 -17 2121.80 593.477   5
  -2  -6  17 1730.41 568.167   4
   2   6 -16 14510.2 1444.18   5
  -2  -6  16 13578.9 1424.13   4
   2   6 -15 14545.3 1471.38   5
  -2  -6  15 16193.1 1512.02   4
   2   6 -14 1445.22 531.757   5
  -2  -6  14 1436.58 631.252   4
  -2  -6  13 25318.6 1914.66   4
  -2  -6  13 21547.4 3149.56   2
   2   6 -13 25675.4 1819.45   5
  -2  -6  12 2362.15 682.817   4
   2   6 -12 2550.27 583.755   5
  -2  -6  12 2876.24 1303.06   2
  -2  -6  11 31055.0 1987.61   4
  -2  -6  11 34399.8 3656.20   2
  -2  -6  10 16672.6 2487.07   2
  -2  -6   9 19962.6 2607.47   2
  -2  -6   8 880.216 709.991   2
  -2  -6   7 9261.25 1624.92   2
  -2  -6   6 29427.8 2697.33   2
  -2  -6   5 9740.25 1432.94   2
  -2  -6   4 87083.4 3854.42   2
  -2  -6   3 47471.7 3158.25   3
  -2  -6   3 49377.8 2569.28   2
  -2  -6   2 17673.7 1860.45   3
  -2  -6   2 16845.0 1256.27   2
   2   6  -2 16971.3 1308.67  13
   2   6  -1 72175.6 2899.31  13
  -2  -6   1 69590.9 3553.63   3
   2   6   0 7399.40 984.767  13
  -2  -6   0 6906.17 1117.77   3
  -2  -6  -1 34772.0 2465.78   3
   2   6   1 32741.9 2161.75  13
  -2  -6  -2 14918.9 1613.46   3
   2   6   2 16173.9 1604.90  13
  -2  -6  -3 11869.3 1496.15   3
   2   6   3 12024.5 1479.55  13
   2   6   4 15880.2 1823.58  13
   2   6   5 61844.3 3842.82  13
   2   6   6 88.7208 358.347  13
   2   6   7 9832.56 1707.43  13
   2   6   8 7835.98 1524.37  13
   2   6   9 1754.10 813.901  13
   2   6  10 35696.7 3583.23  13
   2   6  11 6841.50 1667.32  13
   2   6  12-532.718 617.649  13
   2   6  13 17686.2 2678.70  13
   2   6  13 16421.3 1186.12   7
   2   6  14 34464.3 1741.69   7
   2   6  14 33180.7 3699.91  13
   2   6  15 15468.3 2587.77  13
   2   6  15 17613.6 1274.92   7
   2   6  16 19099.9 1316.89   7
  -2  -6 -16 18583.8 1548.61   6
   2   6  17 8208.96 866.027   7
  -2  -6 -17 8283.53 1044.73   6
  -2  -6 -18 453.696 306.888   6
   2   6  18 124.869 310.791   7
   2   6  19 7783.11 772.860   7
  -2  -6 -19 8170.01 953.338   6
  -2  -6 -20 3641.93 641.421   6
  -2  -6 -20 3796.31 585.545   5
   2   6  20 3797.13 541.233   7
   2   6  21 10189.4 752.288   7
  -2  -6 -21 10235.7 915.419   6
  -2  -6 -22 17917.0 1061.19   6
  -2  -6 -23 4205.93 462.436   6
   2   7 -20 259.376 179.632   5
  -2  -7  20 347.240 199.332   4
  -2  -7  19 1697.65 398.687   4
   2   7 -19 1846.58 401.289   5
  -2  -7  18 94.1918 264.979   4
   2   7 -18 759.142 353.251   5
  -2  -7  17 3254.79 712.297   4
   2   7 -17 2850.27 602.843   5
   2   7 -16 848.056 422.833   5
  -2  -7  16 948.585 458.299   4
   2   7 -15 9317.65 1117.29   5
  -2  -7  15 8658.03 1161.61   4
   2   7 -14 13114.5 1298.17   5
  -2  -7  14 12953.9 1392.34   4
   2   7 -13 1789.35 591.459   5
  -2  -7  13 2277.73 659.813   4
   2   7 -12 26303.1 1779.90   5
  -2  -7  12 32202.1 2098.39   4
  -2  -7  12 30207.5 3620.98   2
  -2  -7  11 1932.66 900.871   2
  -2  -7  11 1769.50 501.771   4
  -2  -7  10 13105.5 2258.93   2
  -2  -7  10 11589.8 1287.96   4
  -2  -7   9 27571.5 3119.29   2
  -2  -7   8 2324.11 872.870   2
  -2  -7   7 12992.1 1894.94   2
  -2  -7   6 16323.0 1973.28   2
  -2  -7   6 18342.3 2473.80   3
  -2  -7   5 1259.09 708.733   3
  -2  -7   4 324.253 363.599   3
  -2  -7   3 12717.8 1814.71   3
  -2  -7   2 37261.8 2940.80   3
  -2  -7   1 409.415 350.860   3
   2   7  -1 632.117 332.361  13
   2   7   0 997.591 435.312  13
  -2  -7   0 1054.04 454.276   3
   2   7   1 9341.97 1261.36  13
  -2  -7  -1 8623.47 1406.06   3
   2   7   2 21766.3 1988.65  13
  -2  -7  -2 21084.5 2140.03   3
   2   7   3 202933. 6525.58  13
  -2  -7  -3 204671. 6653.16   3
   2   7   4 3214.82 953.489  13
   2   7   5 185343. 7041.16  13
   2   7   6 33550.0 3181.62  13
   2   7   7 39519.9 3628.52  13
   2   7   8-363.854 694.254  13
   2   7   9 18087.2 2660.50  13
   2   7  10 12680.9 2266.31  13
   2   7  11 12312.9 2269.41  13
   2   7  12 1337.07 725.750  13
  -2  -7 -12 855.638 315.875   6
  -2  -7 -13 20031.7 1573.20   6
   2   7  13 18521.1 1300.99   7
   2   7  14 127.267 549.345  13
   2   7  14 471.736 392.481   7
  -2  -7 -14 706.923 452.667   6
   2   7  15-42.7823 320.233   7
  -2  -7 -15-182.349 300.854   6
  -2  -7 -16 393.245 411.622   6
   2   7  16 2367.36 496.330   7
  -2  -7 -17 4778.90 793.603   6
   2   7  17 4695.73 655.807   7
  -2  -7 -18-5.73825 310.271   6
   2   7  18-296.162 321.494   7
   2   7  19 8832.57 755.342   7
  -2  -7 -19 9742.99 985.812   6
  -2  -7 -20 6759.88 759.955   6
  -2  -7 -21 6.16920 192.100   6
  -2  -7 -22 11758.5 778.322   6
  -2  -7 -23 11256.2 625.967   6
  -2  -8  20 10597.4 667.708   4
  -2  -8  19 5522.38 583.472   4
  -2  -8  18 2317.61 474.933   4
   2   8 -18 1776.53 369.934   5
   2   8 -17 459.993 255.525   5
  -2  -8  17 551.545 334.498   4
  -2  -8  16 8942.64 1033.05   4
   2   8 -16 7888.97 841.939   5
  -2  -8  15 10006.8 1185.60   4
   2   8 -15 8939.87 979.223   5
  -2  -8  14 11842.5 1337.12   4
  -2  -8  13 77547.8 3305.99   4
  -2  -8  12 5762.34 980.234   4
  -2  -8  11 44252.0 5067.62   3
  -2  -8  11 39858.4 2363.08   4
  -2  -8  10 69.2433 283.590   4
  -2  -8  10-20.8861 612.781   3
  -2  -8   9 14291.9 2751.31   3
  -2  -8   9 16171.8 1468.80   4
  -2  -8   8 49349.1 4788.07   3
  -2  -8   8 59521.7 2633.61   4
  -2  -8   7 13162.8 2361.39   3
  -2  -8   6 20107.8 2775.41   3
  -2  -8   5 426.489 384.129   3
  -2  -8   4 3603.80 1143.97   3
  -2  -8   3 739.427 494.192   3
  -2  -8   2-70.4794 373.741   3
  -2  -8   1 992.368 572.764   3
  -2  -8   0 468.685 409.360   3
   2   8   0 345.531 358.276  13
  -2  -8  -1 1694.25 601.842   3
   2   8   1 2415.73 727.966  13
  -2  -8  -2 15135.3 1983.70   3
   2   8   2 15170.0 1793.51  13
  -2  -8  -3 69475.0 4326.00   3
   2   8   3 73362.0 4196.15  13
   2   8   4 27194.6 2715.34  13
   2   8   5 603.914 651.952  13
   2   8   6 4500.94 1305.52  13
   2   8   7 11975.1 2109.51  13
   2   8   8 1382.23 556.446  13
   2   8   9 3690.44 1234.67  13
   2   8  10 5746.17 1547.59  13
   2   8  11 22736.8 3266.74  13
  -2  -8 -11 19520.7 1352.22   4
   2   8  12 422.414 577.970  13
  -2  -8 -12 815.431 360.311   6
  -2  -8 -13 2081.81 509.772   6
   2   8  13 2891.32 1285.60  13
  -2  -8 -14 33390.3 1994.16   6
  -2  -8 -15 11603.7 1203.81   6
  -2  -8 -16 2904.12 643.700   6
  -2  -8 -17 1792.74 509.027   6
  -2  -8 -18 3207.74 582.440   6
  -2  -8 -19 141.215 230.498   6
  -2  -8 -20 8995.74 779.144   6
  -2  -8 -21 4298.09 491.415   6
  -2  -8 -22 1320.59 254.277   6
  -2  -9  19 219.023 150.882   4
  -2  -9  18 436.523 269.464   4
  -2  -9  17 8914.04 902.041   4
  -2  -9  16 12795.3 1159.41   4
  -2  -9  15 3628.92 672.090   4
  -2  -9  14 6480.06 963.758   4
  -2  -9  13 4703.92 871.006   4
  -2  -9  12 928.412 422.926   4
  -2  -9  11 1760.51 529.541   4
  -2  -9  10 732.686 374.309   4
  -2  -9   9-101.792 539.408   3
  -2  -9   9 30.3391 349.181   4
  -2  -9   8 494.255 357.427   4
  -2  -9   8 1468.97 1013.48   3
  -2  -9   7 9827.87 2202.70   3
  -2  -9   7 11070.1 1205.49   4
  -2  -9   6 107.655 429.734   3
  -2  -9   6 679.467 416.673   4
  -2  -9   5 9840.88 1990.63   3
  -2  -9   4 12185.9 2107.09   3
  -2  -9   3 15980.5 2366.11   3
  -2  -9   2 48884.6 4051.91   3
  -2  -9   1 30.6041 384.025   3
  -2  -9   0 33332.4 3237.15   3
  -2  -9  -1 84507.8 5138.62   3
   2   9   2 35005.4 2888.49  13
  -2  -9  -2 38792.1 3453.36   3
   2   9   3 13620.2 1939.14  13
   2   9   4-31.1038 403.801  13
   2   9   5 15294.5 2270.85  13
   2   9   6 20694.7 2805.79  13
   2   9   7 24566.2 3189.57  13
   2   9   8 17534.1 2712.91  13
   2   9   9 2442.26 1003.96  13
  -2  -9  -9 1788.18 418.936   4
   2   9  10 10923.4 2261.24  13
  -2  -9 -10 9600.75 949.847   4
   2   9  11 2461.93 1133.77  13
  -2  -9 -11 1841.99 433.292   4
  -2  -9 -12 16331.9 1331.04   6
  -2  -9 -13 4639.33 724.557  11
  -2  -9 -13 4345.05 705.846   6
  -2  -9 -14 1785.92 506.018  11
  -2  -9 -14 810.223 271.818   6
  -2  -9 -15 3537.81 616.648   6
  -2  -9 -15 3967.73 647.658  11
  -2  -9 -16 11709.9 1104.30   6
  -2  -9 -17 940.076 383.853   6
  -2  -9 -18 5336.91 694.184   6
  -2  -9 -19 1137.03 315.764   6
  -2  -9 -20 3858.26 449.743   6
  -2  -9 -21 29.5059 107.480   6
  -2 -10  18 9349.49 651.701   4
  -2 -10  17 648.175 278.710   4
  -2 -10  16 25143.2 1460.99   4
  -2 -10  15 1539.75 465.666   4
  -2 -10  14 17710.5 1463.57   4
  -2 -10  13 2064.28 662.365   4
  -2 -10  12 5127.15 906.035   4
  -2 -10  11-653.323 624.528   4
  -2 -10  10 420.599 456.494   4
  -2 -10   9-426.148 493.012   4
  -2 -10   8 638.070 408.610   4
  -2 -10   7 584.931 359.752   1
  -2 -10   7 1568.45 927.681   3
  -2 -10   7 648.234 394.957   4
  -2 -10   6 1124.03 424.484   1
  -2 -10   6 1639.23 939.931   3
  -2 -10   6 863.502 394.476   4
  -2 -10   5 2418.46 555.738   4
  -2 -10   5 1117.27 425.989   1
  -2 -10   5 1442.34 838.011   3
  -2 -10   4 6398.35 795.829   1
  -2 -10   4 6206.11 817.591   4
  -2 -10   4 6248.30 1614.28   3
  -2 -10   3 440.859 731.668   3
  -2 -10   3 153.940 349.367   1
  -2 -10   3 26.6824 228.257   4
  -2 -10   2 45023.3 4213.66   3
  -2 -10   2 49391.1 2157.71   1
  -2 -10   2 46750.3 2104.43   4
  -2 -10   1 14322.1 1176.65   4
  -2 -10   1 14616.4 2320.20   3
  -2 -10   1 16753.8 1263.54   1
  -2 -10   0 8675.66 1769.26   3
  -2 -10   0 9642.79 949.782   1
  -2 -10  -1 177214. 3915.28   1
  -2 -10  -1 186632. 8164.12   3
  -2 -10  -2 32710.4 1701.00   1
  -2 -10  -2 30311.0 3285.84   3
   2  10   4 36634.0 3449.14  13
   2  10   5 673.943 622.361  13
  -2 -10  -5 126.671 183.829   4
   2  10   6 2439.51 1150.94  13
  -2 -10  -6 1336.35 388.037   4
  -2 -10  -7 5030.77 670.308   4
   2  10   7 4527.30 1372.38  13
   2  10   8 1594.86 1026.03  13
  -2 -10  -8 2095.59 461.247   4
  -2 -10  -9 1397.58 404.680   4
   2  10   9 1122.21 1071.92  13
  -2 -10 -10 465.934 326.149   4
  -2 -10 -11-37.4059 390.816  11
  -2 -10 -12 3548.48 686.000  11
  -2 -10 -13 1371.05 467.847  11
  -2 -10 -14 4491.07 650.879   6
  -2 -10 -14 5838.28 794.506  11
  -2 -10 -15 7057.44 798.783  11
  -2 -10 -15 5763.91 804.410   6
  -2 -10 -16 30787.7 1600.80   6
  -2 -10 -17 6269.49 708.287   6
  -2 -10 -18 16254.2 987.596   6
  -2 -10 -19 1291.71 273.456   6
  -2 -11  17 4257.95 434.773   4
  -2 -11  16 11190.6 825.595   4
  -2 -11  15 2191.73 448.104   4
  -2 -11  14 1596.12 470.469   4
  -2 -11  13 865.936 437.686   4
  -2 -11  12 2888.36 707.811   4
  -2 -11  11-115.544 431.332   4
  -2 -11  10-264.465 473.382   4
  -2 -11   9 8629.69 1079.39   4
  -2 -11   8 356.789 309.640   1
  -2 -11   8 635.632 316.606   4
  -2 -11   7 14202.2 1201.89   1
  -2 -11   7 14351.0 1357.40   4
  -2 -11   6 6138.04 834.739   1
  -2 -11   6 6015.08 898.950   4
  -2 -11   5 1024.16 369.012   1
  -2 -11   5 1677.57 475.848   4
  -2 -11   4 9905.57 1050.50   1
  -2 -11   4 11463.3 1118.42   4
  -2 -11   3 1285.84 511.314   1
  -2 -11   3 777.730 383.344   4
  -2 -11   3 849.726 638.625   3
  -2 -11   2 4887.25 1438.70   3
  -2 -11   2 5484.24 858.567   1
  -2 -11   2 4905.73 722.631   4
  -2 -11   1 3977.83 651.747  11
  -2 -11   1 5065.30 810.407   1
  -2 -11   1 5999.55 1591.48   3
  -2 -11   1 3736.50 630.696   4
  -2 -11   0 1703.32 883.110   3
  -2 -11   0 1931.19 535.382   1
  -2 -11   0 1014.00 413.024  11
  -2 -11   0 1260.81 376.988   4
  -2 -11  -1 6213.74 779.882   4
  -2 -11  -1 6903.03 1665.82   3
  -2 -11  -1 6541.96 828.488  11
  -2 -11  -2 30585.3 1632.18   4
  -2 -11  -2 29872.5 1842.03  11
  -2 -11  -3 443.642 258.349   4
  -2 -11  -3 162.316 366.745  11
  -2 -11  -4 10654.2 969.917   4
  -2 -11  -4 11089.1 1205.25  11
  -2 -11  -5 37859.2 1788.20   4
  -2 -11  -5 35753.6 2141.96  11
  -2 -11  -6 290.438 281.855   4
  -2 -11  -6-197.847 437.188  11
  -2 -11  -7 4009.87 792.377  11
  -2 -11  -7 5036.09 664.709   4
  -2 -11  -8 904.618 466.248  11
  -2 -11  -8 1070.55 376.395   4
  -2 -11  -9 10489.0 1013.16   4
  -2 -11  -9 9283.23 1175.84  11
  -2 -11 -10 10302.9 1148.94  11
  -2 -11 -11 231.932 328.685  11
  -2 -11 -12 18040.6 1407.25  11
  -2 -11 -13 24958.9 1581.79  11
  -2 -11 -14 8064.79 849.747  11
  -2 -11 -15 3578.17 560.311  11
  -2 -11 -16 10664.9 798.889  11
  -2 -12  16 144.862 132.223   4
  -2 -12  15 3019.42 410.326   4
  -2 -12  14 1150.54 336.427   4
  -2 -12  13 3613.44 574.593   4
  -2 -12  12 4919.73 730.540   4
  -2 -12  11 7599.34 953.693   4
  -2 -12  10 2395.85 547.079   4
  -2 -12   9 24247.8 1740.46   4
  -2 -12   8 1253.72 479.764   4
  -2 -12   7 20653.1 1589.40   4
  -2 -12   6 3392.06 715.557   4
  -2 -12   5 671.565 388.220   1
  -2 -12   5 1435.09 503.247   4
  -2 -12   4 1825.63 585.679   1
  -2 -12   4 2439.54 586.392   4
  -2 -12   3 7344.60 1032.25   1
  -2 -12   3 6647.73 852.212   4
  -2 -12   2 14416.4 1213.95   4
  -2 -12   1-43.1776 331.009  11
  -2 -12   1 33.3454 260.979   4
  -2 -12   0 3996.43 592.790   4
  -2 -12   0 4019.71 671.545  11
  -2 -12  -1-227.327 277.416   4
  -2 -12  -1 39.0224 281.491  11
  -2 -12  -2 7042.67 797.138   4
  -2 -12  -2 7055.28 936.649  11
  -2 -12  -3 434.342 343.302  11
  -2 -12  -3 360.885 230.686   4
  -2 -12  -4 407.264 404.413  11
  -2 -12  -4 216.363 274.643   4
  -2 -12  -5 101.556 261.032   4
  -2 -12  -5-58.2642 426.104  11
  -2 -12  -6 6810.31 792.445   4
  -2 -12  -6 6450.63 948.989  11
  -2 -12  -7 1524.85 398.883   4
  -2 -12  -7 1456.18 559.954  11
  -2 -12  -8 2160.76 666.782  11
  -2 -12  -9 703.041 472.423  11
  -2 -12 -10 4403.94 772.334  11
  -2 -12 -11 13414.1 1206.50  11
  -2 -12 -12 215.265 332.177  11
  -2 -12 -13 14218.1 1137.44  11
  -2 -12 -14 11395.9 935.284  11
  -2 -12 -15 696.795 282.881  11
  -2 -12 -16 1028.81 270.207  11
  -2 -13  14 4238.15 440.714   4
  -2 -13  13 236.800 176.395   4
  -2 -13  12 683.566 317.113   4
  -2 -13  11 9476.06 898.084   4
  -2 -13  10 91.9211 265.979   4
  -2 -13   9 17318.8 1317.33   4
  -2 -13   8 7178.55 921.400   4
  -2 -13   7 905.437 446.530   4
  -2 -13   6 19573.6 1463.16   4
  -2 -13   5 14678.2 1281.11   4
  -2 -13   4 600.782 375.165   4
  -2 -13   3 31806.4 1763.52   4
  -2 -13   2 3764.97 635.568   4
  -2 -13   1 21004.9 1373.72  11
  -2 -13   1 22823.6 1453.38   4
  -2 -13   0 13027.0 1140.65  11
  -2 -13   0 13244.3 1093.16   4
  -2 -13  -1 776.966 420.786  11
  -2 -13  -1 317.375 249.546   4
  -2 -13  -2-89.0148 207.140   4
  -2 -13  -2 261.643 309.073  11
  -2 -13  -3 734.391 474.252  11
  -2 -13  -3 235.724 223.271   4
  -2 -13  -4 19295.8 1243.69   4
  -2 -13  -4 21326.1 1597.64  11
  -2 -13  -5 13787.1 1366.62  11
  -2 -13  -5 12007.4 1006.55   4
  -2 -13  -6 15694.9 1406.67  11
  -2 -13  -6 15127.3 1098.20   4
  -2 -13  -7 9396.16 1107.87  11
  -2 -13  -8 1300.58 536.502  11
  -2 -13  -9 13605.0 1253.33  11
  -2 -13 -10 7890.99 927.196  11
  -2 -13 -11 13556.8 1154.16  11
  -2 -13 -12 233.706 304.558  11
  -2 -13 -13 1985.08 427.928  11
  -2 -13 -14 4259.46 512.310  11
  -2 -13 -15 11974.6 740.564  11
  -2 -14  12 3554.10 415.861   4
  -2 -14  11 3359.64 448.390   4
  -2 -14  10 658.416 268.050   4
  -2 -14   9 866.888 213.474   4
  -2 -14   8 2346.11 403.085   4
  -2 -14   7 8900.40 851.838   4
  -2 -14   6 5087.56 665.964   4
  -2 -14   5 19846.9 1319.36   4
  -2 -14   4 7484.15 792.452   4
  -2 -14   3 12086.3 993.257   4
  -2 -14   2 29112.9 1515.79   4
  -2 -14   1 295.169 252.749   4
  -2 -14   1-174.749 249.735  11
  -2 -14   0 13196.3 1017.52   4
  -2 -14   0 11896.0 1008.26  11
  -2 -14  -1 2934.84 507.029   4
  -2 -14  -1 3673.41 630.954  11
  -2 -14  -2 16.7624 321.818  11
  -2 -14  -2 573.348 295.916   4
  -2 -14  -3 1987.56 414.979   4
  -2 -14  -3 2555.96 583.699  11
  -2 -14  -4 16770.0 1057.82   4
  -2 -14  -4 20636.4 1510.86  11
  -2 -14  -5 1990.19 624.154  11
  -2 -14  -6 16424.3 1370.02  11
  -2 -14  -7 960.002 428.734  11
  -2 -14  -8 7548.33 877.714  11
  -2 -14  -9 6432.36 786.281  11
  -2 -14 -10 10537.5 924.493  11
  -2 -14 -11 413.742 309.122  11
  -2 -14 -12 16249.2 1004.12  11
  -2 -14 -13 10584.9 737.780  11
  -2 -14 -14 281.636 173.728  11
  -2 -15   9 6696.44 531.452   4
  -2 -15   8 2884.83 380.327   4
  -2 -15   7 252.895 163.780   4
  -2 -15   6 288.412 192.803   4
  -2 -15   5 2646.23 455.286   4
  -2 -15   4 1562.80 350.230   4
  -2 -15   3 3599.69 507.956   4
  -2 -15   2 961.268 296.442   4
  -2 -15   1 2558.20 409.171   4
  -2 -15   0 623.362 266.218  11
  -2 -15   0 1198.62 311.149   4
  -2 -15  -1 9464.15 820.207  11
  -2 -15  -1 9655.37 719.763   4
  -2 -15  -2 4231.76 475.408   4
  -2 -15  -2 4247.11 608.857  11
  -2 -15  -3 6102.44 726.308  11
  -2 -15  -4 21334.7 1345.45  11
  -2 -15  -5 959.594 355.547  11
  -2 -15  -6 25158.1 1451.19  11
  -2 -15  -7 576.181 282.910  11
  -2 -15  -8 4674.95 638.186  11
  -2 -15  -9 7056.51 729.996  11
  -2 -15 -10 242.001 221.895  11
  -2 -15 -11 1500.55 320.244  11
  -2 -15 -12 4136.32 413.198  11
  -2 -16   4 1283.47 215.361   4
  -2 -16   3 1393.89 228.862   4
  -2 -16   2 835.485 192.508   4
  -2 -16  -2 3965.23 450.631  11
  -2 -16  -3 185.259 186.487  11
  -2 -16  -4 1439.59 351.311  11
  -2 -16  -5 2458.58 423.640  11
  -2 -16  -6 380.811 232.520  11
  -2 -16  -7 569.253 240.049  11
  -2 -16  -8 311.710 184.871  11
  -2 -16  -9 81.7126 163.080  11
   3 -15  -7 5448.81 484.990  11
   3 -15  -6 7919.61 646.161  11
   3 -15  -5 12217.4 806.996  11
   3 -15  -4-430.332 279.271  11
   3 -15  -3-182.814 224.806  11
   3 -15  -2 6072.11 625.210  11
   3 -15  -1 1774.62 376.908  11
   3 -15   0-421.982 237.094  11
   3 -15   1 8049.02 609.418  11
   3 -15   2 3450.87 369.509  11
   3 -14 -10 12232.7 677.283  11
   3 -14  -9 112.730 192.742  11
   3 -14  -8 14737.8 940.518  11
   3 -14  -7 6426.98 690.038  11
   3 -14  -6 1162.96 363.954  11
   3 -14  -5 8258.81 839.791  11
   3 -14  -4 8076.81 853.658  11
   3 -14  -3 927.060 433.777  11
   3 -14  -2 1189.46 435.502  11
   3 -14  -1 2626.10 554.076  11
   3 -14   0 912.542 360.476  11
   3 -14   1 123.693 273.925  11
   3 -14   2 10170.5 849.476  11
   3 -14   3 690.389 232.925  11
   3 -14   3 2760.00 645.490   1
   3 -14   4 637.300 216.930  11
   3 -14   4 2397.99 515.301   1
   3 -14   5-719.019 407.142   1
   3 -14   6-378.584 352.944   1
   3 -14   7 4907.86 607.124   1
   3 -13 -12 392.274 178.777   6
   3 -13 -12 143.021 137.535  11
   3 -13 -11-311.351 207.431   6
   3 -13 -11-188.376 220.100  11
   3 -13 -10 380.146 178.432   6
   3 -13 -10 868.949 274.298  11
   3 -13  -9 13523.1 971.999  11
   3 -13  -9 10905.2 868.146   6
   3 -13  -8 2797.39 489.863   6
   3 -13  -8 2602.77 499.979  11
   3 -13  -7 19670.1 1375.59  11
   3 -13  -7 19274.7 1193.08   6
   3 -13  -6 23424.9 1568.57  11
   3 -13  -5 2707.37 629.708  11
   3 -13  -4 3498.46 703.435  11
   3 -13  -3 9115.79 1038.21  11
   3 -13  -2 3707.81 747.479  11
   3 -13  -1 6931.39 872.245   1
   3 -13  -1 7389.71 898.546  11
   3 -13   0 1186.15 451.530  11
   3 -13   0 2297.18 534.622   1
   3 -13   1 3371.77 647.509   1
   3 -13   1 3087.04 614.084  11
   3 -13   2 1564.34 514.266   1
   3 -13   2 1091.74 388.057  11
   3 -13   3 3422.71 693.893   1
   3 -13   3 1877.16 424.485  11
   3 -13   4 421.218 211.094  11
   3 -13   4 1641.80 566.141   1
   3 -13   5 7824.34 886.228   1
   3 -13   5 7176.51 684.336  11
   3 -13   6 9736.58 945.890   1
   3 -13   7 397.930 338.342   1
   3 -13   8 11691.1 979.341   1
   3 -13   9 499.020 357.003   1
   3 -13  10 16339.2 956.504   1
   3 -13  11 2934.69 408.679   1
   3 -12 -15 6177.61 480.124   6
   3 -12 -14 173.076 179.295   6
   3 -12 -13 801.377 284.105   6
   3 -12 -12 54.0179 239.565   6
   3 -12 -12 6.91246 163.841  11
   3 -12 -11 294.184 271.635   6
   3 -12 -11 542.438 242.418  11
   3 -12 -10-295.298 322.277   6
   3 -12 -10 151.015 253.371  11
   3 -12  -9 15820.5 1238.56  11
   3 -12  -9 16467.8 1215.04   6
   3 -12  -8 8112.89 960.474  11
   3 -12  -8 7825.57 874.527   6
   3 -12  -7 10950.0 1187.14  11
   3 -12  -7 12223.6 1055.77   8
   3 -12  -7 10598.9 1004.36   6
   3 -12  -6 14067.8 1202.47   8
   3 -12  -6 11903.6 1046.16   6
   3 -12  -6 11677.5 1261.65  11
   3 -12  -5 2957.15 699.112  11
   3 -12  -5 3666.37 697.622   8
   3 -12  -5 4139.55 643.632   6
   3 -12  -4-446.466 519.405   8
   3 -12  -4 127.756 234.052   6
   3 -12  -4 111.371 353.152  11
   3 -12  -3 7903.05 991.870  11
   3 -12  -3 8266.01 848.831   6
   3 -12  -3 8973.46 890.409   1
   3 -12  -3 7156.28 972.463   8
   3 -12  -2 7466.50 1049.13   8
   3 -12  -2 7851.11 1039.33  11
   3 -12  -2 6764.51 822.141   1
   3 -12  -1 1216.29 470.442  11
   3 -12  -1 1538.19 657.689   8
   3 -12  -1 1625.70 468.784   1
   3 -12   0 24436.2 1497.72   1
   3 -12   0 26255.1 1703.93   8
   3 -12   0 25181.8 1664.17  11
   3 -12   1 1505.47 618.700   8
   3 -12   1 1792.74 617.594   1
   3 -12   1 891.252 487.332  11
   3 -12   2 25898.7 1662.46   1
   3 -12   2 23240.2 1549.24  11
   3 -12   3 4664.31 711.605   1
   3 -12   3 4705.99 728.270  11
   3 -12   4 4677.34 756.256   1
   3 -12   4 3628.48 601.606  11
   3 -12   5 202.304 520.834   1
   3 -12   5 223.393 267.525  11
   3 -12   6 3545.16 577.794   1
   3 -12   7 437.021 357.371   1
   3 -12   8 1511.92 509.617   1
   3 -12   9 830.649 401.796   1
   3 -12  10 836.936 366.065   1
   3 -12  10 108.451 177.592   4
   3 -12  11 48.8908 247.621   1
   3 -12  11-360.000 257.530   4
   3 -12  12 8142.73 685.571   1
   3 -12  12 5452.39 579.868   4
   3 -12  13 6524.91 518.443   1
   3 -12  13 5087.89 521.052   4
   3 -12  14 13378.8 712.020   4
   3 -11 -17 19315.8 795.120   6
   3 -11 -16 94.8625 149.114   6
   3 -11 -15 3476.49 486.402   6
   3 -11 -14 1358.11 389.204   6
   3 -11 -13 91.4014 233.989   6
   3 -11 -12 3808.27 560.662   6
   3 -11 -12 5125.54 621.086  11
   3 -11 -11 5954.47 729.862  11
   3 -11 -11 4684.62 684.145   6
   3 -11 -10 5918.83 792.600  11
   3 -11 -10 4537.28 744.616   6
   3 -11  -9 25639.8 1646.74   6
   3 -11  -9 26383.1 1440.26   8
   3 -11  -9 25306.7 1685.29  11
   3 -11  -8 10140.0 1047.24   6
   3 -11  -8 9529.23 1123.30  11
   3 -11  -8 10772.2 996.703   8
   3 -11  -7 2945.40 592.430   6
   3 -11  -7 2970.32 629.309   8
   3 -11  -7 3095.08 747.886  11
   3 -11  -6 6202.96 799.656   6
   3 -11  -6 6542.90 863.652   8
   3 -11  -6 5618.99 916.799  11
   3 -11  -5 4542.27 712.710   6
   3 -11  -5 2634.69 646.306  11
   3 -11  -5 4202.54 744.323   8
   3 -11  -4 4580.02 650.768   6
   3 -11  -4 4211.49 677.593   1
   3 -11  -4 3298.65 675.415   8
   3 -11  -4 4047.78 774.349  11
   3 -11  -3 1100.94 454.312  11
   3 -11  -3 1308.85 390.568   6
   3 -11  -3 1427.06 448.827   1
   3 -11  -3 1723.77 576.205   8
   3 -11  -2 10394.6 1006.06   1
   3 -11  -2 11620.0 1180.78   8
   3 -11  -2 11610.4 1032.60   6
   3 -11  -2 11781.4 1225.48  11
   3 -11  -1 355.863 335.487   1
   3 -11  -1 710.184 589.034   8
   3 -11  -1 609.756 354.450   6
   3 -11  -1 311.415 357.383  11
   3 -11   0 2633.37 707.870   8
   3 -11   0 1641.81 733.542   1
   3 -11   0 1720.31 516.654  11
   3 -11   1 18243.0 1397.88  11
   3 -11   1 18622.5 1436.59   8
   3 -11   1 18195.3 1382.80   1
   3 -11   2 55776.9 2366.15   8
   3 -11   2 54400.9 2416.11   1
   3 -11   2 53806.5 2402.76  11
   3 -11   3 16424.2 1314.49   8
   3 -11   3 16327.3 1385.82   1
   3 -11   3 16441.4 1291.12  11
   3 -11   4 1727.18 516.207   1
   3 -11   4 1682.29 479.865  11
   3 -11   5 10855.4 1093.83   1
   3 -11   5 11921.8 1072.38  11
   3 -11   6 8563.68 931.849   1
   3 -11   7 4530.16 763.420   1
   3 -11   8 1047.56 571.081   1
   3 -11   8-129.186 282.177   4
   3 -11   9 108.261 262.968   4
   3 -11   9 1249.20 560.835   1
   3 -11  10 3884.35 666.132   1
   3 -11  10 2171.89 484.568   4
   3 -11  11 215.015 350.814   1
   3 -11  11-474.866 373.565   4
   3 -11  12 14397.3 1004.28   1
   3 -11  12 10409.0 997.371   4
   3 -11  13 6222.01 615.587   1
   3 -11  13 5432.10 709.978   4
   3 -11  14 1588.13 407.689   4
   3 -11  15 12086.2 847.904   4
   3 -11  16 99.8054 138.649   4
   3 -10 -18 196.403 141.692   6
   3 -10 -17 240.934 176.859   6
   3 -10 -17 496.509 188.309  10
   3 -10 -16 1712.90 374.940   6
   3 -10 -15 2292.84 454.489   6
   3 -10 -14 726.624 337.175   6
   3 -10 -13 10292.7 1027.35   6
   3 -10 -12 627.658 288.412   6
   3 -10 -12 755.460 289.621  11
   3 -10 -11 37291.8 2083.54   6
   3 -10 -11 38655.1 1885.01  11
   3 -10 -10 146.590 318.396  11
   3 -10 -10 689.566 418.760   6
   3 -10  -9 10377.3 1095.00  11
   3 -10  -9 11396.7 1176.85   6
   3 -10  -9 9551.14 951.377   8
   3 -10  -8 16425.1 1453.02  11
   3 -10  -8 15301.0 1320.64   6
   3 -10  -8 14788.7 1195.88   8
   3 -10  -7 8154.63 959.866   6
   3 -10  -7 7501.14 1067.13  11
   3 -10  -7 7862.33 930.593   8
   3 -10  -6 3473.99 751.974   8
   3 -10  -6 2788.79 568.914   6
   3 -10  -6 2908.50 739.676  11
   3 -10  -5 6337.35 874.434   8
   3 -10  -5 6815.74 827.273   6
   3 -10  -5 5114.67 817.650  11
   3 -10  -4 11783.1 1171.52   8
   3 -10  -4 12375.2 1065.48   1
   3 -10  -4 14094.6 1145.68   6
   3 -10  -4 13259.7 1289.55  11
   3 -10  -3 51.9618 263.674   6
   3 -10  -3-160.574 388.417   8
   3 -10  -3 311.840 274.746   1
   3 -10  -3-115.322 407.532  11
   3 -10  -2 9912.60 964.610   6
   3 -10  -2 10709.4 1126.73   8
   3 -10  -2 9786.95 951.193   1
   3 -10  -2 10101.2 1106.37  11
   3 -10  -1 9044.76 1039.17   8
   3 -10  -1 9172.04 1016.45  11
   3 -10  -1 7052.93 809.960   1
   3 -10  -1 8682.07 890.224   6
   3 -10   0 26482.0 1666.30   8
   3 -10   0 26990.7 1548.04   6
   3 -10   0 25676.9 1530.76   1
   3 -10   0 26412.8 1698.31  11
   3 -10   1 3289.20 1186.11   3
   3 -10   1 3920.15 680.822   1
   3 -10   1 4388.73 759.342   8
   3 -10   1 3326.93 646.196  11
   3 -10   2-390.063 577.457   3
   3 -10   2 147.598 270.042  11
   3 -10   2 322.977 455.156   1
   3 -10   2 777.891 505.317   8
   3 -10   3 11124.0 1057.11   8
   3 -10   3 11002.5 1119.80   1
   3 -10   3 10181.2 2158.62   3
   3 -10   3 10821.7 1042.85  11
   3 -10   4 17043.7 1435.16   1
   3 -10   4 15679.4 1292.74   8
   3 -10   4 14852.6 1218.97  11
   3 -10   5 144.531 422.082   8
   3 -10   5 516.563 561.596   1
   3 -10   5 211.373 262.742  11
   3 -10   6 9025.42 925.941  11
   3 -10   6 7889.25 1001.46   1
   3 -10   7 21795.7 1558.04   1
   3 -10   8 1609.33 531.830   4
   3 -10   8 1317.72 377.279   1
   3 -10   9 26259.3 1803.06   4
   3 -10   9 24633.7 1613.95   1
   3 -10  10 29517.2 1723.67   1
   3 -10  10 27984.1 1897.70   4
   3 -10  11 10099.6 984.195   1
   3 -10  11 8110.60 1062.59   4
   3 -10  12 38317.8 1756.66   1
   3 -10  12 28094.0 1854.31   4
   3 -10  13 1919.89 438.308   1
   3 -10  13 575.379 346.831   4
   3 -10  14 7382.83 923.668   4
   3 -10  14 8975.20 735.864   1
   3 -10  15 2823.73 568.899   4
   3 -10  16 1148.36 363.383   4
   3 -10  17 2198.43 379.342   4
   3 -10  18 312.373 147.297   4
   3  -9 -19 1618.42 285.763   6
   3  -9 -19 1651.62 279.497  10
   3  -9 -18 906.602 271.625   6
   3  -9 -17 422.114 252.059   6
   3  -9 -16 1058.26 379.695   6
   3  -9 -15 6135.34 820.153   6
   3  -9 -14 730.330 452.760   6
   3  -9 -13 5341.47 809.014   6
   3  -9 -12 1489.24 430.108   6
   3  -9 -11 718.444 374.631  11
   3  -9 -11 684.906 393.273   6
   3  -9 -10 21772.8 1659.99   6
   3  -9 -10 21831.6 1521.74  11
   3  -9  -9 19660.3 1540.36   6
   3  -9  -9 20395.6 1523.56  11
   3  -9  -9 19996.0 1306.69   8
   3  -9  -8 1213.37 437.087   8
   3  -9  -8 1203.30 477.124   6
   3  -9  -8 1260.06 477.986  11
   3  -9  -7 33439.6 1792.15   8
  -3   9   7 33933.8 4113.58  13
   3  -9  -7 34058.9 1889.40   6
   3  -9  -7 33093.1 2014.43  11
   3  -9  -6 32750.6 1799.56   8
  -3   9   6 30807.8 3854.22  13
   3  -9  -6 33250.2 1810.23   6
   3  -9  -6 29688.8 1906.99  11
   3  -9  -5 4284.41 723.820   8
  -3   9   5 3787.01 1405.31  13
   3  -9  -5 5485.83 742.018   6
   3  -9  -5 4714.64 760.253  11
   3  -9  -4 29627.5 1847.72  11
  -3   9   4 20194.8 2925.95  13
   3  -9  -4 29825.3 1642.88   6
   3  -9  -4 23384.0 1551.30   8
   3  -9  -3 4655.02 653.809   6
   3  -9  -3 4190.05 865.179  11
   3  -9  -3 3240.38 557.273   8
   3  -9  -3 4122.72 542.938   1
   3  -9  -2 12653.4 1049.33   6
   3  -9  -2 12020.4 1091.72   8
   3  -9  -2 12540.0 1175.23  11
   3  -9  -2 11951.5 1001.75   1
   3  -9  -1 5494.15 683.789   6
   3  -9  -1 5265.00 688.397   1
   3  -9  -1 4841.66 701.372   8
   3  -9  -1 5459.99 761.020  11
   3  -9   0 47235.4 2003.27   6
   3  -9   0 44004.3 1971.54   1
   3  -9   0 46836.5 2049.47   8
   3  -9   0 47310.3 4340.53   3
   3  -9   0 45508.9 2113.09  11
   3  -9   1 4539.55 706.154  11
   3  -9   1 5101.29 1454.33   3
   3  -9   1 4549.40 681.801   8
   3  -9   1 4570.52 636.959   6
   3  -9   1 3857.28 636.884   1
   3  -9   2 1728.96 503.204   8
   3  -9   2 1707.90 475.527   1
   3  -9   2 1909.22 914.450   3
   3  -9   2 1156.28 376.669  11
   3  -9   3 12738.6 2298.85   3
   3  -9   3 12599.2 1101.60  11
   3  -9   3 13251.1 1101.92   8
   3  -9   3 12629.5 1170.66   1
   3  -9   4 649.538 432.793   8
   3  -9   4 354.014 517.911   3
   3  -9   4 456.936 277.419  11
   3  -9   4 178.844 407.299   1
   3  -9   5 68056.1 2511.42  11
   3  -9   5 70321.6 2730.15   1
   3  -9   5 71277.7 2491.86   8
   3  -9   5 64859.8 5221.74   3
   3  -9   6 956.766 389.805  11
   3  -9   6 915.256 793.346   3
   3  -9   6 1079.87 374.669   8
   3  -9   6 1329.02 469.593   1
   3  -9   7 23740.9 3294.65   3
   3  -9   7 25234.7 1655.20   4
   3  -9   7 21870.7 1537.32   1
   3  -9   8 7926.67 1024.15   4
   3  -9   8 7667.01 985.849   1
   3  -9   9 15582.9 1399.06   4
   3  -9   9 14933.2 1274.94   1
   3  -9  10 10723.4 1277.18   4
   3  -9  10 11288.6 1075.68   1
   3  -9  11 1398.01 422.033   1
   3  -9  11 1039.36 465.068   4
   3  -9  12 34716.7 1765.71   1
   3  -9  12 30471.2 2089.07   4
   3  -9  13 7817.77 1104.27   4
   3  -9  13 7884.93 828.685   1
   3  -9  14 4520.85 855.013   4
   3  -9  14 5033.68 619.473   1
   3  -9  15 1595.32 524.438   4
   3  -9  16 579.904 341.683   4
   3  -9  17-335.434 286.889   4
   3  -9  18 267.083 200.079   4
   3  -9  19-23.8071 127.025   4
   3  -8 -20 1402.74 298.047  10
   3  -8 -20 1404.22 267.583   6
   3  -8 -19 12135.7 824.962   6
   3  -8 -18 9823.98 841.386   6
   3  -8 -17 1784.93 468.435   6
   3  -8 -16 15133.8 1270.69   6
   3  -8 -15 9433.84 1088.42   6
   3  -8 -14 1190.27 488.854   6
   3  -8 -13 8337.96 1039.99   6
   3  -8 -12 5265.63 845.152   6
   3  -8 -11 1615.55 552.188   6
   3  -8 -10 667.770 372.931   6
   3  -8 -10 998.683 423.266  11
  -3   8   9 23647.5 3406.97  13
   3  -8  -9 23041.0 1632.68   6
   3  -8  -9 24471.2 1588.22  11
   3  -8  -8 27977.3 1549.76   8
   3  -8  -8 28827.9 1759.28   6
   3  -8  -8 29390.0 1773.63  11
  -3   8   8 30182.8 3848.98  13
   3  -8  -7 31842.0 1701.29   8
  -3   8   7 36742.7 4173.51  13
   3  -8  -7 34831.3 1964.00  11
   3  -8  -7 34208.6 1836.37   6
  -3   8   6 62592.9 5402.92  13
   3  -8  -6 59150.6 2322.95   6
   3  -8  -6 54139.1 2432.02  11
  -3   8   5 963.281 822.444  13
  -3   8   4 26313.4 3299.51  13
  -3   8   3 1774.70 970.770  13
  -3   8   2 6310.03 1612.92  13
   3  -8  -1-218.781 417.333   3
   3  -8   0 3396.08 1192.08   3
   3  -8   1 14919.8 2289.53   3
   3  -8   2 6614.84 1545.92   3
   3  -8   3 2154.07 1008.34   3
   3  -8   4 7848.86 1708.03   3
   3  -8   5 28782.6 3237.26   3
   3  -8   6 4062.34 700.240   1
   3  -8   6 4497.71 1343.47   3
   3  -8   7 3015.57 706.312   1
   3  -8   7 3021.01 1104.35   3
   3  -8   8 2530.76 628.976   4
   3  -8   8 1969.41 981.915   3
   3  -8   8 2780.71 693.111   1
   3  -8   9 381.176 412.462   4
   3  -8   9 589.132 440.614   1
   3  -8   9-460.732 412.849   3
   3  -8  10 2783.11 638.890   1
   3  -8  10 3046.65 1293.94   3
   3  -8  10 2056.52 646.373   4
   3  -8  11-93.2856 345.113   1
   3  -8  11-478.579 411.265   4
   3  -8  12 1576.00 518.878   4
   3  -8  12 2076.48 490.352   1
   3  -8  13 4737.39 938.073   4
   3  -8  13 4582.03 704.798   1
   3  -8  14 13523.2 1468.53   4
   3  -8  15 613.739 480.098   4
   3  -8  16 2278.82 611.001   4
   3  -8  17 4093.44 725.297   4
   3  -8  18 2497.69 542.295   4
   3  -8  19 16993.6 1137.43   4
   3  -8  20 168.124 155.627   4
   3  -7 -21 2356.58 318.206   6
   3  -7 -21 2231.85 359.782  10
   3  -7 -20 910.285 287.065   6
   3  -7 -19 676.038 298.022   6
   3  -7 -18 23317.9 1378.15   6
   3  -7 -17 14911.8 1217.68   6
   3  -7 -16 963.918 493.118   6
   3  -7 -15 22656.3 1641.12   6
   3  -7 -14 8077.80 1036.08   6
   3  -7 -13 530.896 418.320   6
   3  -7 -12 9218.68 1078.91   6
  -3   7  11 298.591 813.708  13
   3  -7 -11 385.016 297.519   6
  -3   7  10 9785.26 2186.10  13
   3  -7 -10 8622.13 1052.30   6
   3  -7  -9 21631.5 1555.58   6
  -3   7   9 22790.7 3293.15  13
  -3   7   8 2149.10 1104.14  13
   3  -7  -8 2211.91 529.426   6
  -3   7   7 9273.77 2084.07  13
  -3   7   6 28833.4 3556.53  13
  -3   7   5-263.305 633.409  13
  -3   7   4 343.581 818.475  13
  -3   7   3 232.107 419.111  13
  -3   7   2 5503.13 1555.25  13
   3  -7  -1 20519.2 2467.06   3
  -3   7   1 17985.5 2424.14  13
  -3   7   0 52915.3 3768.51  13
   3  -7   0 54226.3 4008.05   3
   3  -7   1 5451.74 1265.20   3
   3  -7   2 287493. 9249.64   3
   3  -7   3 80319.2 4885.31   3
   3  -7   4 30331.2 3065.95   3
   3  -7   5 121472. 6232.66   3
   3  -7   5 112955. 4969.06   2
   3  -7   6 5787.32 1237.45   2
   3  -7   6 4454.89 1322.44   3
   3  -7   7 2278.11 797.859   2
   3  -7   7 2397.66 1061.75   3
   3  -7   8 2615.58 936.001   2
   3  -7   8 2296.78 990.938   3
   3  -7   9 4854.27 1267.98   2
   3  -7   9 4907.55 844.192   4
   3  -7   9 5063.04 1519.51   3
   3  -7   9 6561.39 905.825   1
   3  -7  10-398.245 684.038   2
   3  -7  10 1136.36 800.197   3
   3  -7  10 1175.49 526.319   1
   3  -7  11 316.684 347.402   1
   3  -7  11-49.3860 507.118   3
   3  -7  11-394.605 555.156   2
   3  -7  12 773.809 792.483   2
   3  -7  12 3519.23 617.768   1
   3  -7  13-206.199 290.284   1
   3  -7  13 194.637 415.618   4
   3  -7  14 5901.52 1059.68   4
   3  -7  15 11128.1 1370.72   4
   3  -7  16 8557.90 1164.53   4
   3  -7  17 9172.61 1089.02   4
   3  -7  18 11858.6 1192.15   4
   3  -7  19 290.030 299.515   4
   3  -7  20 11246.3 934.729   4
   3  -7  21 1443.71 306.721   4
   3  -6 -22 506.814 154.205   6
   3  -6 -22 743.211 222.201  10
   3  -6 -21 1201.79 283.053   6
   3  -6 -20 939.142 294.376   6
   3  -6 -19 460.088 313.730   6
   3  -6 -18 4914.52 732.760   6
   3  -6 -17 6596.93 841.069   6
   3  -6 -16 39814.8 2135.93   6
   3  -6 -15 6477.74 953.130   6
   3  -6 -14 24241.3 1777.53   6
   3  -6 -13 3428.29 698.173   6
  -3   6  12 8192.99 2008.13  13
   3  -6 -12 6610.97 945.985   6
   3  -6 -11 757.994 411.121   6
  -3   6  11 1189.27 891.444  13
  -3   6  10 7478.62 1892.33  13
   3  -6 -10 8495.99 1030.66   6
  -3   6   9 23363.7 3240.10  13
  -3   6   8 9195.72 2030.71  13
  -3   6   7 16486.7 2591.40  13
  -3   6   6 6417.93 1586.87  13
  -3   6   5-270.193 687.851  13
  -3   6   4 29480.5 3292.50  13
  -3   6   3 11494.0 2094.05  13
  -3   6   2 5079.75 1235.30  13
  -3   6   2 5591.34 879.630  12
   3  -6  -1 15952.7 1947.99   3
  -3   6   1 15712.0 1474.73  12
   3  -6   0 61685.1 3860.52   3
  -3   6   0 60286.6 2970.76  12
   3  -6   1 130331. 5634.06   3
  -3   6  -1 124418. 4431.49  12
   3  -6   1 123726. 4283.55   2
   3  -6   2 7961.78 1134.19   2
  -3   6  -2 6684.19 1145.93  13
   3  -6   2 6928.71 1341.22   3
  -3   6  -2 7275.66 1099.56  12
   3  -6   3 199265. 7093.84   3
   3  -6   3 183212. 5654.28   2
   3  -6   4 44651.2 3460.79   3
   3  -6   4 46370.6 2970.93   2
   3  -6   5 5485.95 1304.56   3
   3  -6   5 6688.24 1211.25   2
   3  -6   6 24462.0 2401.87   2
   3  -6   6 22541.1 2585.19   3
   3  -6   7 12694.4 1854.72   2
   3  -6   7 11975.2 1988.08   3
   3  -6   8 2199.61 1012.81   3
   3  -6   8 2580.37 961.494   2
   3  -6   9 7702.81 1729.57   3
   3  -6   9 7805.85 1636.15   2
   3  -6  10 205.660 422.817   3
   3  -6  10-19.8054 607.251   2
   3  -6  11 24919.4 1457.93   1
   3  -6  11 20626.4 3097.09   2
   3  -6  12 5263.81 742.427   1
   3  -6  12 3376.68 548.995   7
   3  -6  12 3865.77 1500.19   2
   3  -6  13 17324.0 1308.00   7
   3  -6  13 16378.0 2964.92   2
   3  -6  14 9374.59 957.642   7
   3  -6  15 3659.96 661.800   7
   3  -6  16-22.3397 357.283   7
   3  -6  18 10070.8 1181.73   4
   3  -6  19 1172.49 441.698   4
   3  -6  20 14091.9 1144.99   4
   3  -6  21 9088.20 849.899   4
   3  -6  22 5147.36 523.180   4
   3  -5 -22 451.049 213.083  10
   3  -5 -22-83.3129 142.610   6
   3  -5 -21 477.962 232.050   6
   3  -5 -20 1016.19 328.226   6
   3  -5 -19 2137.37 491.043   6
   3  -5 -18 782.309 384.996   6
   3  -5 -17 3777.73 675.940   6
   3  -5 -16 31240.7 1931.24   6
   3  -5 -15 1901.61 559.749   6
   3  -5 -14 2747.11 702.156   6
   3  -5 -13 225.034 281.416   6
  -3   5  13 75.2166 781.073  13
  -3   5  12 3281.36 1377.10  13
   3  -5 -12 1329.29 420.318   6
   3  -5 -11-67.8685 355.716   6
  -3   5  11 9.12343 572.857  13
  -3   5  10 297.109 652.657  13
  -3   5  10-87.7010 349.338  12
  -3   5   9 4088.65 1330.21  13
  -3   5   9 3598.47 1083.63  12
  -3   5   8 33701.6 2996.00  12
  -3   5   8 36581.2 3751.22  13
  -3   5   7 6427.66 1537.73  13
  -3   5   7 8069.83 1360.27  12
  -3   5   6 11875.2 2061.30  13
  -3   5   6 13699.6 1649.24  12
  -3   5   5 52710.2 4299.65  13
  -3   5   5 60662.2 3198.20  12
  -3   5   4 3984.10 783.720  12
  -3   5   3 44116.1 2484.44  12
  -3   5   2 2778.68 620.882  12
  -3   5   1 43598.7 2437.39  12
   3  -5  -1 41836.0 2840.43   3
   3  -5   0 8315.57 1309.57   3
  -3   5   0 9489.27 1175.73  12
  -3   5  -1 2538.60 601.367  12
   3  -5   1 2329.82 596.324   2
   3  -5   1 2470.84 710.833   3
   3  -5   2 60074.0 2996.33   2
   3  -5   2 61623.0 3513.13   3
   3  -5   3 11719.1 1594.99   3
   3  -5   3 10880.6 1324.03   2
   3  -5   4 92928.1 4488.87   3
   3  -5   4 92813.5 4063.17   2
   3  -5   5 71106.8 4122.48   3
   3  -5   5 69138.3 3698.41   2
   3  -5   6 28390.9 2520.82   2
   3  -5   6 26819.8 2616.29   3
   3  -5   7 34535.5 2980.43   2
   3  -5   8 79.6136 387.485   2
   3  -5   9 13365.6 2147.05   2
   3  -5  10 6442.03 1596.99   2
   3  -5  11 34769.2 3880.82   2
   3  -5  12 805.611 334.288   7
   3  -5  12 1068.07 790.618   2
   3  -5  13 1557.33 1100.04   2
   3  -5  13 1616.35 428.752   7
   3  -5  14 24116.1 1497.60   7
   3  -5  14 21542.9 3377.43   2
   3  -5  15 1736.74 442.274   7
   3  -5  16 942.915 419.784   7
   3  -5  17 8212.86 898.046   7
  -3   5 -17 6716.17 861.296   5
  -3   5 -18 10012.2 1000.06   5
   3  -5  18 11037.4 1004.59   7
  -3   5 -19 761.438 344.899   5
   3  -5  19 996.551 371.743   7
   3  -5  20 660.079 386.754   4
  -3   5 -20 648.353 255.793   5
  -3   5 -21 1071.09 298.133   5
   3  -5  21 1904.94 457.347   4
   3  -5  22 1586.96 370.685   4
   3  -5  23 408.915 182.167   4
   3  -4 -22 2137.99 372.835  10
   3  -4 -22 2485.08 368.870   6
   3  -4 -21 16488.8 1033.89   6
   3  -4 -20 6053.79 710.308   6
   3  -4 -19 39819.2 1896.64   6
   3  -4 -18 7842.64 926.807   6
   3  -4 -17 20950.9 1560.45   6
   3  -4 -16 22187.9 1650.40   6
   3  -4 -15 551.238 411.679   6
   3  -4 -14 4412.90 853.318   6
  -3   4  14 5584.66 1759.10  13
   3  -4 -13 725.772 432.519   6
  -3   4  13 623.663 831.121  13
  -3   4  12 12302.0 2376.39  13
  -3   4  12 13029.8 2338.57  12
   3  -4 -12 8490.38 1073.06   6
  -3   4  11 1450.94 839.561  12
  -3   4  11 2666.99 1208.58  13
  -3   4  10 3100.86 1179.10  13
  -3   4  10 2838.35 1024.62  12
  -3   4   9 57767.7 4609.34  13
  -3   4   9 55592.7 4093.21  12
  -3   4   8 2119.93 967.396  13
  -3   4   8 3162.80 956.907  12
  -3   4   7 102367. 5830.86  13
  -3   4   7 122682. 5171.27  12
  -3   4   6 18914.4 1898.48  12
  -3   4   5 86832.8 3765.06  12
  -3   4   4 3172.17 701.135  12
  -3   4   3 5339.69 858.984  12
  -3   4   2 11651.5 1237.87  12
  -3   4   1 701.322 366.727  12
   3  -4  -1 953.484 410.834   3
   3  -4   0 10865.6 1324.03   3
  -3   4   0 10947.3 1210.02  12
   3  -4   0 10581.3 1169.68   2
   3  -4   1 9375.86 1234.69   3
   3  -4   1 10102.5 1131.36   2
   3  -4   2 20193.2 1842.67   3
   3  -4   2 20870.8 1707.33   2
   3  -4   3 738.122 427.677   3
   3  -4   3 509.400 409.702   2
   3  -4   4 43928.2 2699.14   2
   3  -4   4 42005.1 2807.76   3
   3  -4   5 10686.4 1494.81   3
   3  -4   5 12740.5 1549.94   2
   3  -4   6 222.595 311.841   2
   3  -4   7 4219.21 1071.15   2
   3  -4   8 25148.2 2717.64   2
   3  -4   9 406.813 460.418   2
   3  -4  10 10611.0 1970.70   2
   3  -4  11 3097.33 1166.92   2
   3  -4  12 7600.35 1859.08   2
   3  -4  13 7633.16 2000.14   2
   3  -4  13 8751.64 872.611   7
   3  -4  14 172.416 398.962   7
   3  -4  14 1151.74 1167.54   2
   3  -4  15 7692.69 876.361   7
   3  -4  15 6879.68 1933.01   2
   3  -4  16 27874.4 1602.21   7
   3  -4  17 340.410 330.870   7
  -3   4 -17 745.816 436.457   5
  -3   4 -18 1583.70 509.242   5
   3  -4  18 403.368 327.312   7
  -3   4 -19 3488.62 642.042   5
   3  -4  19 3234.30 593.725   7
  -3   4 -20 1829.64 505.709   5
   3  -4  20 1844.47 480.154   7
  -3   4 -21 644.177 312.500   5
   3  -4  21 160.788 294.587   7
   3  -4  22 371.104 255.522   4
  -3   4 -22 224.645 185.015   5
   3  -4  23 443.010 204.541   4
  -3   4 -23 317.881 166.211   5
   3  -3 -23 1423.09 228.955   6
   3  -3 -22 4306.46 521.675  10
   3  -3 -22 5036.04 526.926   6
   3  -3 -21 25110.7 1311.03   6
   3  -3 -20 359.689 255.934   6
   3  -3 -20 139.103 212.152   5
   3  -3 -19 38134.2 1793.48   5
   3  -3 -19 43553.0 2012.10   6
   3  -3 -18 30871.7 1711.44   5
   3  -3 -18 32276.2 1854.88   6
   3  -3 -17 9979.82 1015.01   5
   3  -3 -17 10986.0 1145.06   6
   3  -3 -16 5831.91 840.508   5
   3  -3 -16 6827.40 981.892   6
   3  -3 -15 31203.4 1892.66   5
   3  -3 -15 32057.3 2049.24   6
  -3   3  14 10504.0 2292.23  13
   3  -3 -14 10767.3 1266.18   6
  -3   3  14 11225.0 2254.78   2
   3  -3 -13 7527.12 1047.95   6
  -3   3  13 9157.32 2060.31  13
  -3   3  13 9961.69 2121.52   2
  -3   3  13 7321.28 1986.48  12
  -3   3  12 3469.64 1384.19  12
  -3   3  12 2688.78 1133.48  13
  -3   3  11 5013.42 1482.80  12
  -3   3  11 5655.25 1598.19  13
  -3   3  10 11974.7 2245.02  13
  -3   3  10 7357.43 1657.04  12
  -3   3   9 668.774 590.793  13
  -3   3   9 919.705 597.787  12
  -3   3   8 203.470 440.366  13
  -3   3   8 277.592 359.521  12
  -3   3   7 38414.1 2873.05  12
  -3   3   6 113.113 260.912  12
  -3   3   5 1424.26 512.464  12
  -3   3   4 13385.7 1431.40  12
  -3   3   3 36611.8 2183.46  12
  -3   3   2 179.203 272.494  12
   3  -3  -1 64951.3 2811.60   3
  -3   3   1 63927.1 2754.65  12
   3  -3   0 34163.5 2034.31   3
   3  -3   0 33106.5 1900.43   2
  -3   3   0 32980.1 1988.27  12
   3  -3   1 15676.1 1360.10   2
   3  -3   1 16683.8 1411.78   3
   3  -3   2 117317. 3849.19   2
   3  -3   2 113203. 3804.54   3
   3  -3   3 1064.06 440.029   2
   3  -3   3 646.839 362.493   3
   3  -3   4 70899.1 3222.04   2
   3  -3   5 36309.8 2457.93   2
   3  -3   6 4087.69 999.134   2
   3  -3   7 6882.79 1295.64   2
   3  -3   8 2163.75 834.194   2
   3  -3   9 930.331 749.543   2
   3  -3  10 812.866 580.674   2
   3  -3  11-671.107 1002.45   2
   3  -3  12 87.4085 677.455   2
   3  -3  13 14535.7 2598.32   2
   3  -3  14 63736.4 2257.37   7
   3  -3  14 66615.9 5652.46   2
   3  -3  15 497.234 746.917   2
   3  -3  15 194.982 336.485   7
   3  -3  16 22845.3 1428.20   7
   3  -3  17 24501.0 1506.45   7
   3  -3  18 172.825 359.134   7
  -3   3 -19 5479.40 884.918   5
   3  -3  19 5193.57 718.264   7
  -3   3 -20 2381.26 576.454   5
   3  -3  20 1659.49 427.408   7
  -3   3 -21 215.869 310.289   5
   3  -3  21 361.212 330.148   7
   3  -3  22-114.654 247.714   7
  -3   3 -22 52.3815 233.442   5
  -3   3 -23-211.951 226.857   5
   3  -3  23-208.731 184.174   4
   3  -3  24 7129.01 548.578   4
   3  -2 -23 430.379 128.711   6
   3  -2 -22 1585.18 330.314   5
   3  -2 -22 1566.18 315.097   6
   3  -2 -22 1098.07 300.934  10
   3  -2 -21 990.116 293.588   5
   3  -2 -21 1128.93 308.640   6
   3  -2 -20 1505.60 435.734   5
   3  -2 -20 867.865 332.006   6
   3  -2 -19 1180.99 436.273   5
   3  -2 -19 1239.74 435.582   6
   3  -2 -18 2507.66 576.998   6
   3  -2 -18 3166.42 602.083   5
   3  -2 -17 9802.62 1112.22   5
   3  -2 -17 9893.70 1093.60   6
   3  -2 -16 226.474 332.190   5
   3  -2 -16 375.438 320.169   6
   3  -2 -15 230.205 290.683   5
  -3   2  15 363.635 521.874   2
   3  -2 -15 1045.63 484.478   6
   3  -2 -14 13519.5 1312.71   5
  -3   2  14 14204.0 2571.90   2
  -3   2  14 14863.6 2503.56  13
  -3   2  13 8853.20 2122.86  12
  -3   2  13 7656.09 1832.86  13
  -3   2  13 7926.49 1885.50   2
  -3   2  12 72259.6 5533.94  12
  -3   2  12 73216.7 5243.01  13
  -3   2  11 542.318 585.138  13
  -3   2  11 1066.73 601.278  12
  -3   2  10 33193.6 3353.07  13
  -3   2  10 29601.1 3232.95  12
  -3   2   9 474.832 543.477  13
  -3   2   9 110.753 402.206  12
  -3   2   8 28376.1 2706.92  12
  -3   2   7 35287.0 2744.12  12
  -3   2   6 1352.07 564.685  12
  -3   2   5 13980.0 1474.90  12
  -3   2   4 3194.09 703.470  12
  -3   2   3 32792.2 2012.97  12
  -3   2   2 51589.4 2460.61  12
  -3   2   1 88571.7 3093.47  12
   3  -2   0 4578.06 647.648   3
   3  -2   0 5047.61 716.272   2
  -3   2   0 4784.36 731.891  12
   3  -2   1 55040.0 2418.85   2
   3  -2   1 55572.7 2179.44   3
   3  -2   2 180738. 4509.93   2
   3  -2   2 178617. 4058.34   3
   3  -2   3 61606.6 2752.50   2
   3  -2   4 44623.9 2507.63   2
   3  -2   5 22442.9 1878.11   2
   3  -2   6 24949.7 2128.74   2
   3  -2   7 7803.06 1344.17   2
   3  -2   8 15353.5 1978.94   2
   3  -2   9 4034.13 1149.01   2
   3  -2  10 29160.2 3121.80   2
   3  -2  11 7054.44 1633.65   2
   3  -2  12 3147.36 1189.28   2
   3  -2  13 2203.69 990.395   2
   3  -2  14 32874.2 1568.76   7
   3  -2  14 35289.5 3966.18   2
   3  -2  15 34598.8 1693.36   7
   3  -2  15 34413.0 4056.69   2
   3  -2  16 4392.17 1572.88   2
   3  -2  16 4662.63 691.390   7
   3  -2  17 44757.9 2005.19   7
   3  -2  18 15510.3 1240.79   7
   3  -2  19 5184.70 719.643   7
   3  -2  20 14427.4 1122.14   7
  -3   2 -20 13511.1 1330.93   5
  -3   2 -21 341.673 299.508   5
   3  -2  21-193.116 390.194   7
   3  -2  22 23611.4 1277.29   7
  -3   2 -22 23613.3 1448.37   5
  -3   2 -23 36.8454 215.829   5
   3  -2  23-395.069 298.614   7
  -3   2 -24 5974.69 546.458   5
   3  -2  24 5017.74 496.401   4
   3  -1 -23 290.795 161.360   5
   3  -1 -22 114.190 173.534  10
   3  -1 -22 291.934 235.540   5
   3  -1 -22 182.236 155.662   6
   3  -1 -21-6.95837 189.219   6
   3  -1 -21 252.974 238.713   5
   3  -1 -21-128.958 234.731  10
   3  -1 -20 432.065 281.047   6
   3  -1 -20 49.3269 279.382   5
   3  -1 -19 3571.89 658.044   6
   3  -1 -19 3078.99 650.617   5
   3  -1 -18 2295.86 576.547   5
   3  -1 -18 1921.02 528.963   6
   3  -1 -17 13751.3 1379.27   5
   3  -1 -17 13410.9 1248.13   6
   3  -1 -16 1457.77 504.933   5
  -3   1  15 2077.02 1086.52   2
   3  -1 -15 2414.85 590.968   5
  -3   1  14 21772.0 3244.64   2
   3  -1 -14 18672.5 1538.89   5
  -3   1  13 20969.2 3133.17   2
  -3   1  13 18872.7 2595.05  13
  -3   1  13 17801.3 2897.02  12
  -3   1  12 20797.9 3067.67  12
  -3   1  12 19963.4 2661.69  13
  -3   1  11 6495.34 1557.38  13
  -3   1  11 8621.04 1912.58  12
  -3   1  10 7773.88 1683.86  12
  -3   1  10 8256.49 1588.81  13
  -3   1   9 21686.8 2610.24  12
  -3   1   8 27132.0 2670.86  12
  -3   1   7 2611.42 819.148  12
  -3   1   6 107490. 4356.09  12
  -3   1   5 2059.18 640.905  12
  -3   1   4 5015.36 835.194  12
  -3   1   3 70527.1 2887.39  12
  -3   1   2 52697.7 2381.43  12
  -3   1   1 46616.4 2162.77  12
   3  -1   0 2598.73 399.756   3
  -3   1   0 2237.40 477.916  12
   3  -1   0 2510.98 523.788   2
   3  -1   1 21697.0 1082.65   3
   3  -1   1 22647.0 1455.27   2
   3  -1   2 9378.96 759.106   3
   3  -1   2 10521.7 1064.70   2
   3  -1   3 1483.94 435.792   2
   3  -1   4 2724.87 620.798   2
   3  -1   5 19808.9 1319.82  13
   3  -1   5 20210.5 1689.25   2
   3  -1   6 106884. 3153.03  13
   3  -1   6 111168. 4198.83   2
   3  -1   7 3124.05 590.001  13
   3  -1   7 2859.96 810.625   2
   3  -1   8 71174.1 4032.72   2
   3  -1   8 64104.0 2717.01  13
   3  -1   9 239.895 545.698   2
   3  -1   9 354.351 293.840  13
   3  -1  10 6458.44 1435.94   2
   3  -1  11 3757.14 1217.82   2
   3  -1  12 10035.7 1918.09   2
   3  -1  13 145.046 590.512   2
   3  -1  14 6992.50 1812.81   2
   3  -1  15 24188.5 3276.07   2
   3  -1  15 23887.0 1375.78   7
   3  -1  16 811.281 579.554   2
   3  -1  16 1384.12 471.378   7
   3  -1  17 17688.4 1274.39   7
   3  -1  18 928.790 478.097   7
   3  -1  19 5256.88 764.353   7
   3  -1  20 1964.80 515.380   7
  -3   1 -21 2845.33 661.539   5
   3  -1  21 2567.69 544.722   7
   3  -1  22 5276.30 648.237   7
  -3   1 -22 4910.01 757.889   5
  -3   1 -23 8304.15 832.257   5
   3  -1  23 8661.59 737.252   7
   3  -1  24 1675.49 322.388   7
  -3   1 -24 894.884 290.143   5
   3  -1  24 1661.52 319.110   4
   3   0 -23 2772.57 373.902   5
   3   0 -22 8536.61 648.992   6
   3   0 -22 9605.19 842.041   5
   3   0 -21 3942.62 542.712  10
   3   0 -21 4284.49 646.171   5
   3   0 -21 3736.84 516.438   6
   3   0 -20 7322.70 815.422   6
   3   0 -20 7023.20 894.533   5
   3   0 -19 38217.7 2084.93   5
   3   0 -19 34397.7 1826.68   6
   3   0 -18 881.170 378.039   5
   3   0 -18 913.358 428.110   6
   3   0 -17 11118.6 1217.38   5
   3   0 -16 18985.6 1626.66   5
   3   0 -15-11.0524 271.795   5
  -3   0  15-403.271 974.192   2
   3   0 -14 12849.8 1292.53   5
  -3   0  14 14058.5 2663.51   2
  -3   0  13 1434.25 1200.07  12
  -3   0  13 581.451 718.800   2
  -3   0  12 39880.2 4217.31  12
  -3   0  12 38539.4 3464.79  13
  -3   0  11 638.349 453.496  13
  -3   0  11 296.672 663.620  12
  -3   0  10 2534.75 989.078  13
  -3   0  10 2958.71 1153.13  12
  -3   0   9 914.277 541.598  12
  -3   0   8 162124. 6345.85  12
  -3   0   7 30957.4 2576.93  12
  -3   0   6 114020. 4500.64  12
  -3   0   5 189223. 5296.86  12
  -3   0   4 11290.1 1218.91  12
  -3   0   3 15093.9 1335.57  12
  -3   0   2 87226.7 2991.95  12
  -3   0   1 14587.5 1178.56  12
  -3   0   0 83614.2 2738.30  12
   3   0   1 70847.4 1168.19   3
   3   0   1 83640.8 2669.04   2
   3   0   2 45616.0 2047.78   2
   3   0   2 42158.5 1874.09  13
   3   0   3 720.117 347.363   2
   3   0   3 587.395 309.449  13
   3   0   4 1613.27 493.644   2
   3   0   4 1350.81 381.696  13
   3   0   5 490.925 400.890   2
   3   0   5 493.730 287.659  13
   3   0   6 2706.34 586.590  13
   3   0   6 2735.73 693.409   2
   3   0   7 26781.1 1843.61  13
   3   0   7 26367.5 2201.76   2
   3   0   8 11415.8 1607.02   2
   3   0   8 12136.0 1334.23  13
   3   0   9 23519.5 2460.81   2
   3   0   9 19747.8 1760.15  13
   3   0  10 3873.40 837.648  13
   3   0  10 3590.96 1040.85   2
   3   0  11 1799.57 589.182  13
   3   0  11 1353.21 747.549   2
   3   0  12 55192.1 4365.19   2
   3   0  13 34169.3 3615.75   2
   3   0  14 74484.1 5476.90   2
   3   0  15 61221.4 2190.45   7
   3   0  15 66151.7 5326.89   2
   3   0  16-145.123 289.758   7
   3   0  16 115.992 706.936   2
   3   0  17 1536.47 505.361   7
   3   0  18 590.509 399.221   7
   3   0  19 719.076 484.917   7
   3   0  20 1074.73 448.119   7
   3   0  21 6300.04 774.621   7
  -3   0 -21 4973.47 892.495   5
  -3   0 -22 827.037 467.716   5
   3   0  22 927.708 330.671   7
  -3   0 -23 592.141 324.845   5
   3   0  23-197.693 302.604   7
  -3   0 -24 3273.68 501.778   5
   3   0  24 4037.35 455.436   7
  -3   0 -25 2503.10 305.393   6
  -3   0 -25 2308.57 347.499   5
   3   1 -23 737.640 239.651   5
   3   1 -22 20669.7 1209.01   5
   3   1 -21 13448.6 1100.22   5
   3   1 -21 10684.4 816.869   6
   3   1 -20 14877.5 1081.32   6
   3   1 -20 16448.5 1329.60   5
   3   1 -19 28016.0 1798.35   5
   3   1 -19 25314.4 1504.53   6
   3   1 -18 231.354 352.767   5
  -3  -1  18 191.698 281.792   7
   3   1 -17 5997.67 940.078   5
  -3  -1  17 5422.90 691.848   7
   3   1 -16-194.730 405.768   5
  -3  -1  16 92.2923 315.433   7
  -3  -1  15 3616.77 562.903   7
   3   1 -15 3975.14 785.011   5
  -3  -1  15 4525.60 1601.71   2
  -3  -1  14 369.693 732.202   2
   3   1 -14-300.649 352.647   5
  -3  -1  14-77.3229 337.572   7
  -3  -1  13 1341.39 899.482   2
  -3  -1  13 965.093 976.657  12
  -3  -1  12 8676.45 2026.03   2
  -3  -1  12 9773.18 2114.00  12
  -3  -1  11 21999.4 2933.46  12
  -3  -1  10 27567.2 3087.68  12
  -3  -1  10 25740.7 2568.06  13
  -3  -1   9 3113.34 1004.75  12
  -3  -1   8 23167.2 2475.65  12
  -3  -1   7 83979.5 4263.41  12
  -3  -1   6 23889.5 2102.48  12
  -3  -1   5 21105.5 1832.75  12
  -3  -1   4 169990. 4610.19  12
  -3  -1   3 21916.1 1553.91  12
  -3  -1   2 40745.0 1992.84  12
  -3  -1   1 2389.73 490.706  12
  -3  -1   0 41443.8 1895.72  12
   3   1   0 41307.5 1881.52  13
   3   1   1 103516. 2986.49  13
   3   1   1 107113. 2901.04   2
   3   1   2 5127.44 715.815  13
   3   1   2 5282.76 694.958   2
   3   1   3 96242.6 3012.15  13
   3   1   3 96923.1 2965.09   2
   3   1   4 4281.19 684.142  13
   3   1   4 5026.52 732.695   2
   3   1   5 15694.4 1356.80   2
   3   1   5 16584.5 1372.28  13
   3   1   6 14631.9 1390.62  13
   3   1   6 13326.6 1382.17   2
   3   1   7 17489.8 1607.02  13
   3   1   7 18246.5 1717.77   2
   3   1   8 32746.0 2546.23   2
   3   1   8 28200.0 2172.65  13
   3   1   9 3088.42 920.539   2
   3   1   9 1675.28 578.647  13
   3   1  10 19981.1 2004.70  13
   3   1  10 17051.3 2147.22   2
   3   1  11 24390.6 2317.23  13
   3   1  11 18659.7 2408.72   2
   3   1  12 89837.3 4454.24  13
   3   1  12 85894.6 5333.25   2
   3   1  13 56504.3 4514.31   2
   3   1  14 4481.39 1395.60   2
   3   1  15 25644.7 3280.00   2
   3   1  15 25530.9 1442.12   7
   3   1  16 5695.63 1574.81   2
   3   1  16 6069.32 782.709   7
   3   1  17 6084.42 1691.09   2
   3   1  17 6156.33 770.184   7
   3   1  18 666.932 422.241   7
   3   1  19 10258.9 1052.72   7
   3   1  20 1610.38 489.462   7
   3   1  21 609.522 408.073   7
  -3  -1 -22 345.158 362.031   5
   3   1  22-214.729 285.341   7
  -3  -1 -23 5597.00 759.498   5
   3   1  23 6074.55 625.140   7
  -3  -1 -24 2829.93 473.979   5
   3   1  24 3274.75 422.684   7
  -3  -1 -25 488.878 190.473   5
  -3  -1 -25 310.174 139.784   6
   3   2 -23 330.498 190.257   5
   3   2 -22 8955.86 814.547   5
   3   2 -21 4452.58 697.924   5
   3   2 -20 296.410 391.594   5
   3   2 -20 565.611 277.692   6
   3   2 -19 598.883 458.716   5
   3   2 -18 1547.68 524.803   5
  -3  -2  17 2991.56 549.300   7
   3   2 -17 3065.25 692.025   5
  -3  -2  16 606.263 306.215   7
   3   2 -16-81.8268 297.586   5
   3   2 -15 14548.2 1477.21   5
  -3  -2  15 13501.1 1092.23   7
  -3  -2  15 13402.4 2716.53   2
   3   2 -14 5063.76 898.975   5
  -3  -2  14 5107.89 1708.32   2
  -3  -2  14 5283.22 688.321   7
   3   2 -13 41543.5 2327.35   5
  -3  -2  13 46300.1 4639.91   2
  -3  -2  12 652.512 662.259   2
  -3  -2  12 158.516 633.958  12
  -3  -2  11 16626.3 2523.43  12
  -3  -2  10 10908.7 2018.14  12
  -3  -2   9 8092.37 1623.91  12
  -3  -2   8 3249.13 977.873  12
  -3  -2   7 9060.43 1447.37  12
  -3  -2   6 50825.3 3096.84  12
  -3  -2   5 17464.0 1647.53  12
  -3  -2   4 136452. 4168.60  12
  -3  -2   3 1553.61 416.671  12
  -3  -2   2 9066.91 920.138  12
   3   2  -1 128128. 3439.26  13
  -3  -2   1 126662. 3251.23  12
   3   2   0 28671.1 1657.09  13
  -3  -2   0 29042.6 1503.63  12
  -3  -2   0 27196.4 1015.30   3
   3   2   1 1607.82 442.484  13
  -3  -2  -1 1948.04 381.232  12
  -3  -2  -1 1675.91 229.036   3
   3   2   2 226531. 4719.67  13
   3   2   2 231657. 4105.50   2
   3   2   3 102583. 3314.87  13
   3   2   3 106511. 2909.93   2
   3   2   4 179886. 4577.71  13
   3   2   4 180295. 4000.14   2
   3   2   5 133256. 3689.51   2
   3   2   5 130779. 4240.67  13
   3   2   6 4219.36 826.329  13
   3   2   6 4167.40 736.972   2
   3   2   7 19352.1 1874.93  13
   3   2   7 20523.1 1763.76   2
   3   2   8 119760. 4567.26   2
   3   2   8 100679. 4373.43  13
   3   2   9 8886.65 1372.52  13
   3   2   9 12461.1 1639.87   2
   3   2  10 37395.8 2939.53  13
   3   2  10 36232.4 3013.81   2
   3   2  11 13570.6 1822.24  13
   3   2  11 9337.72 1597.06   2
   3   2  12 2821.65 883.202   2
   3   2  12 3948.12 1084.38  13
   3   2  13 452.848 655.951   2
   3   2  13 510.271 443.540  13
   3   2  14 17898.3 2232.70  13
   3   2  14 17625.8 2589.62   2
   3   2  15 17414.4 1240.70   7
   3   2  15 18182.2 2677.57   2
   3   2  16 5807.06 764.322   7
   3   2  16 5668.51 1624.02   2
   3   2  17 42627.8 1977.06   7
   3   2  18 453.700 384.639   7
   3   2  19 14966.9 1223.80   7
   3   2  20 1197.60 469.273   7
   3   2  21 25295.1 1442.98   7
   3   2  22 10163.9 870.467   7
  -3  -2 -22 9745.93 1042.96   5
  -3  -2 -23 1944.08 478.757   5
   3   2  23 1527.25 352.922   7
  -3  -2 -24 6559.44 667.359   5
   3   2  24 7194.73 573.114   7
  -3  -2 -24 7131.54 651.863   6
  -3  -2 -25 853.269 226.214   5
  -3  -2 -25 837.107 195.581   6
   3   3 -23 821.044 245.457   5
   3   3 -22 270.978 234.329   5
   3   3 -21 123.829 288.207   5
   3   3 -20 186.830 304.975   5
   3   3 -19 3934.77 787.799   5
   3   3 -18 51.9206 316.041   5
   3   3 -17 20310.3 1736.04   5
   3   3 -16 5077.97 924.008   5
  -3  -3  16 4883.23 717.915   7
   3   3 -15 6360.36 1048.21   5
  -3  -3  15 6624.06 826.883   7
   3   3 -14 22118.7 1761.93   5
  -3  -3  14 19704.5 1333.91   7
  -3  -3  14 21652.2 3225.44   2
   3   3 -13 5958.65 951.330   5
  -3  -3  13 5162.81 712.645   7
  -3  -3  13 6965.47 1828.02   2
  -3  -3  12 75.4129 566.586   2
  -3  -3  11 1292.67 889.092  12
  -3  -3  11 507.344 495.088   2
  -3  -3  10 20921.6 2713.05  12
  -3  -3   9 18119.1 2405.12  12
  -3  -3   8 16611.4 2157.85  12
  -3  -3   7 100343. 4924.67  12
  -3  -3   6 519.675 386.055  12
  -3  -3   5 28573.5 2201.34  12
  -3  -3   4 29089.8 2003.39  12
  -3  -3   3 13287.7 1229.00  12
  -3  -3   2 14895.6 1169.20  12
  -3  -3   1 53280.6 1999.06  12
   3   3  -1 57932.6 2423.91  13
   3   3   0 1593.30 441.885  13
  -3  -3   0 1489.79 331.830   3
  -3  -3   0 1589.46 339.275  12
  -3  -3  -1 17379.6 1050.73   3
   3   3   1 17269.9 1361.72  13
  -3  -3  -1 16461.1 1035.66  12
  -3  -3  -2 75071.1 2240.49  12
   3   3   2 75321.4 2881.08  13
  -3  -3  -2 77478.7 2197.25   3
   3   3   3 3435.50 470.959   2
   3   3   3 3368.49 672.714  13
   3   3   4 15385.3 1466.01  13
   3   3   4 15462.1 1077.09   2
   3   3   5 185499. 4044.31   2
   3   3   5 189094. 5411.35  13
   3   3   6 44136.5 2178.20   2
   3   3   6 46705.9 2888.14  13
   3   3   7 188109. 6085.51  13
   3   3   7 194492. 5029.20   2
   3   3   8 113152. 5024.16  13
   3   3   8 145904. 4841.88   2
   3   3   9 851.835 608.423  13
   3   3   9 821.792 489.209   2
   3   3  10 70461.5 4015.12   2
   3   3  10 79785.5 4482.74  13
   3   3  11 213.948 404.870   2
   3   3  11 950.987 594.712  13
   3   3  12 10926.2 1783.32   2
   3   3  12 15287.6 2123.35  13
   3   3  13 798.560 583.050  13
   3   3  13 184.590 580.629   2
   3   3  14 3866.56 1229.58   2
   3   3  14 4892.63 1292.73  13
   3   3  15 26603.0 2957.29  13
   3   3  15 32225.2 1697.43   7
   3   3  15 34808.7 3579.20   2
   3   3  16 9215.46 964.142   7
   3   3  17 21650.5 1418.27   7
   3   3  18 5864.29 774.563   7
   3   3  19 12346.3 1082.02   7
   3   3  20 1049.49 451.280   7
   3   3  21 14261.3 1092.21   7
   3   3  22 10456.5 852.045   7
  -3  -3 -22 10924.4 1067.81   5
  -3  -3 -23-58.1466 230.391   5
   3   3  23-342.401 251.895   7
  -3  -3 -23 251.514 227.998   6
  -3  -3 -24 157.244 188.206   5
   3   3  24 272.623 183.418   7
  -3  -3 -24 404.459 229.529   6
  -3  -3 -25 8579.83 535.313   6
   3   4 -22 400.615 225.092   5
   3   4 -21 169.791 234.704   5
   3   4 -20 2148.50 539.046   5
   3   4 -19 198.903 352.145   5
   3   4 -18 1348.43 538.996   5
   3   4 -17 1810.52 577.150   5
   3   4 -16 6165.37 1014.00   5
  -3  -4  16 5242.47 841.170   4
   3   4 -15 8756.97 1144.65   5
  -3  -4  15 8372.33 1056.73   4
  -3  -4  14 2206.33 624.945   4
  -3  -4  14 2974.06 1257.66   2
   3   4 -14 1739.05 544.961   5
  -3  -4  14 1967.58 499.102   7
   3   4 -13 7907.32 1077.18   5
  -3  -4  13 9427.48 2146.12   2
  -3  -4  13 7063.59 859.498   7
  -3  -4  13 7613.19 1013.31   4
  -3  -4  12 268.186 745.473   2
  -3  -4  11 47558.2 4328.84   2
  -3  -4  10 5211.61 1479.53   2
  -3  -4   9 28506.9 3115.60   2
  -3  -4   9 29762.0 3062.61  12
  -3  -4   8 73337.1 4555.57  12
  -3  -4   7 10889.7 1696.19  12
  -3  -4   6 27309.6 2518.19  12
  -3  -4   5 5423.29 1079.33  12
  -3  -4   4 4117.06 823.712  12
  -3  -4   3 63121.5 2888.99  12
   3   4  -2 125695. 3593.57  13
  -3  -4   2 128415. 3637.61  12
   3   4  -1 1048.66 364.385  13
  -3  -4   1 1014.16 351.167   3
  -3  -4   1 1074.11 289.918  12
  -3  -4   0 25821.9 1611.65   3
  -3  -4   0 25370.2 1228.13  12
   3   4   0 26652.7 1752.17  13
  -3  -4  -1 1454.03 378.026   3
  -3  -4  -1 1361.85 258.365  12
   3   4   1 1221.01 375.253  13
   3   4   2 5361.99 831.795  13
  -3  -4  -2 5668.50 523.641  12
  -3  -4  -2 5528.22 738.296   3
   3   4   3 54474.2 2742.26  13
  -3  -4  -3 52080.1 1723.28  12
   3   4   4 884.056 241.227   2
   3   4   4 843.134 449.148  13
   3   4   5 476.184 240.989   2
   3   4   5 533.023 446.962  13
   3   4   6 110269. 3089.78   2
   3   4   6 115421. 4854.00  13
   3   4   7 10895.8 1607.77  13
   3   4   7 11879.6 1160.51   2
   3   4   8 2158.22 579.158   2
   3   4   8 1295.27 566.433  13
   3   4   9 1885.98 624.386   2
   3   4   9 1028.46 390.687  13
   3   4  10 773.860 403.771   2
   3   4  10 568.549 440.885  13
   3   4  11 20817.1 2211.66   2
   3   4  11 28231.9 2908.99  13
   3   4  12 11356.6 1977.24  13
   3   4  13 20559.4 2625.94  13
   3   4  14 21824.0 1435.14   7
   3   4  14 19916.9 2650.21  13
   3   4  15 662.496 552.770  13
   3   4  15 888.330 481.705   7
   3   4  16 17212.0 1304.87   7
   3   4  17 752.329 478.064   7
   3   4  18 5531.54 818.079   7
   3   4  19 5970.29 795.047   7
   3   4  20 7575.12 827.894   7
   3   4  21 1156.50 412.517   7
  -3  -4 -22 569.738 292.832   5
   3   4  22 184.154 258.995   7
  -3  -4 -22-172.943 240.848   6
  -3  -4 -23 2853.06 456.617   6
  -3  -4 -23 2393.40 442.921   5
   3   4  23 2028.21 362.184   7
  -3  -4 -24 3378.13 417.771   5
  -3  -4 -24 3885.43 449.028   6
   3   4  24 3274.88 348.101   7
   3   5 -22 5201.95 487.633   5
   3   5 -21 75.3801 181.880   5
   3   5 -20 10441.2 942.062   5
   3   5 -19 5934.21 787.905   5
   3   5 -18 8895.59 1002.77   5
  -3  -5  18 6553.51 780.749   4
   3   5 -17 11541.6 1257.37   5
  -3  -5  17 10589.4 1102.76   4
   3   5 -16 1591.32 590.800   5
  -3  -5  16 1964.02 553.037   4
   3   5 -15 7077.40 1070.41   5
  -3  -5  15 6162.10 935.234   4
   3   5 -14 2852.51 702.577   5
  -3  -5  14 3434.53 716.029   4
  -3  -5  13 4547.37 823.544   4
  -3  -5  13 4550.08 1505.64   2
   3   5 -13 3716.67 777.335   5
  -3  -5  12 1557.15 469.014   4
  -3  -5  12 2454.75 1088.86   2
   3   5 -12 1752.76 496.003   5
  -3  -5  11 30047.6 3435.30   2
  -3  -5  10 30849.0 3364.44   2
  -3  -5   9 21558.2 2768.47   2
  -3  -5   8 15219.5 2226.09   2
  -3  -5   7 79932.6 4563.28  12
  -3  -5   7 85170.3 5012.44   2
  -3  -5   6 509.543 502.548  12
  -3  -5   5 299.644 471.196  12
  -3  -5   4 16921.1 1758.60  12
  -3  -5   3 26968.4 2049.22  12
   3   5  -2 61155.1 2603.33  13
  -3  -5   2 55526.4 2639.98  12
  -3  -5   2 55286.8 2910.94   3
  -3  -5   1 12495.6 1338.67   3
   3   5  -1 14208.7 1308.75  13
  -3  -5   1 11701.2 1061.56  12
   3   5   0 26045.6 1826.61  13
  -3  -5   0 25459.5 1835.34   3
  -3  -5  -1 5903.86 877.860   3
   3   5   1 6055.12 913.866  13
  -3  -5  -1 3551.20 355.987  12
   3   5   2 67652.3 3089.91  13
  -3  -5  -2 68770.6 3007.04   3
   3   5   3 28021.0 2103.76  13
   3   5   4 2560.01 730.649  13
   3   5   5 16980.3 1895.13  13
   3   5   6 6891.15 1343.54  13
   3   5   7 58011.5 3876.71  13
   3   5   8 56970.7 3982.94  13
   3   5   9 8538.79 1603.94  13
   3   5  10 76125.1 4951.00  13
   3   5  11-206.520 746.754  13
   3   5  12 40947.7 3833.44  13
   3   5  13 4660.74 1415.03  13
   3   5  14 7133.42 1699.38  13
   3   5  14 6929.42 833.715   7
   3   5  15 50698.8 2160.47   7
   3   5  15 42545.3 4103.89  13
   3   5  16 9235.72 1965.22  13
   3   5  16 10375.4 1033.45   7
   3   5  17 18801.9 1325.76   7
   3   5  18-331.534 345.895   7
   3   5  19 1072.45 359.875   7
   3   5  20-5.00366 298.105   7
  -3  -5 -20 713.655 402.087   6
  -3  -5 -21 938.215 364.322   6
   3   5  21 933.860 350.580   7
  -3  -5 -22 424.274 277.720   6
  -3  -5 -22 387.541 279.682   5
   3   5  22 108.110 244.041   7
  -3  -5 -23 870.115 271.574   6
  -3  -5 -23 1297.87 314.272   5
   3   5  23 826.491 238.777   7
  -3  -5 -24 3701.64 381.321   6
   3   6 -21 984.837 265.253   5
   3   6 -20 1648.89 379.076   5
   3   6 -19 22004.3 1354.02   5
  -3  -6  19 19550.3 1126.34   4
  -3  -6  18 3536.39 567.460   4
   3   6 -18 4489.75 693.511   5
   3   6 -17 16156.0 1358.33   5
  -3  -6  17 15854.0 1294.31   4
  -3  -6  16 22284.5 1668.43   4
   3   6 -16 23226.5 1736.10   5
   3   6 -15 1214.66 500.735   5
  -3  -6  15 457.425 358.069   4
  -3  -6  14 15698.5 1490.12   4
   3   6 -14 15743.6 1523.49   5
  -3  -6  13 2147.10 622.943   4
   3   6 -13 1913.72 626.043   5
  -3  -6  13 595.736 793.320   2
  -3  -6  12 13042.9 1362.55   4
   3   6 -12 14015.4 1373.34   5
  -3  -6  12 10729.8 2113.64   2
   3   6 -11 23886.0 1714.52   5
  -3  -6  11 33317.9 3689.15   2
  -3  -6  11 29499.5 1916.61   4
  -3  -6  10 1845.90 1013.16   2
  -3  -6   9 3093.56 1060.83   2
  -3  -6   8 1863.51 811.268   2
  -3  -6   7 28194.8 2897.82   2
  -3  -6   6 15321.9 2085.34   2
  -3  -6   5 72299.2 4216.34   2
  -3  -6   4 94882.0 4526.28   2
  -3  -6   3 17154.8 1877.89   3
  -3  -6   3 16482.2 1749.65   2
   3   6  -2 67215.4 2872.07  13
  -3  -6   2 59448.0 2921.80   2
  -3  -6   2 66185.6 3500.91   3
  -3  -6   1 513.868 258.315   2
  -3  -6   1 772.307 356.227   3
   3   6  -1 534.536 298.131  13
  -3  -6   0 46899.3 2799.71   3
   3   6   0 48983.0 2645.86  13
  -3  -6  -1 5237.13 939.496   3
   3   6   1 5942.61 994.346  13
  -3  -6  -2 1341.76 516.561   3
   3   6   2 1955.37 577.942  13
  -3  -6  -3 27588.1 2182.22   3
   3   6   3 27841.1 2246.08  13
   3   6   4 37095.1 2770.17  13
   3   6   5 8988.38 1482.73  13
   3   6   6 13576.9 1927.54  13
   3   6   7 88242.5 5080.81  13
   3   6   8 8967.62 1684.19  13
   3   6   9-473.120 640.689  13
   3   6  10 17447.8 2601.65  13
   3   6  11-43.0085 580.678  13
   3   6  12 1455.67 955.125  13
   3   6  13 3960.27 1348.01  13
   3   6  13 2088.98 469.115   7
   3   6  14 4043.49 1431.64  13
   3   6  14 1900.79 475.714   7
   3   6  15 19790.3 2884.23  13
   3   6  15 20682.2 1403.95   7
   3   6  16 33758.7 1756.17   7
   3   6  17 1332.44 488.772   7
   3   6  18 1270.94 460.778   7
  -3  -6 -18 1588.94 484.609   6
   3   6  19 9193.53 870.212   7
  -3  -6 -19 8442.50 969.083   6
  -3  -6 -20 511.327 321.530   6
   3   6  20 224.291 279.179   7
   3   6  21 9581.47 761.590   7
  -3  -6 -21 8204.65 828.713   5
  -3  -6 -21 9080.04 844.531   6
  -3  -6 -22 107.188 190.452   6
  -3  -6 -22 267.365 169.485   5
  -3  -6 -23 2800.54 371.477   6
   3   6  23 2283.52 298.380   7
   3   7 -20 774.384 236.940   5
   3   7 -19 704.933 249.826   5
  -3  -7  19 674.754 249.130   4
  -3  -7  18 7477.58 800.664   4
   3   7 -18 6687.68 806.148   5
   3   7 -17-31.3763 257.125   5
  -3  -7  17 96.0173 261.575   4
  -3  -7  16 17576.4 1445.94   4
   3   7 -16 16483.0 1382.76   5
  -3  -7  15 8474.44 1096.69   4
   3   7 -15 7651.13 1017.14   5
  -3  -7  14 2206.87 615.396   4
   3   7 -14 2386.73 651.131   5
   3   7 -13 14401.6 1373.66   5
  -3  -7  13 15428.6 1502.79   4
   3   7 -12 3420.22 675.840   5
  -3  -7  12 4502.31 1498.34   2
  -3  -7  12 4155.40 826.946   4
   3   7 -11 15747.2 1319.84   5
  -3  -7  11 13379.3 2405.23   2
  -3  -7  11 13053.1 1346.66   4
   3   7 -10 294.068 223.699   5
  -3  -7  10 5.54231 505.426   2
  -3  -7  10 232.407 282.146   4
  -3  -7   9 216.641 468.864   2
  -3  -7   8 14687.4 2210.73   2
  -3  -7   7 15137.6 2138.26   2
  -3  -7   6 5562.77 1216.05   2
  -3  -7   6 7107.40 1509.44   3
  -3  -7   5 53596.6 3941.76   3
  -3  -7   4 27.3813 299.269   3
  -3  -7   3 8653.84 1470.36   3
  -3  -7   2 86625.0 4390.21   3
  -3  -7   1 19703.8 2081.62   3
   3   7  -1 22842.8 1859.13  13
  -3  -7   0 677.538 419.723   3
   3   7   0 276.157 222.747  13
  -3  -7  -1 1659.80 636.236   3
   3   7   1 1121.55 462.492  13
  -3  -7  -2 94510.1 4423.98   3
   3   7   2 89512.1 4095.22  13
   3   7   3 35132.3 2718.50  13
  -3  -7  -3 36062.0 2795.60   3
   3   7   4 96189.0 4770.67  13
   3   7   5 130935. 5909.30  13
   3   7   6 33675.9 3166.28  13
   3   7   7 58804.2 4409.46  13
   3   7   8-136.107 545.168  13
   3   7   9 29235.9 3394.64  13
   3   7  10 1279.33 962.537  13
   3   7  11 18830.6 2856.81  13
  -3  -7 -12-200.030 300.553   4
   3   7  12 512.227 334.052   7
   3   7  12 867.858 953.592  13
   3   7  13 5966.54 742.427   7
  -3  -7 -13 5323.75 783.456   6
   3   7  14 3288.27 1438.94  13
  -3  -7 -14 3884.42 755.549   6
   3   7  14 2573.00 542.027   7
  -3  -7 -15 2438.24 623.564   6
   3   7  15 3541.83 702.085   7
   3   7  16 24601.3 1502.29   7
  -3  -7 -16 24843.3 1717.79   6
   3   7  17 1341.55 437.948   7
  -3  -7 -17 1408.95 480.009   6
   3   7  18 6080.64 715.755   7
  -3  -7 -18 6177.97 841.211   6
   3   7  19 13998.3 1001.78   7
  -3  -7 -19 13216.6 1130.80   6
   3   7  20 952.742 324.949   7
  -3  -7 -20 486.107 301.646   6
  -3  -7 -21 5931.67 637.448   6
   3   7  21 5732.04 570.719   7
  -3  -7 -22 14602.0 840.967   6
  -3  -7 -23 52.3952 96.6778   6
  -3  -8  19 579.560 191.881   4
   3   8 -19 439.671 180.298   5
   3   8 -18 760.735 262.210   5
  -3  -8  18 1131.17 307.803   4
   3   8 -17 116.853 179.282   5
  -3  -8  17 184.125 219.732   4
   3   8 -16 708.421 296.625   5
  -3  -8  16 845.159 353.496   4
   3   8 -15 459.567 347.114   5
  -3  -8  15 278.208 272.958   4
  -3  -8  14 11143.1 1232.08   4
   3   8 -14 10324.8 1090.48   5
  -3  -8  13 6897.71 996.642   4
   3   8 -13 6191.40 856.320   5
   3   8 -12 31470.6 1902.20   5
  -3  -8  12 41929.3 2413.89   4
  -3  -8  11 12358.7 1334.26   4
  -3  -8  10 21843.3 1723.69   4
  -3  -8  10 20186.0 3304.86   3
  -3  -8   9 29167.2 3832.22   3
  -3  -8   9 33446.2 2063.33   4
  -3  -8   8 342.472 500.444   3
  -3  -8   8 288.711 346.716   4
  -3  -8   7 51069.7 4580.79   3
  -3  -8   6 154.635 522.570   3
  -3  -8   5 9433.15 1783.88   3
  -3  -8   4 1752.43 824.736   3
  -3  -8   3 4468.69 1140.52   3
  -3  -8   2 11242.8 1769.05   3
  -3  -8   1 5083.87 1165.03   3
   3   8   0 1718.25 574.389  13
  -3  -8   0 1325.99 578.723   3
  -3  -8  -1 9188.53 1512.30   3
   3   8   1 9354.71 1414.60  13
   3   8   2 21897.4 2171.38  13
  -3  -8  -2 22381.3 2354.79   3
   3   8   3 95369.6 4776.06  13
  -3  -8  -3 99048.0 5001.24   3
   3   8   4 2515.86 890.181  13
   3   8   5 59505.3 4227.89  13
   3   8   6 2728.78 1055.86  13
   3   8   7 8032.97 1737.22  13
   3   8   8-95.7084 602.669  13
   3   8   9 7153.24 1784.43  13
   3   8  10 2828.61 1509.18  13
  -3  -8 -11 1184.66 422.970   4
   3   8  11 1801.94 508.885   7
   3   8  11 2319.06 1265.72  13
  -3  -8 -12 958.169 370.865   4
   3   8  12 1635.91 504.315   7
   3   8  12 2155.95 1069.56  13
   3   8  13 3992.89 1450.73  13
   3   8  13 1942.94 508.750   7
   3   8  14 17391.4 1272.52   7
  -3  -8 -14 18245.7 1445.60   6
  -3  -8 -15 2191.33 576.249   6
   3   8  15 2225.53 573.522   7
  -3  -8 -16 30763.9 1844.62   6
   3   8  16 31345.3 1622.32   7
   3   8  17 1694.42 503.455   7
  -3  -8 -17 1969.29 467.341   6
   3   8  18-50.4815 245.089   7
  -3  -8 -18 78.6930 240.724   6
   3   8  19 2942.43 466.032   7
  -3  -8 -19 2877.27 504.305   6
   3   8  20 6377.09 574.223   7
  -3  -8 -20 5977.77 633.327   6
  -3  -8 -21 225.842 163.376   6
  -3  -8 -22 6721.14 467.483   6
  -3  -9  19 3278.25 338.441   4
  -3  -9  18 10545.5 748.736   4
  -3  -9  17 2916.79 486.173   4
  -3  -9  16 9304.53 949.801   4
  -3  -9  15 831.531 423.769   4
  -3  -9  14 24314.6 1729.78   4
  -3  -9  13 9546.53 1163.24   4
  -3  -9  12 5668.72 896.275   4
  -3  -9  11 16208.4 1486.92   4
  -3  -9  10 4202.95 755.587   4
  -3  -9   9 16336.2 1505.92   4
  -3  -9   9 14364.4 2762.33   3
  -3  -9   8 16380.4 1491.22   4
  -3  -9   8 14018.0 2580.83   3
  -3  -9   7 769.032 665.157   3
  -3  -9   7 232.274 250.979   4
  -3  -9   6 1883.54 942.305   3
  -3  -9   6 1208.26 411.634   4
  -3  -9   5 20600.1 2831.69   3
  -3  -9   5 23448.1 1538.86   4
  -3  -9   4 13244.0 2164.77   3
  -3  -9   3 9247.19 1790.07   3
  -3  -9   2 41297.5 3614.44   3
  -3  -9   1 11849.4 1889.41   3
  -3  -9   0 892.822 518.790   3
  -3  -9  -1 3.19887 289.423   3
  -3  -9  -2 20297.1 2454.47   3
   3   9   2 18413.1 2102.24  13
   3   9   3 20151.7 2343.21  13
   3   9   4 530.241 562.233  13
   3   9   5 562.951 614.093  13
   3   9   6 1119.43 934.285  13
   3   9   7 33754.1 3697.12  13
   3   9   8 13575.6 2428.77  13
   3   9   9 1266.47 790.173  13
  -3  -9  -9 1338.97 422.667   4
   3   9  10 13036.6 2565.92  13
  -3  -9 -10 13978.3 1165.51   4
  -3  -9 -11 1791.23 502.804   4
   3   9  11 3329.37 624.401   7
   3   9  11 3144.57 1462.55  13
  -3  -9 -12 9731.20 1023.73   4
   3   9  12 12062.3 1089.53   7
   3   9  13 3823.09 566.816   7
   3   9  14 16925.3 1230.67   7
   3   9  15 450.791 351.545   7
  -3  -9 -15-70.1363 396.205   6
  -3  -9 -15-171.911 372.266  11
  -3  -9 -16 1394.61 400.027   6
   3   9  16 1511.92 408.950   7
   3   9  17 386.333 294.507   7
  -3  -9 -17-71.5051 231.385   6
  -3  -9 -18 5799.54 672.419   6
  -3  -9 -19 412.484 212.760   6
  -3  -9 -20 1527.74 278.890   6
  -3 -10  18 128.027 110.694   4
  -3 -10  17 23624.3 1124.53   4
  -3 -10  16 15196.6 1071.85   4
  -3 -10  15 2501.59 525.173   4
  -3 -10  14 35993.4 1944.79   4
  -3 -10  13 7620.78 1028.39   4
  -3 -10  12 8081.50 1069.19   4
  -3 -10  11-128.836 541.937   4
  -3 -10  10 3197.59 610.563   4
  -3 -10   9 365.055 362.702   4
  -3 -10   8 450.615 357.199   4
  -3 -10   7 10991.1 2334.82   3
  -3 -10   7 14751.2 1353.88   4
  -3 -10   6 1049.06 893.738   3
  -3 -10   6 88.7999 306.923   1
  -3 -10   6 52.8222 264.977   4
  -3 -10   5 53177.9 4716.59   3
  -3 -10   5 47447.7 2143.89   1
  -3 -10   5 57658.7 2493.23   4
  -3 -10   4 17934.9 2679.32   3
  -3 -10   4 16252.4 1271.20   1
  -3 -10   4 20282.9 1448.72   4
  -3 -10   3 28271.9 3270.79   3
  -3 -10   3 28438.5 1693.76   1
  -3 -10   3 26910.5 1633.39   4
  -3 -10   2 70221.7 5045.23   3
  -3 -10   2 74440.7 2678.41   1
  -3 -10   2 70241.4 2596.98   4
  -3 -10   1 6016.00 1455.18   3
  -3 -10   1 8988.36 979.246   1
  -3 -10   1 6773.10 813.352   4
  -3 -10   0 123950. 6587.38   3
  -3 -10   0 113306. 3224.72   4
  -3 -10  -1 43318.0 1981.02   4
  -3 -10  -1 42474.1 3847.46   3
  -3 -10  -2 12328.3 1063.36   4
  -3 -10  -2 14387.4 2207.16   3
  -3 -10  -3 37316.8 1835.73   4
  -3 -10  -4 2782.28 524.090   4
   3  10   4 4506.84 1258.78  13
   3  10   5 932.537 829.746  13
  -3 -10  -5 708.510 308.993   4
   3  10   6-131.086 440.970  13
  -3 -10  -6-16.5606 248.442   4
  -3 -10  -7 1893.19 452.046   4
   3  10   7 2659.63 1189.75  13
  -3 -10  -8 7960.40 893.620   4
   3  10   8 8765.94 2088.33  13
  -3 -10  -9 1935.12 464.968   4
   3  10   9 1788.46 963.794  13
  -3 -10 -10 8168.44 921.398   4
  -3 -10 -11 643.232 333.396   4
   3  10  11 1213.16 458.891   7
   3  10  12 28789.3 1576.63   7
  -3 -10 -12 26169.0 1637.50   4
   3  10  13-724.400 487.524   7
  -3 -10 -14 7102.35 874.861  11
   3  10  14 9227.16 899.479   7
  -3 -10 -15 7126.90 858.619  11
  -3 -10 -16 4895.57 635.762  11
  -3 -11  17 5256.39 439.884   4
  -3 -11  16 14384.5 857.428   4
  -3 -11  15 538.973 292.144   4
  -3 -11  14 711.828 321.680   4
  -3 -11  13 649.149 373.307   4
  -3 -11  12 506.971 371.050   4
  -3 -11  11-624.739 467.142   4
  -3 -11  10-757.192 619.167   4
  -3 -11   9-284.254 413.940   4
  -3 -11   8 61.0709 401.107   4
  -3 -11   7 5401.80 874.105   4
  -3 -11   6 160.529 346.735   4
  -3 -11   5 31360.7 1878.82   4
  -3 -11   4 1367.51 437.431   4
  -3 -11   3 7776.53 909.571   4
  -3 -11   3 7396.24 1781.73   3
  -3 -11   2 4489.07 1273.03   3
  -3 -11   2 5353.29 782.696   4
  -3 -11   1 3478.27 1217.44   3
  -3 -11   1 3967.08 685.645   4
  -3 -11   0 196.820 229.316   4
  -3 -11   0 238.432 389.729   3
  -3 -11   0 358.238 288.402  11
  -3 -11  -1 35315.3 1831.80   4
  -3 -11  -1 36908.3 3797.32   3
  -3 -11  -1 33985.3 1850.95  11
  -3 -11  -2 11907.8 1153.04  11
  -3 -11  -2 11135.8 1036.28   4
  -3 -11  -3 34128.4 1955.24  11
  -3 -11  -3 35066.8 1798.08   4
  -3 -11  -4 15757.0 1246.81   4
  -3 -11  -5 381.051 287.368   4
  -3 -11  -6 22640.4 1432.96   4
  -3 -11  -7 4226.96 668.050   4
  -3 -11  -8 15617.1 1201.45   4
  -3 -11  -9 19047.2 1347.51   4
  -3 -11 -10 3983.40 657.196   4
  -3 -11 -11 1959.83 499.846   4
  -3 -11 -11 2189.67 590.457  11
  -3 -11 -12 11393.2 1148.71  11
  -3 -11 -13 3337.54 591.597  11
  -3 -11 -14 283.900 334.349  11
  -3 -11 -15 7992.94 836.700  11
  -3 -11 -16 35673.3 1539.11  11
  -3 -12  15 1525.77 289.147   4
  -3 -12  14 860.802 288.187   4
  -3 -12  13 4732.48 638.751   4
  -3 -12  12 2454.63 533.817   4
  -3 -12  11 1186.24 450.121   4
  -3 -12  10 2137.73 495.021   4
  -3 -12   9 857.035 448.866   4
  -3 -12   8 22005.6 1648.65   4
  -3 -12   7 11229.5 1221.65   4
  -3 -12   6 642.002 404.226   4
  -3 -12   5 809.342 422.927   4
  -3 -12   4 782.112 416.023   4
  -3 -12   3 15.8516 277.075   4
  -3 -12   2 4951.14 744.936   4
  -3 -12   1 1437.68 441.598   4
  -3 -12   0 1928.74 457.713   4
  -3 -12   0 2001.00 498.522  11
  -3 -12  -1 550.733 262.083   4
  -3 -12  -1 656.821 382.941  11
  -3 -12  -2 6729.21 819.890   4
  -3 -12  -2 7196.49 916.898  11
  -3 -12  -3 11121.2 994.023   4
  -3 -12  -3 10456.4 1141.61  11
  -3 -12  -4 5005.27 843.491  11
  -3 -12  -4 4878.79 686.108   4
  -3 -12  -5 575.983 324.767   4
  -3 -12  -5 34.0439 448.070  11
  -3 -12  -6 1658.45 501.055  11
  -3 -12  -6 3021.43 542.349   4
  -3 -12  -7 6884.27 834.403   4
  -3 -12  -7 5031.72 857.692  11
  -3 -12  -8 6993.02 810.058   4
  -3 -12  -8 6536.44 1016.30  11
  -3 -12  -9 1647.36 582.416  11
  -3 -12  -9 1264.80 428.046   4
  -3 -12 -10 4259.63 784.119  11
  -3 -12 -10 3963.30 673.045   4
  -3 -12 -11 2352.19 538.298   4
  -3 -12 -11 3310.64 659.260  11
  -3 -12 -12 36814.3 1964.89  11
  -3 -12 -13 13184.0 1125.58  11
  -3 -12 -14 194.927 279.739  11
  -3 -12 -15 828.231 307.818  11
  -3 -12 -16 1685.79 323.901  11
  -3 -13  14 2895.49 347.310   4
  -3 -13  13 1361.07 293.878   4
  -3 -13  12 2151.05 423.390   4
  -3 -13  11 4464.55 629.042   4
  -3 -13  10 12303.4 1043.93   4
  -3 -13   9 22188.5 1468.01   4
  -3 -13   8 475.509 353.922   4
  -3 -13   7 35314.5 1974.94   4
  -3 -13   6 5282.01 831.438   4
  -3 -13   5 585.162 448.219   4
  -3 -13   4 287.814 343.727   4
  -3 -13   3 3302.24 579.359   4
  -3 -13   2 15473.0 1226.14   4
  -3 -13   1 1365.70 399.528   4
  -3 -13   0 4735.95 687.824   4
  -3 -13   0 5075.09 714.602  11
  -3 -13  -1-213.792 296.561   4
  -3 -13  -1 355.621 370.300  11
  -3 -13  -2 2174.82 531.783  11
  -3 -13  -2 2317.29 484.995   4
  -3 -13  -3 613.354 415.139  11
  -3 -13  -3 312.561 216.547   4
  -3 -13  -4 1561.00 424.442   4
  -3 -13  -4 850.113 443.871  11
  -3 -13  -5 430.165 367.198  11
  -3 -13  -5 71.5982 209.849   4
  -3 -13  -6 18029.8 1492.28  11
  -3 -13  -6 19543.0 1270.02   4
  -3 -13  -7 1419.42 374.672   4
  -3 -13  -7 929.039 494.438  11
  -3 -13  -8 8038.52 1039.90  11
  -3 -13  -8 9160.44 881.622   4
  -3 -13  -9 2157.75 442.340   4
  -3 -13  -9 3204.41 720.657  11
  -3 -13 -10 22385.9 1544.06  11
  -3 -13 -10 20397.6 1222.00   4
  -3 -13 -11 6349.56 806.652  11
  -3 -13 -12 5189.00 704.863  11
  -3 -13 -13 6218.76 701.814  11
  -3 -13 -14 5597.55 595.636  11
  -3 -13 -15 878.114 275.235  11
  -3 -13 -16 4512.16 408.242  11
  -3 -14  12 508.660 164.253   4
  -3 -14  11 2070.11 366.719   4
  -3 -14  10 1562.62 356.736   4
  -3 -14   9 8660.42 786.156   4
  -3 -14   8 1787.00 371.334   4
  -3 -14   7 525.771 232.902   4
  -3 -14   6 29793.4 1595.13   4
  -3 -14   5 40966.6 1885.30   4
  -3 -14   4 1951.05 495.124   4
  -3 -14   3 27509.1 1535.35   4
  -3 -14   2 11721.0 992.242   4
  -3 -14   1 10031.3 947.078   4
  -3 -14   0 4172.56 603.363   4
  -3 -14   0 2789.49 485.750  11
  -3 -14  -1 11906.7 972.978   4
  -3 -14  -1 9840.93 965.422  11
  -3 -14  -2 5372.39 650.296   4
  -3 -14  -2 4011.00 671.171  11
  -3 -14  -3 69.9417 222.855   4
  -3 -14  -3 557.299 417.734  11
  -3 -14  -4 7356.22 929.709  11
  -3 -14  -4 6529.52 694.102   4
  -3 -14  -5 225.341 215.143   4
  -3 -14  -5 455.700 431.848  11
  -3 -14  -6 21130.3 1203.05   4
  -3 -14  -6 22064.4 1544.86  11
  -3 -14  -7 1180.16 346.837   4
  -3 -14  -7 962.259 364.458  11
  -3 -14  -8 24197.3 1255.17   4
  -3 -14  -8 23288.4 1511.08  11
  -3 -14  -9 17727.3 1296.36  11
  -3 -14 -10 491.142 365.128  11
  -3 -14 -11 11113.0 898.710  11
  -3 -14 -12 10659.1 859.277  11
  -3 -14 -13 535.792 223.930  11
  -3 -14 -14 12992.4 754.107  11
  -3 -15   9 3556.07 399.955   4
  -3 -15   8-130.187 184.813   4
  -3 -15   7-18.4628 190.221   4
  -3 -15   6 1955.58 376.746   4
  -3 -15   5 8701.91 783.381   4
  -3 -15   4 10462.5 844.631   4
  -3 -15   3 13436.3 948.147   4
  -3 -15   2 4472.18 551.250   4
  -3 -15   1 5798.63 637.339   4
  -3 -15   0 12688.8 911.657   4
  -3 -15  -1 478.514 232.611   4
  -3 -15  -1 473.914 252.989  11
  -3 -15  -2 8810.00 739.867   4
  -3 -15  -2 8522.15 780.181  11
  -3 -15  -3 19816.3 1060.74   4
  -3 -15  -3 19369.4 1238.72  11
  -3 -15  -4 2495.43 398.291   4
  -3 -15  -4 1919.73 448.255  11
  -3 -15  -5 17495.3 968.267   4
  -3 -15  -5 18176.7 1244.07  11
  -3 -15  -6 17625.9 1237.32  11
  -3 -15  -7 725.386 297.633  11
  -3 -15  -8 481.480 298.217  11
  -3 -15  -9 3211.89 517.707  11
  -3 -15 -10 3116.80 478.263  11
  -3 -15 -11 516.135 237.114  11
  -3 -15 -12 15779.6 845.522  11
  -3 -15 -13 18574.1 794.439  11
  -3 -16   5 161.511 133.075   4
  -3 -16   4 1845.10 297.096   4
  -3 -16   3 2547.77 339.090   4
  -3 -16   2 1571.80 265.736   4
  -3 -16   1 627.581 180.426   4
  -3 -16   0 3640.96 397.231   4
  -3 -16  -1 4910.23 460.610   4
  -3 -16  -2 285.378 130.018   4
  -3 -16  -2 220.018 147.629  11
  -3 -16  -3 12611.1 799.105  11
  -3 -16  -4 14676.4 902.105  11
  -3 -16  -5-249.831 224.887  11
  -3 -16  -6 4103.13 518.679  11
  -3 -16  -7 781.690 242.195  11
  -3 -16  -8 1214.91 311.430  11
  -3 -16  -9 656.258 214.351  11
  -3 -16 -10 2831.46 348.222  11
   4 -15  -5 19547.7 879.700  11
   4 -15  -4-303.864 191.994  11
   4 -15  -3 11600.1 736.621  11
   4 -15  -2 1724.78 303.083  11
   4 -15  -1 390.024 182.319  11
   4 -15   0 216.808 162.611  11
   4 -15   1 11758.8 640.087  11
   4 -14  -9 11282.3 609.325  11
   4 -14  -8 17148.7 861.395  11
   4 -14  -7 860.545 269.981  11
   4 -14  -6 7291.05 687.537  11
   4 -14  -5 14848.3 1022.37  11
   4 -14  -4 567.821 237.865  11
   4 -14  -3-378.430 311.957  11
   4 -14  -2 4042.55 598.187  11
   4 -14  -1 2643.41 491.540  11
   4 -14   0 188.016 263.385  11
   4 -14   1 2886.22 473.853  11
   4 -14   2 1533.87 318.838  11
   4 -14   3 20575.5 1018.99  11
   4 -14   4 6781.47 555.197  11
   4 -14   4 9893.70 876.832   1
   4 -14   5 2351.48 407.820   1
   4 -14   6 6702.03 642.329   1
   4 -14   7 9178.81 719.978   1
   4 -13 -10 7137.78 610.183   6
   4 -13 -10 7964.65 626.610  11
   4 -13  -9-175.755 220.195   6
   4 -13  -9-187.005 230.774  11
   4 -13  -8 10999.3 879.554  11
   4 -13  -7 21990.2 1325.34  11
   4 -13  -6 23.7446 276.750  11
   4 -13  -5 6880.67 834.871  11
   4 -13  -4 4114.64 728.913  11
   4 -13  -3 7934.40 943.538  11
   4 -13  -2 1248.14 521.914  11
   4 -13  -1 3896.05 684.179  11
   4 -13   0 3531.22 597.768   1
   4 -13   0 3372.43 592.244  11
   4 -13   1 2582.31 546.607   1
   4 -13   1 2383.68 461.772  11
   4 -13   2 5200.61 706.279   1
   4 -13   2 4392.48 619.737  11
   4 -13   3-54.0741 238.284  11
   4 -13   3-91.0736 341.195   1
   4 -13   4 4755.24 721.106   1
   4 -13   4 3142.40 491.385  11
   4 -13   5 1810.38 347.199  11
   4 -13   5 2697.29 558.248   1
   4 -13   6 1985.97 440.950   1
   4 -13   7 17251.9 1155.50   1
   4 -13   8 8265.93 773.306   1
   4 -13   9 10280.8 808.248   1
   4 -13  10 18293.3 955.059   1
   4 -13  11 1134.72 250.002   1
   4 -12 -14 1159.19 227.208   6
   4 -12 -13 4190.92 457.627   6
   4 -12 -12 38.7347 196.343   6
   4 -12 -11-394.136 293.150   6
   4 -12 -11-235.983 207.538  11
   4 -12 -10 522.865 239.500   6
   4 -12 -10 1224.52 349.622  11
   4 -12  -9 5742.60 712.694   6
   4 -12  -9 5271.95 655.236  11
   4 -12  -8 3330.40 621.141   6
   4 -12  -8 2349.31 476.638   8
   4 -12  -8 3072.40 590.532  11
   4 -12  -7 21735.6 1518.45  11
   4 -12  -7 20854.1 1341.68   8
   4 -12  -7 22274.6 1413.53   6
   4 -12  -6 24665.5 1494.79   6
   4 -12  -6 26053.5 1589.76   8
   4 -12  -6 23490.8 1641.01  11
   4 -12  -5 27.3656 376.673  11
   4 -12  -5 703.499 386.348   6
   4 -12  -5 690.102 442.156   8
   4 -12  -4 14366.8 1346.37  11
   4 -12  -4 13425.9 1190.68   8
   4 -12  -4 15210.4 1170.75   6
   4 -12  -3 5947.45 852.554   8
   4 -12  -3 6831.52 767.179   1
   4 -12  -3 7400.09 1001.96  11
   4 -12  -2 330.668 344.778   1
   4 -12  -2 1371.79 556.882  11
   4 -12  -2 573.745 601.413   8
   4 -12  -1 1694.99 468.313   1
   4 -12  -1 1969.36 651.909   8
   4 -12  -1 2403.04 637.854  11
   4 -12   0-157.833 353.552   1
   4 -12   0 447.756 548.208   8
   4 -12   0 210.037 369.648  11
   4 -12   1 7709.51 918.232   8
   4 -12   1 7236.29 912.259  11
   4 -12   1 7897.69 885.456   1
   4 -12   2-206.698 426.847   1
   4 -12   2 154.718 328.244  11
   4 -12   3 4604.52 713.394   1
   4 -12   3 4907.59 726.721  11
   4 -12   4-112.194 543.576   1
   4 -12   4 21.9926 238.149  11
   4 -12   5 1535.58 504.878   1
   4 -12   5 926.143 310.661  11
   4 -12   6 6822.26 703.202  11
   4 -12   6 6698.42 812.648   1
   4 -12   7-148.894 365.399   1
   4 -12   8 15748.3 1239.19   1
   4 -12   9 1341.66 411.893   1
   4 -12  10 2811.77 529.168   1
   4 -12  11 885.938 333.871   1
   4 -12  12 954.936 272.200   1
   4 -12  13 1491.98 263.332   1
   4 -11 -16 12690.1 660.322   6
   4 -11 -15 11384.0 732.378   6
   4 -11 -14 409.662 276.266   6
   4 -11 -13 1264.77 360.597   6
   4 -11 -12 1734.62 416.835   6
   4 -11 -11 4159.93 608.912   6
   4 -11 -11 4554.04 577.769  11
   4 -11 -10 2037.84 492.015   6
   4 -11 -10 2411.29 497.190  11
   4 -11  -9 12106.6 988.966   8
   4 -11  -9 13192.9 1148.68   6
   4 -11  -9 12546.8 1113.86  11
   4 -11  -8 1820.43 461.919   6
   4 -11  -8 1818.57 524.476   8
   4 -11  -8 1588.32 484.962  11
   4 -11  -7 2034.88 483.865   6
   4 -11  -7 2543.03 590.069   8
   4 -11  -7 2030.03 580.767  11
   4 -11  -6 5348.52 817.745   8
   4 -11  -6 4935.29 748.359   6
   4 -11  -6 4943.75 879.360  11
   4 -11  -5-237.575 267.316   6
   4 -11  -5 395.589 420.953   8
   4 -11  -5-343.504 408.784  11
   4 -11  -4 138.649 255.241   6
   4 -11  -4-175.889 396.154   8
   4 -11  -4 2.34277 450.892  11
   4 -11  -3 6197.28 910.330   8
   4 -11  -3 7311.68 787.565   1
   4 -11  -3 7633.04 860.481   6
   4 -11  -3 8113.69 1081.04  11
   4 -11  -2 3999.57 653.328   6
   4 -11  -2 2806.92 678.176   8
   4 -11  -2 3216.25 587.930   1
   4 -11  -2 4302.35 780.714  11
   4 -11  -1 2078.55 631.415   8
   4 -11  -1 2231.38 497.072   1
   4 -11  -1 2912.31 693.868  11
   4 -11   0 1212.36 562.646   8
   4 -11   0 1510.57 437.145   1
   4 -11   0 2179.35 639.029  11
   4 -11   1 173.995 445.279   8
   4 -11   1 131.258 420.737   1
   4 -11   1 670.718 390.150  11
   4 -11   2 50807.8 2258.27   8
   4 -11   2 50192.7 2266.75   1
   4 -11   2 48105.2 2253.72  11
   4 -11   3 11333.1 1151.14   1
   4 -11   3 12588.1 1134.09   8
   4 -11   3 12405.5 1143.97  11
   4 -11   4 12040.3 1114.95   8
   4 -11   4 11464.0 1078.11  11
   4 -11   4 11869.7 1200.07   1
   4 -11   5 20043.7 1524.78   1
   4 -11   5 17340.8 1325.51  11
   4 -11   6 840.875 422.943   1
   4 -11   6 1850.59 479.657  11
   4 -11   7-282.959 594.951   1
   4 -11   8 1159.15 498.753   1
   4 -11   9 3372.01 763.736   1
   4 -11  10 4437.14 715.434   1
   4 -11  11 818.990 371.575   1
   4 -11  12 14282.9 978.678   1
   4 -11  13 587.985 248.629   1
   4 -11  13 935.530 279.768   4
   4 -11  14 26202.3 1041.61   1
   4 -11  14 19665.5 1010.58   4
   4 -11  15 4045.94 403.087   4
   4 -10 -17 9698.34 634.457   6
   4 -10 -16 412.688 230.317   6
   4 -10 -15 2062.95 399.615   6
   4 -10 -14 11512.6 962.860   6
   4 -10 -13 11923.6 1057.11   6
   4 -10 -12 709.061 303.584   6
   4 -10 -11 18552.2 1448.60   6
   4 -10 -11 21345.0 1297.66  11
   4 -10 -10 2088.11 606.592   6
   4 -10 -10 1241.60 440.103  11
   4 -10  -9 18592.2 1276.53   8
   4 -10  -9 21388.5 1599.68   6
   4 -10  -9 19512.4 1443.81  11
   4 -10  -8 1622.18 506.375   8
   4 -10  -8 2142.03 597.655   6
   4 -10  -8 1364.28 437.490  11
   4 -10  -7 9413.42 1099.89   6
   4 -10  -7 9563.76 1052.80   8
   4 -10  -7 8823.99 1100.70  11
   4 -10  -6 2923.16 730.022  11
   4 -10  -6 2409.13 550.538   6
   4 -10  -6 2951.10 674.336   8
   4 -10  -5 9651.64 1073.34   8
   4 -10  -5 9204.65 984.623   6
   4 -10  -5 8137.58 1058.37  11
   4 -10  -4 8749.62 1080.20  11
   4 -10  -4 9595.03 987.134   6
   4 -10  -4 6963.02 912.576   8
   4 -10  -3 539.766 278.266   6
   4 -10  -3 251.049 282.167   1
   4 -10  -3 66.1714 451.947   8
   4 -10  -3 567.076 397.810  11
   4 -10  -2 10035.1 989.464   6
   4 -10  -2 9146.45 867.892   1
   4 -10  -2 9237.00 1031.09   8
   4 -10  -2 10825.1 1160.45  11
   4 -10  -1 19424.0 1470.22   8
   4 -10  -1 17430.3 1301.99   1
   4 -10  -1 20493.6 1397.60   6
   4 -10  -1 20226.9 1581.52  11
   4 -10   0 405.411 442.969   8
   4 -10   0 556.073 348.009   1
   4 -10   0 637.954 372.459   6
   4 -10   0 538.726 368.364  11
   4 -10   1 1789.21 519.431  11
   4 -10   1 1243.24 476.008   1
   4 -10   1 1883.33 484.388   8
   4 -10   2 13977.3 1207.10   8
   4 -10   2 13776.8 1248.58   1
   4 -10   2 13126.0 1203.63  11
   4 -10   3 31147.8 1814.53  11
   4 -10   3 33267.5 1820.06   8
   4 -10   3 34192.5 1976.51   1
   4 -10   4 280.877 404.569   1
   4 -10   4 389.219 375.191   8
   4 -10   4 164.281 264.597  11
   4 -10   5 28610.3 1651.99   8
   4 -10   5 26561.9 1644.84  11
   4 -10   5 28269.2 1881.13   1
   4 -10   6 96251.5 2961.51   8
   4 -10   6 93985.3 3005.54  11
   4 -10   7 5084.42 752.960  11
   4 -10   7 5236.45 778.676   1
   4 -10   8 7230.17 967.318   1
   4 -10   9 28434.9 1752.37   1
   4 -10  10 4004.74 698.943   4
   4 -10  10 4554.00 708.396   1
   4 -10  11 11081.4 1022.41   1
   4 -10  11 6904.27 906.861   4
   4 -10  12 1977.24 462.405   4
   4 -10  12 3919.39 597.979   1
   4 -10  13 2825.27 549.640   4
   4 -10  13 3676.08 576.456   1
   4 -10  14 2246.11 447.751   1
   4 -10  14 3192.10 580.487   4
   4 -10  15 1285.28 368.330   4
   4 -10  16 860.285 281.132   4
   4 -10  17 1398.24 264.340   4
   4  -9 -19 218.328 116.052   6
   4  -9 -18 2986.28 352.537  10
   4  -9 -18 4497.26 456.795   6
   4  -9 -17 380.209 206.755  10
   4  -9 -17 134.714 180.621   6
   4  -9 -16 3828.46 537.549  10
   4  -9 -16 4472.50 596.189   6
   4  -9 -15 16509.0 1190.70   6
   4  -9 -14 535.832 375.256   6
   4  -9 -13 18255.9 1403.64   6
   4  -9 -12 1350.23 312.045   6
   4  -9 -11 8213.21 1014.20   6
   4  -9 -10 425.654 427.384   6
   4  -9 -10 371.918 344.053  11
   4  -9  -9 2208.81 529.160   8
   4  -9  -9 2764.41 706.660   6
   4  -9  -9 2504.58 592.731  11
   4  -9  -8 24917.8 1518.68   8
   4  -9  -8 24848.3 1701.08   6
   4  -9  -8 24533.0 1701.99  11
   4  -9  -7 343.556 391.219  11
   4  -9  -7 482.769 363.888   6
   4  -9  -7 968.662 456.673   8
  -4   9   6 18257.1 3158.77  13
   4  -9  -6 18042.2 1375.17   6
   4  -9  -6 17522.1 1519.46  11
   4  -9  -6 17762.1 1415.36   8
   4  -9  -5 2599.19 568.283   6
  -4   9   5 2479.68 1262.26  13
   4  -9  -5 2325.93 601.675  11
   4  -9  -5 2259.10 614.361   8
   4  -9  -4 3572.57 616.802   8
   4  -9  -4 4541.53 676.592   6
   4  -9  -4 4188.61 759.749  11
   4  -9  -3 4632.79 681.861   6
   4  -9  -3 3176.07 563.356   8
   4  -9  -3 3355.68 517.788   1
   4  -9  -3 4324.95 740.849  11
   4  -9  -2 2260.23 507.703   8
   4  -9  -2 1982.55 389.846   1
   4  -9  -2 3191.13 551.309   6
   4  -9  -2 3056.07 650.957  11
   4  -9  -1 19213.3 1333.09   6
   4  -9  -1 19470.1 1407.50   8
   4  -9  -1 20108.8 1300.72   1
   4  -9  -1 20446.9 1520.92  11
   4  -9   0 3745.45 619.227   6
   4  -9   0 2648.81 562.449   8
   4  -9   0 3965.00 652.789  11
   4  -9   0 3322.69 589.163   1
   4  -9   1 13938.3 2446.88   3
   4  -9   1 15244.0 1190.64   6
   4  -9   1 14776.7 1187.94   1
   4  -9   1 16116.3 1247.68  11
   4  -9   1 14603.1 1173.86   8
   4  -9   2-382.895 625.143   3
   4  -9   2 345.725 417.855   8
   4  -9   2 181.339 340.840   1
   4  -9   2-387.419 368.547  11
   4  -9   3 7043.32 820.287   8
   4  -9   3 6645.57 1673.66   3
   4  -9   3 7051.45 903.655   1
   4  -9   3 5973.68 795.794  11
   4  -9   4 24718.6 3223.63   3
   4  -9   4 26172.9 1534.97   8
   4  -9   4 28173.9 1741.93   1
   4  -9   4 26740.5 1612.95  11
   4  -9   5 20833.8 2959.05   3
   4  -9   5 21211.1 1445.18  11
   4  -9   5 22775.4 1441.81   8
   4  -9   5 23781.7 1644.08   1
   4  -9   6 4238.35 803.198   1
   4  -9   6 4642.76 733.133   8
   4  -9   6 3922.78 1317.19   3
   4  -9   6 4048.75 667.472  11
   4  -9   7 50683.4 2173.30  11
   4  -9   7 54949.1 2241.69   8
   4  -9   8 885.853 519.027   1
   4  -9   9 45046.1 2319.61   4
   4  -9   9 51194.6 2384.41   1
   4  -9  10 53.0738 285.458   4
   4  -9  10 1.47166 342.847   1
   4  -9  11 6984.08 1017.59   4
   4  -9  11 10074.1 1047.31   1
   4  -9  12 2699.53 621.385   4
   4  -9  12 4617.82 662.797   1
   4  -9  13 9590.22 925.154   1
   4  -9  13 7794.57 1032.18   4
   4  -9  14 6102.02 682.608   1
   4  -9  14 5209.52 852.312   4
   4  -9  15 1422.35 357.912   1
   4  -9  15 537.060 266.206   4
   4  -9  16 248.413 227.669   4
   4  -9  17 1105.89 331.745   4
   4  -9  18 1762.37 337.325   4
   4  -9  19 558.801 172.054   4
   4  -8 -19 7830.82 593.926   6
   4  -8 -19 7331.96 599.451  10
   4  -8 -18 1416.99 335.222   6
   4  -8 -18 1452.90 331.762  10
   4  -8 -17 3587.23 541.175   6
   4  -8 -16 1744.76 459.530   6
   4  -8 -15 2774.05 613.450   6
   4  -8 -14 3613.02 701.571   6
   4  -8 -13 9592.29 1069.60   6
   4  -8 -12 3193.92 644.041   6
   4  -8 -11 1654.99 476.972   6
   4  -8 -10 3838.04 739.723   6
   4  -8  -9 5056.55 822.197   6
   4  -8  -9 3794.13 648.017   8
   4  -8  -9 4181.00 693.684  11
   4  -8  -8 276.047 312.647   6
  -4   8   8-565.181 745.458  13
   4  -8  -8-122.762 320.842   8
   4  -8  -8 245.636 356.058  11
   4  -8  -7 37808.8 1891.39   8
  -4   8   7 42102.9 4672.72  13
   4  -8  -7 37570.6 1996.34   6
   4  -8  -7 38854.5 2104.69  11
   4  -8  -6 1574.97 505.867   6
   4  -8  -6 927.720 426.809   8
  -4   8   6 2061.21 1167.96  13
   4  -8  -6 1471.78 512.506  11
   4  -8  -5 33004.4 1820.10   8
   4  -8  -5 38918.7 1924.75   6
   4  -8  -5 34345.5 1987.28  11
  -4   8   4 19149.6 3024.27  13
   4  -8  -4 13342.9 1184.30   8
   4  -8  -4 17886.7 1271.51   6
   4  -8  -4 16054.8 1364.84  11
   4  -8  -3 15863.5 1231.16   8
  -4   8   3 14518.9 2573.70  13
   4  -8  -3 17028.1 1212.70   6
   4  -8  -3 16372.5 1368.01  11
  -4   8   2 6713.57 1695.63  13
   4  -8  -2 6996.69 902.817  11
   4  -8   0 12278.7 2097.85   3
   4  -8   1-290.641 490.144   3
   4  -8   2 348.885 626.791   3
   4  -8   3 3346.70 1083.20   3
   4  -8   4 7.89770 418.094   3
   4  -8   4 167.662 322.418   8
   4  -8   4 198.829 354.829   1
   4  -8   5 6662.93 780.387   8
   4  -8   5 5333.81 836.898   1
   4  -8   5 7134.33 1651.37   3
   4  -8   5 6105.61 786.554  11
   4  -8   6 701.296 450.939   8
   4  -8   6-107.660 673.672   3
   4  -8   6-25.8068 438.664   1
   4  -8   6-386.956 398.810  11
   4  -8   7 11138.3 2124.32   3
   4  -8   7 12898.1 1092.84  11
   4  -8   7 10687.1 1086.83   1
   4  -8   8 11.1212 448.236   1
   4  -8   8 263.941 533.182   3
   4  -8   9 267.859 452.032   1
   4  -8   9 87.6493 265.663   4
   4  -8  10 45.7200 317.754   4
   4  -8  10 425.372 435.139   1
   4  -8  11 10149.0 1042.99   1
   4  -8  11 8648.75 1183.73   4
   4  -8  12 1348.65 537.376   4
   4  -8  12 2362.94 567.153   1
   4  -8  13 5732.51 754.516   1
   4  -8  13 4695.59 896.231   4
   4  -8  14 217.420 430.946   4
   4  -8  14 10.4358 269.043   1
   4  -8  15 5893.27 657.222   1
   4  -8  15 6286.01 946.550   4
   4  -8  16 9593.99 1096.03   4
   4  -8  17 496.609 325.660   4
   4  -8  18 7806.93 819.854   4
   4  -8  19 644.528 263.054   4
   4  -8  20 2762.53 366.175   4
   4  -7 -20 208.667 176.588  10
   4  -7 -20 291.833 159.843   6
   4  -7 -19 15022.8 1012.21  10
   4  -7 -19 16190.9 955.859   6
   4  -7 -18 15117.4 1032.83   6
   4  -7 -17 5369.22 741.389   6
   4  -7 -16 19815.2 1412.11   6
   4  -7 -15 17609.5 1409.19   6
   4  -7 -14 1913.50 582.754   6
   4  -7 -13 14603.2 1358.18   6
   4  -7 -12 4229.17 760.589   6
   4  -7 -11 1212.92 440.090   6
  -4   7  10 5106.08 1784.49  13
   4  -7 -10 3883.26 726.999   6
   4  -7  -9 1503.79 527.873   6
   4  -7  -9 1642.68 428.702   8
  -4   7   9 3075.44 1434.83  13
   4  -7  -8 333.132 339.390   6
   4  -7  -8 11.3721 307.009   8
   4  -7  -8 198.834 328.889  11
  -4   7   8 837.924 987.686  13
   4  -7  -7 2873.40 584.221   6
  -4   7   7 2604.97 1215.65  13
   4  -7  -7 3741.78 677.728  11
  -4   7   6 21670.4 3241.16  13
  -4   7   5 1611.94 960.781  13
  -4   7   4 13298.8 2459.10  13
  -4   7   3 20448.1 2948.58  13
  -4   7   2 264.610 522.292  13
  -4   7   1 8992.15 1858.25  13
  -4   7   0 19407.3 2570.37  13
   4  -7   0 26963.6 2862.71   3
   4  -7   1 44951.8 3717.59   3
   4  -7   2 51046.9 3977.15   3
   4  -7   3 29493.8 3064.73   3
   4  -7   4 81009.9 5076.39   3
   4  -7   5 45097.8 3901.74   3
   4  -7   5 42969.6 3258.84   2
   4  -7   6 3211.70 915.021   2
   4  -7   6 3863.26 1221.03   3
   4  -7   7 9573.04 1931.93   3
   4  -7   7 8245.02 1553.77   2
   4  -7   7 7841.56 933.794   1
   4  -7   8 1271.05 544.834   2
   4  -7   8 1440.26 847.977   3
   4  -7   8 1394.79 458.861   1
   4  -7   9 22563.6 1661.71   4
   4  -7   9 21330.7 3057.68   3
   4  -7   9 19901.4 2769.87   2
   4  -7   9 24537.4 1650.07   1
   4  -7  10 15610.1 1337.77   1
   4  -7  10 13971.6 2562.54   3
   4  -7  10 15171.5 1509.21   4
   4  -7  10 13874.1 2423.58   2
   4  -7  11 16566.7 1290.88   1
   4  -7  11 12257.5 1372.29   4
   4  -7  11 14292.3 2613.57   2
   4  -7  11 12482.2 2498.45   3
   4  -7  12 1006.36 448.663   1
   4  -7  12 332.260 325.988   4
   4  -7  13 16055.7 1222.95   1
   4  -7  13 14478.8 1512.45   4
   4  -7  14 8968.88 1231.67   4
   4  -7  14 7888.87 867.601   1
   4  -7  15 5233.09 967.559   4
   4  -7  16 19121.4 1599.98   4
   4  -7  17 5168.58 888.913   4
   4  -7  18 638.457 378.992   4
   4  -7  19 4131.71 632.641   4
   4  -7  20 696.318 256.832   4
   4  -7  21 1372.68 298.481   4
   4  -6 -21 3336.33 421.850  10
   4  -6 -21 3081.67 339.569   6
   4  -6 -20 915.064 272.032   6
   4  -6 -20 867.517 310.929  10
   4  -6 -19 366.959 216.966   6
   4  -6 -18 8811.25 861.057   6
   4  -6 -17 16727.0 1280.57   6
   4  -6 -16 974.073 497.141   6
   4  -6 -15 21623.7 1582.25   6
   4  -6 -14 54423.7 2547.27   6
   4  -6 -13-198.127 525.376   6
   4  -6 -12 841.968 351.629   6
  -4   6  11 9506.83 2298.07  13
   4  -6 -11 9898.30 1152.36   6
   4  -6 -10 13469.6 1315.82   6
  -4   6  10 15132.4 2823.29  13
  -4   6   9 3244.23 1596.41  13
   4  -6  -9 2325.11 511.822   6
  -4   6   8 35798.5 4113.08  13
  -4   6   7 1355.83 595.027  13
  -4   6   6 993.841 551.933  13
  -4   6   5 10100.5 2109.74  13
  -4   6   4 3347.35 1260.64  13
  -4   6   3 71788.1 5330.53  13
  -4   6   3 77777.1 3757.37  12
  -4   6   2 58516.5 3229.27  12
  -4   6   2 48626.0 4355.82  13
  -4   6   1 42845.5 2804.55  12
  -4   6   0 72552.0 3721.61  12
   4  -6   0 71277.0 4234.30   3
   4  -6   1 10437.9 1617.35   3
  -4   6  -1 9871.09 1399.34  12
   4  -6   2 145859. 5356.09   2
   4  -6   2 145671. 6168.60   3
  -4   6  -2 146718. 5579.90  12
   4  -6   3 13673.6 1891.89   3
   4  -6   3 13211.2 1638.38   2
   4  -6   4 18598.0 2296.27   3
   4  -6   4 18367.4 2062.66   2
   4  -6   5 45741.6 3642.23   3
   4  -6   5 48381.4 3374.26   2
   4  -6   6 35762.4 3266.66   3
   4  -6   6 31737.0 2855.06   2
   4  -6   7 5114.35 1206.37   2
   4  -6   7 4635.80 1269.68   3
   4  -6   8 4410.73 1261.56   2
   4  -6   8 3516.76 1157.37   3
   4  -6   9 2528.80 964.022   2
   4  -6   9 2321.09 1023.70   3
   4  -6  10 106.792 602.655   2
   4  -6  10 723.590 711.874   3
   4  -6  10 243.804 350.326   1
   4  -6  11 10402.5 2254.68   2
   4  -6  11 9236.30 2131.15   3
   4  -6  11 12029.6 1118.24   1
   4  -6  12 1417.83 917.344   2
   4  -6  12 1545.94 1054.52   3
   4  -6  12 2091.14 505.445   1
   4  -6  13 9387.66 998.836   7
   4  -6  13 11648.0 1047.33   1
   4  -6  14 12429.5 1131.88   7
   4  -6  14 13321.5 1079.95   1
   4  -6  15 4856.57 695.067   7
   4  -6  18 5733.00 877.881   4
   4  -6  19 895.566 410.672   4
   4  -6  20 19805.0 1284.07   4
   4  -6  21 347.856 224.194   4
   4  -6  22 6619.39 610.972   4
   4  -5 -22 549.772 185.469  10
   4  -5 -21 1293.67 329.133  10
   4  -5 -21 1318.31 272.150   6
   4  -5 -20 545.424 225.436   6
   4  -5 -19 3815.14 555.051   6
   4  -5 -18 498.322 282.839   6
   4  -5 -17 35374.8 1866.89   6
   4  -5 -16 12220.1 1167.59   6
   4  -5 -15 12051.7 1205.71   6
   4  -5 -14 4668.93 809.420   6
   4  -5 -13 1310.28 500.118   6
  -4   5  12 4874.85 1594.22  13
   4  -5 -12 2892.14 571.278   6
  -4   5  11 386.913 656.774  13
   4  -5 -11 840.055 400.418   6
  -4   5  10 2594.02 1336.06  13
   4  -5 -10 2800.95 629.483   6
  -4   5   9 290.290 452.916  12
  -4   5   9-446.487 735.646  13
  -4   5   8 5224.22 1529.70  13
  -4   5   8 5246.81 1259.26  12
  -4   5   7 10365.9 2123.49  13
  -4   5   7 10584.7 1724.79  12
  -4   5   6 61520.5 3798.38  12
  -4   5   6 46870.3 4415.79  13
  -4   5   5 31494.9 2544.79  12
  -4   5   4 23367.3 2105.55  12
  -4   5   3 31412.5 2356.50  12
  -4   5   2 2998.04 774.711  12
   4  -5  -1 7284.88 1245.72   3
  -4   5   1 7134.95 1111.74  12
   4  -5   0 39616.2 2879.32   3
  -4   5   0 39561.9 2691.16  12
   4  -5   1 6301.20 1180.69   3
   4  -5   1 7371.60 1168.07   2
  -4   5  -1 7042.52 1164.26  12
   4  -5   2 25955.8 2185.69   2
   4  -5   2 24896.1 2309.81   3
  -4   5  -2 24111.0 2189.95  12
   4  -5   3 16371.9 1884.68   3
   4  -5   3 16933.2 1797.82   2
   4  -5   4 38803.4 2842.30   2
   4  -5   4 40385.9 3023.76   3
   4  -5   5 5260.33 1170.05   3
   4  -5   5 4980.38 1103.04   2
   4  -5   6 18389.7 2189.08   2
   4  -5   6 15901.7 2092.66   3
   4  -5   7 5823.30 1259.23   2
   4  -5   7 5792.90 1339.59   3
   4  -5   8 10163.2 1844.90   3
   4  -5   8 13655.5 2063.10   2
   4  -5   9 11385.1 2010.03   3
   4  -5   9 13715.3 2229.55   2
   4  -5  10 9183.89 1950.85   2
   4  -5  11 33348.3 3859.41   2
   4  -5  12-24.1126 551.355   2
   4  -5  12 420.322 287.001   1
   4  -5  12-121.066 363.920   7
   4  -5  13 77027.0 2549.42   1
   4  -5  13 71373.5 2557.59   7
   4  -5  14 39.0045 269.931   1
   4  -5  14-1010.46 538.630   7
   4  -5  15 3400.59 612.959   7
   4  -5  16 131.023 328.081   7
   4  -5  17 240.749 342.053   7
   4  -5  18 13704.0 1083.16   7
   4  -5  19 112.466 293.084   7
   4  -5  20 8194.96 922.135   4
   4  -5  21 1942.83 451.858   4
   4  -5  22 4025.38 516.659   4
   4  -5  23 3375.55 388.051   4
   4  -4 -22 3286.87 329.879   6
   4  -4 -22 3978.12 445.337  10
   4  -4 -21 72.9046 140.623   6
   4  -4 -21 187.952 211.227  10
   4  -4 -20 7232.64 702.457   6
   4  -4 -19 8801.51 858.373   6
   4  -4 -18 1650.83 476.048   6
   4  -4 -17 16232.0 1314.03   6
   4  -4 -16 38190.1 2087.47   6
   4  -4 -15 25877.9 1790.90   6
   4  -4 -14 3915.33 797.180   6
   4  -4 -13 29.0419 330.723   6
  -4   4  13 169.865 658.858  13
  -4   4  13 110.310 627.893  12
   4  -4 -12 24165.6 1804.11   6
  -4   4  12 30186.5 3825.74  12
  -4   4  12 29724.3 3879.39  13
   4  -4 -11 3591.85 691.937   6
  -4   4  11 3371.68 1280.09  12
  -4   4  11 3944.71 1462.56  13
  -4   4  10 16960.0 2653.87  12
  -4   4  10 16173.9 2768.94  13
  -4   4   9 1827.30 1057.47  13
  -4   4   9 1915.28 879.063  12
  -4   4   8 27401.2 3383.28  13
  -4   4   8 35125.4 3218.55  12
  -4   4   7 49363.9 3549.72  12
  -4   4   6 107912. 4892.23  12
  -4   4   5 112449. 4735.66  12
  -4   4   4 42907.2 2796.73  12
  -4   4   3 116753. 4446.51  12
  -4   4   2 15.9980 198.728  12
  -4   4   1 740.832 418.468  12
  -4   4   0 6219.63 1042.62  12
   4  -4   0 5941.42 1039.58   3
  -4   4  -1 80.8100 315.274  12
   4  -4   1 129.676 252.679   3
   4  -4   1 172.917 297.774   2
   4  -4   2 99949.2 4107.15   3
   4  -4   2 98764.5 4128.36   2
   4  -4   3 12830.5 1528.51   3
   4  -4   3 14279.7 1622.49   2
   4  -4   4 26962.6 2281.47   2
   4  -4   4 26984.0 2265.41   3
   4  -4   5 9809.19 1419.28   3
   4  -4   5 10798.8 1495.54   2
   4  -4   6 54524.3 3525.84   3
   4  -4   6 62042.9 3774.38   2
   4  -4   7 45662.8 3438.30   2
   4  -4   8 173.820 458.625   2
   4  -4   9 10744.9 2003.80   2
   4  -4  10 220.533 540.612   2
   4  -4  11 4893.08 1556.58   2
   4  -4  12 746.322 853.691   2
   4  -4  13 11654.8 2478.68   2
   4  -4  13 12327.5 1045.09   7
   4  -4  13 15384.6 1192.73   1
   4  -4  14-736.292 859.056   2
   4  -4  14 635.287 343.148   7
   4  -4  15 756.505 368.129   7
   4  -4  16 1045.96 398.228   7
   4  -4  17 1326.26 414.348   7
   4  -4  18 28282.3 1545.58   7
  -4   4 -18 24007.0 1586.34   5
  -4   4 -19 268.065 270.054   5
   4  -4  19-52.6647 289.443   7
  -4   4 -20 3414.13 604.865   5
   4  -4  20 4307.22 591.734   7
  -4   4 -21-23.9016 193.235   5
   4  -4  21-474.229 295.636   7
   4  -4  22 304.949 263.797   4
  -4   4 -22 60.3094 135.441   5
   4  -4  23 713.224 228.252   4
   4  -3 -22 13212.3 678.766   6
   4  -3 -22 15919.0 888.350  10
   4  -3 -21 3588.73 538.756  10
   4  -3 -21 3501.63 454.030   6
   4  -3 -20 6544.32 676.889   6
   4  -3 -19 16771.5 1186.17   6
   4  -3 -18 1428.63 466.808   6
   4  -3 -17 7409.30 952.859   6
   4  -3 -16 11656.6 1199.61   6
   4  -3 -15 15052.6 1379.22   6
   4  -3 -14 2002.53 627.058   6
  -4   3  14 2716.08 1294.94  13
  -4   3  14 3546.38 1450.75  12
  -4   3  13 9326.88 2343.20  12
   4  -3 -13 6873.38 988.707   6
  -4   3  13 7523.73 1992.82  13
   4  -3 -12 1909.42 547.561   6
  -4   3  12 2883.70 1233.27  13
  -4   3  12 1705.85 1149.21  12
  -4   3  11 6079.85 1736.87  13
  -4   3  11 5466.62 1633.38  12
  -4   3  10 2463.33 1093.48  13
  -4   3  10 2012.14 1044.08  12
  -4   3   9-193.867 650.233  13
  -4   3   9 226.606 369.016  12
  -4   3   8 62655.4 4244.39  12
  -4   3   7 65962.4 4051.36  12
  -4   3   6 2177.31 766.079  12
  -4   3   5 113971. 4661.67  12
  -4   3   4 7485.90 1184.90  12
  -4   3   3 42171.2 2609.50  12
  -4   3   2 4641.15 875.915  12
  -4   3   1 36122.8 2375.05  12
  -4   3   0 6467.60 1009.66  12
   4  -3   0 6263.14 917.707   3
   4  -3   1 803.877 348.385   3
  -4   3  -1 812.903 369.389  12
   4  -3   1 824.192 422.336   2
   4  -3   2 30370.6 2018.36   3
   4  -3   2 32570.0 2239.32   2
   4  -3   3 12464.4 1334.74   3
   4  -3   3 11970.2 1451.22   2
   4  -3   4 25940.6 2003.72   3
   4  -3   4 25864.4 2115.08   2
   4  -3   5 123.154 342.985   2
   4  -3   5 253.412 273.745   3
   4  -3   6 3073.90 905.441   2
   4  -3   7-168.891 472.902   2
   4  -3   8 24921.7 2604.52   2
   4  -3   9 27.6531 429.325   2
   4  -3  10 3865.27 1149.07   2
   4  -3  11 722.009 462.905   2
   4  -3  12-664.109 900.384   2
   4  -3  13 42947.6 4585.55   2
   4  -3  14 2003.66 1128.21   2
   4  -3  14 321.099 334.789   7
   4  -3  15 67252.5 2350.57   7
   4  -3  15 67095.7 5870.24   2
   4  -3  16 56158.2 2188.20   7
   4  -3  17 4438.66 687.259   7
   4  -3  18 5505.48 664.380   7
  -4   3 -19 9975.56 1087.48   5
   4  -3  19 10829.5 976.094   7
  -4   3 -20-16.2419 254.249   5
   4  -3  20-72.8467 367.448   7
  -4   3 -21 417.682 299.015   5
   4  -3  21-495.174 332.275   7
  -4   3 -22 1172.33 363.838   5
   4  -3  22 1157.57 325.237   7
   4  -3  23 123.398 175.266   4
  -4   3 -23 251.987 152.405   5
   4  -3  24 712.372 194.953   4
   4  -2 -22 227.510 135.696   6
   4  -2 -22 650.603 234.499  10
   4  -2 -21 4225.40 572.064  10
   4  -2 -21 4439.44 507.884   6
   4  -2 -21 3668.91 449.088   5
   4  -2 -20 270.387 227.346   5
   4  -2 -20-19.5681 181.929   6
   4  -2 -19 3362.80 564.409   5
   4  -2 -19 3753.53 589.250   6
   4  -2 -18 16504.7 1265.39   5
   4  -2 -18 16188.9 1284.50   6
   4  -2 -17 2570.19 559.040   5
   4  -2 -17 2053.98 543.005   6
   4  -2 -16 1985.76 569.642   5
   4  -2 -16 2304.03 564.924   6
   4  -2 -15 8299.76 1032.38   5
   4  -2 -15 9208.87 1110.89   6
   4  -2 -14-764.058 397.578   5
  -4   2  14 551.351 679.186  13
  -4   2  14 552.843 839.315  12
   4  -2 -14 354.127 369.405   6
  -4   2  14 1214.09 1045.16   2
   4  -2 -13 2255.44 553.745   5
  -4   2  13 3516.63 1563.37  12
  -4   2  13 3186.49 1330.45  13
   4  -2 -13 2977.12 710.297   6
  -4   2  12 7874.88 2070.57  12
  -4   2  12 9547.07 2118.01  13
  -4   2  11 2453.72 1159.23  13
  -4   2  11 2519.66 1126.77  12
  -4   2  10 14233.5 2550.58  13
  -4   2  10 17123.8 2607.09  12
  -4   2   9-46.1994 536.001  12
  -4   2   8 35506.6 3216.28  12
  -4   2   7 11024.0 1669.57  12
  -4   2   6 11439.2 1580.71  12
  -4   2   5 627.250 385.209  12
  -4   2   4 11421.3 1370.72  12
  -4   2   3 131985. 4553.78  12
  -4   2   2 3922.50 778.820  12
  -4   2   1 77776.8 3333.46  12
   4  -2   0 379.363 233.488   3
  -4   2   0 395.072 311.102  12
   4  -2   1 10213.5 994.288   3
   4  -2   1 10590.7 1236.96   2
   4  -2   2 510.619 322.037   2
   4  -2   2 474.459 244.023   3
   4  -2   3 15272.9 1291.90   3
   4  -2   3 16269.5 1553.70   2
   4  -2   4 54774.0 2553.13   3
   4  -2   4 57205.4 2987.15   2
   4  -2   5 2042.26 648.219   2
   4  -2   6 454.192 415.812   2
   4  -2   7 72055.7 3975.39   2
   4  -2   8 5807.28 1298.80   2
   4  -2   9 5819.12 1347.11   2
   4  -2  10 23363.0 2793.22   2
   4  -2  11-282.071 770.175   2
   4  -2  12 613.842 491.016   2
   4  -2  13 16850.1 2821.61   2
   4  -2  14 62321.5 2780.91   9
   4  -2  14 60775.5 2151.58   7
   4  -2  14 68115.2 5733.52   2
   4  -2  15 3518.17 1506.96   2
   4  -2  15 2598.45 581.517   7
   4  -2  16 60521.5 2242.51   7
   4  -2  17 9886.76 974.893   7
   4  -2  18 1994.62 583.734   7
   4  -2  19 10316.9 997.219   7
  -4   2 -20 2178.74 559.052   5
   4  -2  20 1836.81 479.862   7
  -4   2 -21 5699.54 809.736   5
   4  -2  21 5670.34 683.311   7
  -4   2 -22 896.450 374.164   5
   4  -2  22 834.728 344.051   7
  -4   2 -23 7061.48 700.378   5
   4  -2  23 8670.24 691.396   7
   4  -2  24 10075.4 679.659   4
  -4   2 -24 10707.1 673.867   5
   4  -1 -22 757.816 222.159  10
   4  -1 -22 730.985 210.673   5
   4  -1 -21 2710.95 437.376   5
   4  -1 -21 3248.39 498.008  10
   4  -1 -21 2830.25 398.912   6
   4  -1 -20 454.793 291.758  10
   4  -1 -20 757.677 267.319   6
   4  -1 -20 599.477 279.122   5
   4  -1 -19 3072.72 619.650   5
   4  -1 -19 3759.19 618.287   6
   4  -1 -18 6283.98 802.541   6
   4  -1 -18 6258.86 903.109   5
   4  -1 -17 15308.9 1423.68   5
   4  -1 -17 15145.5 1290.31   6
   4  -1 -16 318.704 386.218   5
   4  -1 -16 609.840 432.059   6
   4  -1 -15 15508.3 1488.87   5
   4  -1 -15 17489.6 1419.63   6
   4  -1 -14 13451.7 1324.33   5
  -4   1  14 15001.6 2855.51   2
  -4   1  14 16187.7 3152.35  12
   4  -1 -14 13927.7 1289.42   6
   4  -1 -13 11196.1 1203.93   5
  -4   1  13 13433.5 2377.62  13
   4  -1 -13 11661.7 1208.02   6
  -4   1  13 13413.5 2742.07  12
  -4   1  12 36215.4 4209.69  12
  -4   1  12 35929.3 3821.39  13
  -4   1  11 14015.7 2381.52  13
  -4   1  11 12629.2 2445.75  12
  -4   1  10 43723.9 4061.10  13
  -4   1  10 46137.8 4267.63  12
  -4   1   9 108.494 610.266  12
  -4   1   8 871.672 899.560  12
  -4   1   7 28598.7 2654.63  12
  -4   1   6 181.033 391.550  12
  -4   1   5 33658.7 2476.79  12
  -4   1   4 45741.6 2709.05  12
  -4   1   3 163714. 4923.32  12
  -4   1   2 15305.9 1466.91  12
  -4   1   1 32437.6 2087.03  12
  -4   1   0 47169.6 2495.42  12
   4  -1   1 6926.29 990.879   2
   4  -1   1 6162.50 606.766   3
   4  -1   2 4234.35 758.403   2
   4  -1   2 3782.09 487.039   3
   4  -1   3 4269.37 571.443   3
   4  -1   3 4460.71 843.174   2
   4  -1   4 44015.7 2574.59   2
   4  -1   5 55333.1 2966.69   2
   4  -1   6 15373.7 1658.66   2
   4  -1   7 11987.8 1264.54  13
   4  -1   7 12663.4 1637.37   2
   4  -1   8 32112.2 2141.03  13
   4  -1   8 34439.9 2918.61   2
   4  -1   9 2214.60 869.428   2
   4  -1   9 865.944 438.531  13
   4  -1  10 33496.9 3315.67   2
   4  -1  11 4875.07 1296.77   2
   4  -1  12 1031.14 753.551   2
   4  -1  13 160.020 696.517   2
   4  -1  14 3902.05 753.484   9
   4  -1  14 3896.88 1453.35   2
   4  -1  14 3400.21 548.132   7
   4  -1  15 2609.51 1306.77   2
   4  -1  15 2224.92 501.707   7
   4  -1  16 2114.90 542.925   7
   4  -1  16 865.616 861.607   2
   4  -1  17 39890.9 1870.16   7
   4  -1  18 5479.31 777.442   7
   4  -1  19 5311.14 738.568   7
   4  -1  20 2271.61 519.415   7
  -4   1 -21 1938.90 494.941   5
   4  -1  21 1285.55 393.664   7
  -4   1 -22 4382.05 688.777   5
   4  -1  22 4022.23 566.320   7
  -4   1 -23 4907.72 654.485   5
   4  -1  23 4489.42 562.187   7
  -4   1 -24 5168.70 552.103   5
   4  -1  24 5961.78 531.812   7
   4   0 -22 3359.06 427.456   5
   4   0 -21 1614.99 354.131  10
   4   0 -21 1081.19 250.101   6
   4   0 -21 1524.32 352.753   5
   4   0 -20 2470.75 431.905   6
   4   0 -20 2780.77 565.458   5
   4   0 -20 2794.68 509.759  10
   4   0 -19 6.62161 241.505  10
   4   0 -19 441.206 406.757   5
   4   0 -19 217.241 208.109   6
   4   0 -18 1101.14 431.609   5
   4   0 -18 1017.59 381.361   6
   4   0 -17 5378.38 760.483   6
   4   0 -17 5935.05 942.870   5
   4   0 -16 4957.60 756.345   6
   4   0 -16 6189.23 911.935   5
   4   0 -15 465.269 386.045   5
   4   0 -15 957.574 441.685   6
  -4   0  14 1507.46 906.631   2
   4   0 -14 890.092 403.872   5
  -4   0  14 2870.31 1604.47  12
   4   0 -13 3602.36 741.347   5
  -4   0  13 5310.75 1746.32  12
  -4   0  12 758.564 553.007  13
  -4   0  12-182.877 604.627  12
  -4   0  11 280.021 692.487  12
  -4   0  11 55.1366 681.398  13
  -4   0  10 494.376 520.521  12
  -4   0   9 6427.10 1512.29  12
  -4   0   8 111482. 5588.33  12
  -4   0   7 64291.4 3947.89  12
  -4   0   6 321842. 8144.93  12
  -4   0   5 40607.9 2691.35  12
  -4   0   4 33536.5 2323.98  12
  -4   0   3 32443.4 2140.02  12
  -4   0   2 12028.9 1269.07  12
  -4   0   1 6268.56 897.709  12
  -4   0   0 63343.6 2808.27  12
   4   0   1 651.186 347.467   2
   4   0   2 57643.4 1163.04   3
   4   0   2 84319.7 3186.07   2
   4   0   3 1887.78 537.828   2
   4   0   3 1289.48 238.603   3
   4   0   3 1798.68 471.974  13
   4   0   4 5454.26 874.829   2
   4   0   4 5455.96 831.618  13
   4   0   5 24770.2 1927.56   2
   4   0   5 26299.8 1797.89  13
   4   0   6 18691.7 1757.42   2
   4   0   6 18748.0 1610.89  13
   4   0   7 1362.83 612.915   2
   4   0   7 1405.24 508.581  13
   4   0   8 50886.6 2874.11  13
   4   0   8 55346.1 3478.77   2
   4   0   9 4450.41 1156.81   2
   4   0   9 3994.39 891.951  13
   4   0  10 3632.09 1131.97   2
   4   0  10 2544.43 764.898  13
   4   0  11 3814.39 1187.45   2
   4   0  11 4748.92 1047.33  13
   4   0  12 6116.59 1547.87   2
   4   0  13 7511.14 1862.16   2
   4   0  14 42497.8 4359.41   2
   4   0  15 966.045 798.718   2
   4   0  15 390.018 433.146   9
   4   0  15 144.973 298.428   7
   4   0  16 4955.53 1640.11   2
   4   0  16 5831.71 739.265   7
   4   0  17 2059.82 532.832   7
   4   0  18 747.758 514.320   7
   4   0  19 268.254 330.670   7
   4   0  20 149.958 338.007   7
   4   0  21 249.612 342.378   7
  -4   0 -22 648.443 502.070   5
   4   0  22 596.355 298.752   7
  -4   0 -23 2213.11 492.336   5
   4   0  23 2540.78 442.116   7
  -4   0 -24 1169.49 315.301   5
   4   0  24 1722.21 329.793   7
   4   1 -22 13631.6 879.440   5
   4   1 -21 679.410 284.356   5
   4   1 -20 22021.1 1415.64   5
   4   1 -19 983.827 426.662   5
   4   1 -19 716.821 307.048  10
   4   1 -18 43399.7 1899.13   6
   4   1 -18 47571.1 2167.69  10
   4   1 -17 6693.86 950.673   5
   4   1 -17 5041.32 708.170   6
   4   1 -16 6160.13 938.179   5
   4   1 -15 1146.96 415.601   5
  -4  -1  14 374.110 601.807  12
   4   1 -14 250.524 320.328   5
  -4  -1  14 958.334 826.247   2
   4   1 -13 3386.74 747.092   5
  -4  -1  13 3409.47 1386.24   2
  -4  -1  13 2870.26 1315.26  12
  -4  -1  12 20996.6 3217.53  12
  -4  -1  11 4926.80 1324.47  13
  -4  -1  11 4540.25 1433.46  12
  -4  -1  10 13765.7 2374.26  12
  -4  -1   9 9399.17 1820.90  12
  -4  -1   8 93935.3 5163.54  12
  -4  -1   7 58245.9 3775.60  12
  -4  -1   6 124975. 5115.84  12
  -4  -1   5 228067. 6379.06  12
  -4  -1   4 5799.71 970.545  12
  -4  -1   3 19859.0 1661.20  12
  -4  -1   2 6935.38 965.548  12
  -4  -1   1 6613.94 905.293  12
  -4  -1   0-1.67044 198.787  12
   4   1   1 583.804 358.981   2
   4   1   1 458.103 273.533  13
  -4  -1  -1 748.967 315.819  12
   4   1   2 1056.43 374.802  13
   4   1   2 1374.51 424.201   2
   4   1   3 53089.7 2543.45  13
   4   1   3 56205.9 2575.45   2
   4   1   4 2919.02 652.738  13
   4   1   4 3726.10 708.446   2
   4   1   5 209.552 254.553   2
   4   1   5 99.6567 274.860  13
   4   1   6 18155.0 1679.35  13
   4   1   6 17775.8 1663.01   2
   4   1   7 53400.9 3049.80   2
   4   1   7 53928.0 3028.93  13
   4   1   8 4084.45 976.007   2
   4   1   8 4172.84 946.663  13
   4   1   9 5860.81 1170.96  13
   4   1   9 7818.71 1403.25   2
   4   1  10 13120.2 1714.77  13
   4   1  10 17091.3 2219.60   2
   4   1  11 6422.92 1468.15   2
   4   1  11 5469.93 1133.11  13
   4   1  12 60286.2 4605.86   2
   4   1  12 83925.6 4502.80  13
   4   1  13 7506.70 1771.98   2
   4   1  14 61573.3 5090.41   2
   4   1  15 10288.0 975.280   7
   4   1  15 12922.8 2462.25   2
   4   1  15 10476.7 1241.43   9
   4   1  16 8914.93 913.558   7
   4   1  16 9202.33 2120.23   2
   4   1  17 19696.6 1360.23   7
   4   1  18 193.294 349.874   7
   4   1  19 484.680 458.695   7
   4   1  20 1883.56 552.038   7
   4   1  21 1277.36 408.193   7
  -4  -1 -22 364.971 383.133   5
   4   1  22 140.045 310.070   7
   4   1  23 8432.43 718.126   7
  -4  -1 -23 7215.18 813.339   5
  -4  -1 -24 2663.96 470.104   5
   4   1  24 3015.99 411.815   7
  -4  -1 -25 1202.58 226.689   6
  -4  -1 -25 1025.80 230.943   5
   4   1  25 1069.36 207.521   7
   4   2 -22 5876.63 599.294   5
   4   2 -21 210.856 225.500   5
   4   2 -20 6983.42 831.084   5
   4   2 -19 4229.48 730.643   5
   4   2 -18 4430.06 839.810   5
   4   2 -17 12532.8 1309.86   5
   4   2 -16 4344.77 861.206   5
   4   2 -15 2834.06 676.516   5
   4   2 -14 7377.26 1057.82   5
  -4  -2  14 6684.43 1932.86   2
  -4  -2  14 7053.22 785.852   7
   4   2 -13 18909.1 1667.61   5
  -4  -2  13 23800.0 3501.52   2
  -4  -2  13 21848.2 3313.66  12
  -4  -2  12 2157.39 1194.63  12
  -4  -2  11 7593.66 1882.84  12
  -4  -2  10 5524.56 1507.53  12
  -4  -2   9 983.475 735.682  12
  -4  -2   8 23005.6 2621.09  12
  -4  -2   7 52475.8 3626.91  12
  -4  -2   6 28414.0 2456.92  12
  -4  -2   5 44252.6 2830.83  12
  -4  -2   4 73923.6 3377.44  12
  -4  -2   3 114.693 233.405  12
  -4  -2   2 28678.7 1862.68  12
  -4  -2   1 28382.3 1805.79  12
  -4  -2   0 1127.15 395.291  12
  -4  -2   0 645.170 146.814   3
   4   2   0 1131.70 420.720  13
  -4  -2  -1 24633.6 1664.59  12
   4   2   1 23574.8 1731.68  13
   4   2   2 1055.59 488.033  13
   4   2   2 839.799 345.555   2
   4   2   3 174176. 4763.83  13
   4   2   3 178894. 4357.09   2
   4   2   4 58814.1 2879.26  13
   4   2   4 56504.0 2535.13   2
   4   2   5 657.034 405.053  13
   4   2   5 310.099 296.056   2
   4   2   6 28000.2 1953.31   2
   4   2   6 28055.7 2196.41  13
   4   2   7 38434.0 2758.08  13
   4   2   7 37866.1 2453.09   2
   4   2   8 38933.8 2902.94  13
   4   2   8 40245.0 2743.37   2
   4   2   9 14006.4 1793.29  13
   4   2   9 16996.2 1936.09   2
   4   2  10 8896.02 1571.55   2
   4   2  10 7249.83 1334.53  13
   4   2  11 10028.6 1728.05   2
   4   2  11 10086.0 1704.55  13
   4   2  12 9487.54 1785.98   2
   4   2  12 13121.8 1933.01  13
   4   2  13 6136.31 1616.14   2
   4   2  13 7033.74 1422.82  13
   4   2  14 872.068 681.802   2
   4   2  15 5072.55 934.803   9
   4   2  15 5683.28 794.449   7
   4   2  15 6864.04 1761.74   2
   4   2  16 28621.6 1615.14   7
   4   2  16 28276.5 3516.23   2
   4   2  17 742.804 409.809   7
   4   2  18 15397.5 1230.16   7
   4   2  19 9424.51 957.047   7
   4   2  20 841.875 449.006   7
   4   2  21 11537.3 984.403   7
   4   2  22 903.071 361.720   7
  -4  -2 -23 11404.1 982.462   5
   4   2  23 12611.6 852.248   7
  -4  -2 -24 4243.36 543.554   5
   4   2  24 4927.48 472.907   7
  -4  -2 -24 4538.02 514.184   6
  -4  -2 -25 107.907 105.402   5
  -4  -2 -25 41.1853 98.1813   6
   4   3 -22-80.3255 183.553   5
   4   3 -21 3588.20 543.198   5
   4   3 -20 1020.01 383.429   5
   4   3 -19 138.350 318.886   5
   4   3 -18 8369.64 1069.22   5
   4   3 -17 6093.65 989.153   5
   4   3 -16 38259.0 2303.50   5
   4   3 -15 39732.3 2374.83   5
   4   3 -14 4030.45 840.299   5
  -4  -3  14 3243.59 1409.53   2
  -4  -3  13 40573.9 4555.97   2
   4   3 -13 39861.4 2356.73   5
   4   3 -12-29.4059 331.203   5
  -4  -3  12-619.234 777.565   2
  -4  -3  12 415.537 811.335  12
  -4  -3  11 20355.5 2984.21  12
  -4  -3  10 10875.9 2132.26  12
  -4  -3   9 644.843 518.742  12
  -4  -3   8 13962.0 2127.77  12
  -4  -3   7 7951.05 1602.50  12
  -4  -3   6 569.916 466.891  12
  -4  -3   5 784.150 408.863  12
  -4  -3   4 63225.1 3147.60  12
  -4  -3   3 439.185 338.444  12
  -4  -3   2 53277.2 2494.75  12
  -4  -3   1 11239.6 1092.99  12
   4   3  -1 11461.4 1229.69  13
  -4  -3   0 17651.5 1012.23   3
  -4  -3   0 18052.0 1361.95  12
   4   3   0 18767.2 1601.83  13
  -4  -3  -1 22516.0 1032.00   3
  -4  -3  -1 24363.0 1561.04  12
   4   3   1 22891.2 1783.68  13
  -4  -3  -2 31471.8 1797.27  12
   4   3   2 33365.5 2151.31  13
   4   3   3 1938.39 455.120   2
   4   3   3 1642.39 548.204  13
   4   3   4 233560. 5977.81  13
   4   3   4 228622. 4809.39   2
   4   3   5 76250.0 3594.14  13
   4   3   5 74855.4 2879.27   2
   4   3   6 51434.1 2521.50   2
   4   3   6 52492.2 3206.70  13
   4   3   7 284900. 6379.57   2
   4   3   7 299692. 7900.21  13
   4   3   8 6601.86 1274.03  13
   4   3   8 7802.39 1182.38   2
   4   3   9 17089.8 1876.08   2
   4   3   9 11322.1 1751.98  13
   4   3  10 4942.36 1139.45   2
   4   3  10 3367.15 1040.28  13
   4   3  11 2102.38 855.897   2
   4   3  11 2401.39 869.817  13
   4   3  12 1478.21 647.041   2
   4   3  12 996.017 672.297  13
   4   3  13 10320.8 1859.17  13
   4   3  13 7810.91 1678.84   2
   4   3  14 1448.67 937.193   2
   4   3  14 863.888 656.369  13
   4   3  14 1423.12 437.629   7
   4   3  15 11849.1 1346.96   9
   4   3  15 14325.4 1186.35   7
   4   3  16 31088.7 1727.02   7
   4   3  17 41713.2 1981.36   7
   4   3  18 7791.17 919.639   7
   4   3  19 6552.08 820.960   7
   4   3  20 1092.68 467.221   7
   4   3  21 20377.1 1285.98   7
   4   3  22 340.258 280.056   7
  -4  -3 -23 7822.23 793.925   5
   4   3  23 8624.50 699.025   7
  -4  -3 -23 7957.31 745.480   6
  -4  -3 -24 45.7265 172.739   5
   4   3  24-129.689 196.194   7
  -4  -3 -24 57.7152 145.825   6
   4   4 -22 32.0124 146.180   5
   4   4 -21 1924.60 405.892   5
   4   4 -20 50.9528 232.990   5
   4   4 -19 357.795 333.152   5
   4   4 -18 940.712 454.741   5
   4   4 -17 2084.95 677.815   5
   4   4 -16 5901.96 1055.66   5
   4   4 -15 60628.4 2936.31   5
   4   4 -14 15900.1 1564.98   5
  -4  -4  13 43.8411 623.339   2
   4   4 -13-3.69482 330.841   5
   4   4 -12 21177.2 1728.46   5
  -4  -4  12 22793.6 3287.44   2
  -4  -4  11 33406.8 3919.33   2
  -4  -4  11 32043.7 3639.48  12
  -4  -4  10 3109.17 1165.44  12
  -4  -4   9 23960.2 2936.73  12
  -4  -4   8 16079.2 2298.36  12
  -4  -4   7 20952.8 2476.36  12
  -4  -4   6 380.382 425.013  12
  -4  -4   5 9249.75 1383.82  12
  -4  -4   4 275.614 409.244  12
  -4  -4   3 14569.4 1454.75  12
  -4  -4   2 7346.58 949.385  12
  -4  -4   1 1750.38 439.474  12
  -4  -4   1 1253.36 391.936   3
   4   4  -1 1385.96 436.239  13
   4   4   0 14754.2 1485.83  13
  -4  -4   0 13858.1 1133.02   3
  -4  -4   0 14098.2 1106.98  12
   4   4   1 30386.0 2107.54  13
  -4  -4  -1 31510.6 1638.25   3
  -4  -4  -1 29802.7 1566.87  12
  -4  -4  -2 45107.3 1954.43  12
   4   4   2 46690.2 2649.74  13
   4   4   3 67946.9 3270.05  13
  -4  -4  -3 65163.3 2447.61  12
   4   4   4 32366.6 2360.08  13
   4   4   4 32042.5 1668.18   2
   4   4   5 223726. 4589.80   2
   4   4   5 230027. 6590.75  13
   4   4   6 73439.6 3950.89  13
   4   4   6 69246.0 2728.55   2
   4   4   7 102983. 3598.12   2
   4   4   7 110780. 5104.05  13
   4   4   8 6607.59 1379.92  13
   4   4   8 7165.77 1036.75   2
   4   4   9 279.936 464.956  13
   4   4   9 947.972 366.356   2
   4   4  10 365.371 345.341   2
   4   4  10 651.452 482.085  13
   4   4  11 7760.65 1649.15  13
   4   4  11 8582.00 1448.51   2
   4   4  12 1277.13 731.610  13
   4   4  13 6028.74 1478.20  13
   4   4  14 92.2950 320.704   9
   4   4  14 276.821 306.205   7
   4   4  15 2155.70 953.560  13
   4   4  15 2282.73 541.744   7
   4   4  16 6166.26 799.626   7
   4   4  17 467.101 375.559   7
   4   4  18 2170.96 537.804   7
   4   4  19 8779.74 936.414   7
   4   4  20-106.287 345.535   7
   4   4  21 518.564 368.582   7
  -4  -4 -22 719.245 326.169   6
   4   4  22 733.743 359.485   7
   4   4  23 4793.48 505.457   7
  -4  -4 -23 4257.40 582.586   5
  -4  -4 -23 4093.01 511.254   6
  -4  -4 -24-77.3395 146.394   6
  -4  -4 -24 47.2844 159.606   5
   4   4  24 116.585 141.686   7
   4   5 -22 1715.23 277.326   5
   4   5 -21 6310.12 607.221   5
   4   5 -20 3495.67 548.596   5
   4   5 -19 3912.02 628.162   5
   4   5 -18 20907.5 1472.80   5
   4   5 -17 1945.06 573.498   5
   4   5 -16 3166.19 718.723   5
   4   5 -15 14636.4 1468.18   5
   4   5 -14 19961.0 1713.41   5
   4   5 -13 14665.1 1494.46   5
  -4  -5  13 13215.2 2601.98   2
  -4  -5  13 12184.9 1277.13   4
   4   5 -12 634.625 390.242   5
  -4  -5  12 305.618 563.727   2
  -4  -5  12 211.508 379.404   4
  -4  -5  11 74461.4 5661.99   2
   4   5 -11 65372.0 2835.84   5
  -4  -5  10 9034.99 1940.13   2
  -4  -5   9 5791.53 1465.50   2
  -4  -5   9 6275.17 1551.97  12
  -4  -5   8 12581.9 2049.84  12
  -4  -5   7 945.208 670.667  12
  -4  -5   6 32224.7 2959.83  12
  -4  -5   5 15497.1 1911.19  12
  -4  -5   4 26263.0 2317.74  12
  -4  -5   3 2536.08 665.874  12
  -4  -5   2 10519.0 1251.89   3
   4   5  -2 12500.2 1330.65  13
  -4  -5   2 12179.8 1267.25  12
  -4  -5   1 27022.8 1899.80   3
   4   5  -1 26044.7 2011.78  13
  -4  -5   1 28356.5 1742.54  12
  -4  -5   0 2365.11 565.756   3
  -4  -5   0 2052.57 424.965  12
   4   5   0 2294.49 647.146  13
  -4  -5  -1 16585.4 1430.80   3
   4   5   1 15519.8 1571.77  13
  -4  -5  -1 16022.8 1041.76  12
   4   5   2 58697.9 3093.34  13
  -4  -5  -2 62249.7 2711.05   3
  -4  -5  -2 57562.6 1852.88  12
  -4  -5  -3 145.937 113.097  12
   4   5   3 237.593 402.024  13
  -4  -5  -4 41.6845 122.668  12
   4   5   4 87.2375 383.551  13
   4   5   5 7696.90 1284.87  13
   4   5   6 34507.3 2900.61  13
   4   5   7 101092. 5179.99  13
   4   5   8 175.609 372.478  13
   4   5   9 85889.7 5248.52  13
   4   5  10 30823.7 3270.12  13
   4   5  11 46291.0 4049.59  13
   4   5  12 6034.14 1567.76  13
   4   5  13 18903.5 1299.73   7
   4   5  13 25393.1 3133.47  13
   4   5  14 9562.13 1103.51   9
   4   5  14 9355.72 970.143   7
   4   5  14 11792.6 2199.20  13
   4   5  15 1266.52 521.141   7
   4   5  15 503.452 638.309  13
   4   5  16 22091.7 1469.16   7
   4   5  17 1744.60 528.633   7
   4   5  18 2300.64 534.693   7
   4   5  19 309.879 361.395   7
   4   5  20 1654.00 403.137   7
  -4  -5 -21 1901.97 461.604   6
   4   5  21 2250.16 469.247   7
  -4  -5 -22 577.600 279.106   6
  -4  -5 -22 1012.58 352.770   5
   4   5  22 608.621 297.033   7
  -4  -5 -23 3954.91 507.234   5
   4   5  23 3439.74 444.766   7
  -4  -5 -23 3927.19 471.204   6
  -4  -5 -24 3180.30 339.954   6
   4   5  24 2793.58 308.639   7
   4   6 -21-81.3652 127.286   5
   4   6 -20 17074.7 996.039   5
   4   6 -19 966.670 324.467   5
   4   6 -18 22156.0 1416.65   5
   4   6 -17 36288.5 1933.32   5
   4   6 -16 1723.99 535.935   5
  -4  -6  16 1168.42 361.522   4
  -4  -6  15 6217.69 877.463   4
   4   6 -15 8562.85 1123.20   5
   4   6 -14 17703.3 1593.86   5
  -4  -6  14 17251.2 1471.15   4
   4   6 -13 17835.7 1621.24   5
  -4  -6  13 17813.4 1520.78   4
   4   6 -12 414.823 375.137   5
  -4  -6  12 1424.17 480.801   4
   4   6 -11 7335.06 977.431   5
  -4  -6  11 8224.49 1052.08   4
  -4  -6  10 1686.06 493.067   4
  -4  -6  10 1417.78 805.449   2
   4   6 -10 1880.56 479.958   5
  -4  -6   9 867.394 458.018   2
  -4  -6   8 11449.3 2095.05   2
  -4  -6   7 510.092 524.330   2
  -4  -6   6 728.253 579.344  12
  -4  -6   5 22861.4 2350.39  12
  -4  -6   4 2119.61 699.619  12
  -4  -6   4 2222.79 769.759   3
  -4  -6   3 691.400 403.048   3
  -4  -6   3 904.545 478.008  12
  -4  -6   2 46036.1 2894.23   3
   4   6  -2 50976.5 2739.03  13
  -4  -6   1 3393.36 769.227   3
   4   6  -1 3623.81 744.444  13
  -4  -6   0 68441.3 3323.47   3
   4   6   0 72801.3 3524.26  13
   4   6   1 173.504 360.242  13
  -4  -6  -1-53.3449 350.306   3
  -4  -6  -2 103951. 4011.77   3
   4   6   2 94520.9 4165.54  13
   4   6   3 23389.9 2127.23  13
   4   6   4 471.618 525.225  13
   4   6   5 340.319 508.893  13
   4   6   6 4770.87 1136.44  13
   4   6   7 43662.1 3615.54  13
   4   6   8 23300.7 2813.68  13
   4   6   9 27990.3 3156.69  13
   4   6  10 385.656 411.484  13
   4   6  11 18476.8 2775.23  13
   4   6  12 7635.78 1811.84  13
   4   6  13 2877.69 1223.09  13
   4   6  13 1955.80 477.731   7
   4   6  14 1999.83 460.837   7
   4   6  14 3438.99 1171.96  13
   4   6  15 6857.52 1682.65  13
   4   6  15 7783.18 896.247   7
   4   6  16 1319.57 473.700   7
   4   6  17 7124.94 864.260   7
   4   6  18 7236.60 818.398   7
  -4  -6 -18 8020.86 957.809   6
   4   6  19 2692.02 571.925   7
  -4  -6 -19 2790.05 560.691   6
   4   6  20 5831.99 665.597   7
  -4  -6 -20 5890.48 731.470   6
  -4  -6 -21 1829.95 420.989   6
   4   6  21 2365.06 427.398   7
  -4  -6 -22 1385.73 312.858   6
  -4  -6 -22 1290.88 340.623   5
   4   6  22 1629.65 353.340   7
  -4  -6 -23 885.251 217.242   5
   4   6  23 1158.43 247.425   7
  -4  -6 -23 1111.18 229.974   6
   4   7 -20-91.6837 124.635   5
   4   7 -19 6310.98 625.434   5
   4   7 -18 1723.33 413.134   5
  -4  -7  17 25847.2 1392.02   4
   4   7 -17 26755.6 1555.28   5
  -4  -7  16 46665.9 2023.57   4
   4   7 -16 43501.6 2128.22   5
  -4  -7  15 894.617 404.007   4
   4   7 -15 878.394 454.351   5
  -4  -7  14 8121.20 1014.13   4
   4   7 -14 6745.36 1006.96   5
  -4  -7  13 6238.88 917.514   4
   4   7 -13 5038.68 877.518   5
   4   7 -12 129.936 298.085   5
  -4  -7  12 88.2377 271.797   4
   4   7 -11 407.816 284.761   5
  -4  -7  11 518.354 291.906   4
  -4  -7  11-6.05172 468.433   2
   4   7 -10 2957.16 597.045   5
  -4  -7  10 3843.47 1306.62   2
  -4  -7  10 2580.52 633.768   4
   4   7  -9 2726.90 584.535   5
  -4  -7   9 1697.05 957.674   2
  -4  -7   9 2753.83 615.522   4
  -4  -7   8 811.091 730.739   2
  -4  -7   7-62.5137 636.133   2
  -4  -7   6 17206.9 2374.35   3
  -4  -7   6 17982.7 2344.93   2
  -4  -7   5 59656.3 4128.62   3
  -4  -7   4 14742.5 1964.05   3
  -4  -7   3 31187.9 2696.81   3
  -4  -7   2 18706.1 2024.06   3
  -4  -7   1 253.246 241.123   3
   4   7  -1 430.611 310.263  13
   4   7   0 29006.9 2344.10  13
  -4  -7   0 30214.6 2475.97   3
  -4  -7  -1 14338.8 1678.76   3
   4   7   1 14135.5 1648.16  13
  -4  -7  -2 6401.76 1140.62   3
   4   7   2 5542.51 1077.41  13
   4   7   3 16779.1 1939.82  13
   4   7   4 31363.8 2746.14  13
   4   7   5 20681.1 2403.91  13
   4   7   6 42255.5 3588.88  13
   4   7   7 33239.0 3317.83  13
   4   7   8 907.881 654.487  13
   4   7   9 30673.9 3479.72  13
   4   7  10 4779.41 1494.45  13
   4   7  11 13166.1 2469.18  13
   4   7  12 1381.54 820.024  13
  -4  -7 -12 493.695 367.042   4
   4   7  12 1255.15 458.603   7
   4   7  13 5083.54 711.392   7
   4   7  13 5789.26 1715.34  13
   4   7  14-394.633 470.987   7
   4   7  14 855.981 927.515  13
   4   7  15 16932.7 1281.18   7
  -4  -7 -15 17659.0 1463.14   6
   4   7  16 19048.5 1341.83   7
  -4  -7 -16 19337.2 1483.61   6
  -4  -7 -17 719.304 408.925   6
   4   7  17-29.9176 340.311   7
   4   7  18 47637.0 1939.33   7
  -4  -7 -18 46223.2 2101.21   6
   4   7  19 25700.7 1356.08   7
  -4  -7 -19 24545.2 1453.80   6
  -4  -7 -20 2269.13 444.102   6
   4   7  20 2250.43 421.889   7
   4   7  21 9248.64 715.136   7
  -4  -7 -21 8970.00 741.755   6
   4   7  22 470.501 206.180   7
  -4  -7 -22 496.963 187.910   6
   4   8 -19 266.788 151.699   5
   4   8 -18 652.620 239.614   5
  -4  -8  18 651.943 216.018   4
   4   8 -17 1366.77 386.176   5
  -4  -8  17 1169.76 330.165   4
   4   8 -16 3734.90 634.182   5
  -4  -8  16 4940.80 682.505   4
  -4  -8  15 2528.87 581.573   4
   4   8 -15 1764.19 463.169   5
   4   8 -14-168.254 297.677   5
  -4  -8  14 792.578 410.162   4
   4   8 -13 146.106 272.641   5
  -4  -8  13-771.455 462.949   4
  -4  -8  12 20144.8 1618.57   4
   4   8 -12 17623.8 1451.84   5
   4   8 -11 3516.01 658.532   5
  -4  -8  11 3140.16 696.918   4
  -4  -8  10 1129.84 741.353   3
   4   8 -10 1012.72 428.081   5
  -4  -8  10-88.7113 376.217   4
   4   8  -9 843.053 393.813   5
  -4  -8   9 924.939 499.309   3
  -4  -8   9 1424.96 481.120   4
  -4  -8   8 25678.7 3428.14   3
  -4  -8   8 30613.3 1901.28   4
  -4  -8   7 4493.61 712.693   4
  -4  -8   7 3669.35 1190.37   3
  -4  -8   6 34237.2 3528.66   3
  -4  -8   5 13680.8 2122.62   3
  -4  -8   4-154.428 320.809   3
  -4  -8   3 1325.71 614.838   3
  -4  -8   2 5176.36 1135.46   3
  -4  -8   1 9300.94 1517.75   3
  -4  -8   0 8919.93 1461.98   3
   4   8   0 8125.80 1319.99  13
  -4  -8  -1 757.411 414.601   3
   4   8   1 1393.59 652.040  13
   4   8   2 80906.8 4362.79  13
  -4  -8  -2 84773.1 4515.42   3
   4   8   3 1982.68 722.926  13
   4   8   4 60408.9 4068.61  13
   4   8   5 23978.2 2677.08  13
   4   8   6 10241.0 1887.97  13
   4   8   7 32788.3 3486.21  13
   4   8   8 998.148 813.547  13
   4   8   9 1537.65 846.289  13
  -4  -8 -10 2397.82 566.429   4
   4   8  10 3898.87 1454.36  13
  -4  -8 -11 12416.0 1195.45   4
   4   8  11 15409.0 1190.57   7
   4   8  11 14239.9 2685.90  13
  -4  -8 -12 10831.9 1154.04   4
   4   8  12 14270.9 1146.39   7
   4   8  12 14393.3 2664.48  13
   4   8  13 11773.2 1071.70   7
   4   8  14 1038.32 357.920   7
   4   8  15 12016.9 1085.79   7
   4   8  16 40121.1 1891.54   7
  -4  -8 -17 287.625 238.139   6
   4   8  17 239.327 354.756   7
  -4  -8 -18 10779.6 947.091   6
   4   8  18 11431.5 941.959   7
   4   8  19 10319.4 822.007   7
  -4  -8 -19 8840.92 798.572   6
  -4  -8 -20 546.669 228.759   6
   4   8  20 981.763 279.632   7
   4   8  21 3021.86 402.035   7
  -4  -8 -21 2374.28 330.699   6
  -4  -9  18 1669.91 262.659   4
  -4  -9  17 137.635 177.924   4
   4   9 -16 784.279 269.710   5
  -4  -9  16 1002.01 312.907   4
  -4  -9  15 10562.4 993.929   4
   4   9 -15 10326.9 886.495   5
  -4  -9  14 17056.1 1387.76   4
   4   9 -14 13719.6 1134.92   5
   4   9 -13 98.5883 264.331   5
  -4  -9  13 403.284 421.748   4
  -4  -9  12 4866.31 830.357   4
  -4  -9  11 5269.23 828.407   4
  -4  -9  10 3516.19 617.140   4
  -4  -9   9 2609.67 598.440   4
  -4  -9   8 11652.6 2360.55   3
  -4  -9   8 14166.5 1319.24   4
  -4  -9   7 12391.6 2389.03   3
  -4  -9   7 18226.5 1444.53   4
  -4  -9   6-372.130 376.683   3
  -4  -9   6 30.5860 243.116   4
  -4  -9   5 16090.7 2406.48   3
  -4  -9   5 19180.1 1394.35   4
  -4  -9   4 12972.2 2112.28   3
  -4  -9   4 14094.8 1165.58   4
  -4  -9   3 57433.0 4265.14   3
  -4  -9   2 534.746 280.361   3
  -4  -9   1 11495.3 1830.92   3
  -4  -9   0 14331.2 2000.45   3
  -4  -9  -1-69.6264 229.840   3
  -4  -9  -2 2185.81 784.038   3
   4   9   2 2020.29 851.952  13
   4   9   3 12598.6 1849.66  13
   4   9   4 21348.5 2579.37  13
   4   9   5 15194.7 2253.25  13
   4   9   6-310.149 546.428  13
   4   9   7 27.3590 448.385  13
  -4  -9  -8 305.772 262.786   4
   4   9   8 935.486 721.215  13
   4   9   9 1520.18 870.249  13
  -4  -9  -9 2025.64 505.972   4
  -4  -9 -10 985.491 416.038   4
   4   9  10-31.9359 767.274  13
   4   9  11 2497.96 575.627   7
  -4  -9 -11 514.049 338.075   4
   4   9  11 1363.17 902.810  13
  -4  -9 -12 3492.84 657.473   4
   4   9  12 4938.68 742.458   7
   4   9  13 40380.9 1924.58   7
   4   9  14 6327.68 748.404   7
   4   9  15 4947.32 747.477   7
   4   9  16 15993.4 1152.16   7
   4   9  17 412.483 323.568   7
   4   9  18 1029.74 326.592   7
   4   9  19 461.848 282.270   7
   4   9  20 3706.40 423.603   7
  -4 -10  17 2605.09 335.163   4
  -4 -10  16 408.357 226.187   4
  -4 -10  15 7774.73 782.401   4
  -4 -10  14 25150.2 1524.71   4
  -4 -10  13 642.743 390.733   4
  -4 -10  12 8362.13 1059.24   4
  -4 -10  11-392.048 440.229   4
  -4 -10  10 796.166 305.396   4
  -4 -10   9 489.543 321.860   4
  -4 -10   8 2383.43 562.351   4
  -4 -10   7 1704.94 495.000   4
  -4 -10   6 54047.3 4790.56   3
  -4 -10   6 61969.3 2662.31   4
  -4 -10   5 41459.0 4054.20   3
  -4 -10   5 52394.6 2385.51   4
  -4 -10   4 29692.3 3351.49   3
  -4 -10   4 32394.7 1827.91   4
  -4 -10   3 126326. 6715.26   3
  -4 -10   3 128360. 3582.14   4
  -4 -10   2 3065.02 1031.28   3
  -4 -10   2 2697.23 574.006   4
  -4 -10   1 63075.8 4590.41   3
  -4 -10   1 58507.5 2352.82   4
  -4 -10   0 18418.6 1304.74   4
  -4 -10   0 17830.0 2409.32   3
  -4 -10  -1 5302.29 1307.40   3
  -4 -10  -1 7223.53 811.189   4
  -4 -10  -2 3358.99 585.221   4
  -4 -10  -3 7083.02 842.619   4
  -4 -10  -4 849.782 370.315   4
   4  10   4 423.373 521.240  13
   4  10   5 3386.96 1240.69  13
  -4 -10  -5 3267.37 583.159   4
   4  10   6 4743.37 1376.31  13
  -4 -10  -6 6070.83 803.595   4
   4  10   7 19236.2 2887.61  13
  -4 -10  -7 16311.9 1253.89   4
   4  10   8-11.7606 476.056  13
  -4 -10  -8 247.221 242.680   4
  -4 -10  -9 8883.16 979.166   4
   4  10   9 7879.47 1973.52  13
  -4 -10 -10 3092.39 608.381   4
  -4 -10 -11 27294.4 1700.48   4
   4  10  11 30707.0 1654.65   7
   4  10  12 3076.67 617.763   7
  -4 -10 -12 2184.27 527.222   4
   4  10  13 16807.6 1216.14   7
   4  10  14 25595.3 1479.13   7
   4  10  15 439.865 401.964   7
  -4 -10 -15-1238.33 486.512  11
  -4 -10 -16 203.222 235.546  11
   4  10  16 1106.48 364.854   7
   4  10  17 10849.9 827.998   7
  -4 -10 -17 9367.88 791.714  11
   4  10  18 2633.50 406.821   7
  -4 -11  16 370.707 171.435   4
  -4 -11  15 7511.87 662.580   4
  -4 -11  14 5743.31 678.343   4
  -4 -11  13 783.351 338.260   4
  -4 -11  12 1094.03 463.499   4
  -4 -11  11 1266.27 489.562   4
  -4 -11  10 493.920 359.595   4
  -4 -11   9 1355.96 472.118   4
  -4 -11   8 1303.34 481.210   4
  -4 -11   7 1331.48 525.038   4
  -4 -11   6 27427.6 1809.47   4
  -4 -11   5 58629.8 2586.21   4
  -4 -11   4 1329.05 482.621   4
  -4 -11   3 47850.0 2269.66   4
  -4 -11   2 23740.1 1596.67   4
  -4 -11   1 1699.36 489.120   4
  -4 -11   1 1924.24 870.894   3
  -4 -11   0 2076.19 1008.15   3
  -4 -11   0 2226.84 426.724  11
  -4 -11   0 2812.29 526.443   4
  -4 -11  -1 12930.0 1137.94   4
  -4 -11  -1 10741.0 1059.22  11
  -4 -11  -2 17492.9 1297.90   4
  -4 -11  -3 26774.7 1613.04   4
  -4 -11  -4 2117.72 476.172   4
  -4 -11  -5 19874.1 1385.04   4
  -4 -11  -6 10361.0 1009.69   4
  -4 -11  -7 10.9845 235.311   4
  -4 -11  -8 2453.15 538.583   4
  -4 -11  -9 5586.96 778.271   4
  -4 -11 -10 10886.2 1052.11   4
  -4 -11 -11 1490.22 454.677   4
   4  11  11 1286.17 444.290   7
  -4 -11 -12 8592.71 1004.49   4
   4  11  12 9764.00 952.944   7
   4  11  13 1668.45 415.647   7
  -4 -11 -13 2392.43 518.090  11
   4  11  14 3729.80 563.729   7
  -4 -11 -14 3470.89 603.467  11
   4  11  15 14444.6 973.876   7
  -4 -11 -15 13505.4 1087.31  11
  -4 -11 -16 3669.80 535.174  11
  -4 -11 -17 17632.2 989.107  11
  -4 -12  15 549.447 174.961   4
  -4 -12  14 467.712 203.384   4
  -4 -12  13 598.130 262.895   4
  -4 -12  12 1354.53 388.116   4
  -4 -12  11-341.668 319.417   4
  -4 -12  10-320.875 327.242   4
  -4 -12   9-374.540 462.763   4
  -4 -12   8 9342.55 1101.98   4
  -4 -12   7 1099.00 555.592   4
  -4 -12   6 41816.7 2187.99   4
  -4 -12   5 7627.14 993.695   4
  -4 -12   4 694.805 413.018   4
  -4 -12   3 661.565 412.162   4
  -4 -12   2-443.263 390.284   4
  -4 -12   1 13666.0 1194.86   4
  -4 -12   0 16486.9 1253.83   4
  -4 -12   0 14715.4 1177.81  11
  -4 -12  -1 4457.99 737.440  11
  -4 -12  -1 3108.20 558.931   4
  -4 -12  -2 9185.21 933.656   4
  -4 -12  -2 8849.17 999.501  11
  -4 -12  -3 15009.4 1229.53   4
  -4 -12  -3 15622.1 1366.78  11
  -4 -12  -4 8688.75 1071.16  11
  -4 -12  -4 11652.2 1048.17   4
  -4 -12  -5 10859.5 1027.99   4
  -4 -12  -5 8615.92 1076.09  11
  -4 -12  -6 58424.9 2311.06   4
  -4 -12  -6 46070.2 2488.66  11
  -4 -12  -7 7645.50 850.246   4
  -4 -12  -7 3307.49 657.625  11
  -4 -12  -8 10367.9 1023.18   4
  -4 -12  -8 8019.49 1057.97  11
  -4 -12  -9 4452.16 791.536  11
  -4 -12  -9 4981.51 730.989   4
  -4 -12 -10 4835.90 741.170   4
   4  12  10 5920.96 750.254   7
  -4 -12 -10 4434.83 766.425  11
  -4 -12 -11 376.306 420.820  11
   4  12  11 1305.84 429.065   7
  -4 -12 -11 57.5035 287.439   4
   4  12  12 5916.94 650.282   7
  -4 -12 -12 6758.75 868.045  11
  -4 -12 -13 230.206 284.080  11
  -4 -12 -14 1388.13 413.048  11
  -4 -12 -15 1890.48 415.354  11
  -4 -12 -16 10192.4 754.451  11
  -4 -12 -17 928.094 225.033  11
  -4 -13  13 5100.57 482.312   4
  -4 -13  12 21410.9 1107.20   4
  -4 -13  11 266.395 245.708   4
  -4 -13  10 17199.7 1193.06   4
  -4 -13   9-643.391 402.447   4
  -4 -13   8 20521.1 1423.94   4
  -4 -13   7 15612.5 1312.53   4
  -4 -13   6 9208.66 1038.37   4
  -4 -13   5 10247.1 1068.01   4
  -4 -13   4-447.044 428.240   4
  -4 -13   3 14027.3 1189.50   4
  -4 -13   2 11158.0 1057.05   4
  -4 -13   1 21645.0 1448.20   4
  -4 -13   0 24260.9 1452.77  11
  -4 -13   0 26478.9 1589.12   4
  -4 -13  -1 831.713 345.851  11
  -4 -13  -1 1010.65 379.043   4
  -4 -13  -2 19852.3 1343.55   4
  -4 -13  -2 17281.2 1363.15  11
  -4 -13  -3 1719.12 512.349  11
  -4 -13  -3 2087.90 462.880   4
  -4 -13  -4 2187.28 502.705   4
  -4 -13  -4 2359.32 623.550  11
  -4 -13  -5 468.383 304.855   4
  -4 -13  -5 454.097 410.056  11
  -4 -13  -6 1090.48 346.160   4
  -4 -13  -6 911.171 401.344  11
  -4 -13  -7 6344.95 765.514   4
  -4 -13  -7 5713.48 831.235  11
  -4 -13  -8 11971.8 1030.57   4
  -4 -13  -8 12765.0 1241.89  11
   4  13   9 356.594 319.607   7
  -4 -13  -9 105.911 250.645   4
  -4 -13 -10 1295.47 378.017   4
  -4 -13 -10 2382.26 578.261  11
  -4 -13 -11 280.443 311.888  11
  -4 -13 -12 16774.2 1203.83  11
  -4 -13 -13 3774.23 586.947  11
  -4 -13 -14 7625.90 719.697  11
  -4 -13 -15 3036.28 424.391  11
  -4 -13 -16 3215.84 371.407  11
  -4 -14  12 9294.76 557.858   4
  -4 -14  11 498.784 219.487   4
  -4 -14  10 27726.3 1249.09   4
  -4 -14   9 13550.8 951.772   4
  -4 -14   8-956.159 400.321   4
  -4 -14   7 10985.8 924.963   4
  -4 -14   6 18730.6 1279.85   4
  -4 -14   5 3823.32 615.141   4
  -4 -14   4 20528.0 1353.75   4
  -4 -14   3 15361.3 1164.22   4
  -4 -14   2 1477.69 381.154   4
  -4 -14   1 10790.8 961.368   4
  -4 -14   0 5698.09 731.359   4
  -4 -14  -1-69.6815 214.469   4
  -4 -14  -1 41.2671 252.105  11
  -4 -14  -2 1726.91 442.437  11
  -4 -14  -2 1605.85 413.691   4
  -4 -14  -3 1159.89 378.416   4
  -4 -14  -3 984.248 407.160  11
  -4 -14  -4 858.681 316.780   4
  -4 -14  -4 1222.59 471.497  11
  -4 -14  -5 4995.89 638.445   4
  -4 -14  -5 4826.20 759.355  11
  -4 -14  -6 16463.6 1322.87  11
  -4 -14  -6 16623.9 1103.30   4
  -4 -14  -7 243.216 245.493   4
  -4 -14  -7 540.408 391.227  11
  -4 -14  -8 18693.3 1161.04   4
  -4 -14  -8 17817.0 1331.59  11
  -4 -14  -9 601.661 277.886   4
  -4 -14  -9 427.931 412.194  11
  -4 -14 -10 14664.8 1109.27  11
  -4 -14 -11 986.873 397.899  11
  -4 -14 -12 697.876 319.350  11
  -4 -14 -13 6560.16 627.761  11
  -4 -14 -14 5527.73 514.680  11
  -4 -14 -15 642.342 171.597  11
  -4 -15   9 1190.19 244.717   4
  -4 -15   8 396.298 183.577   4
  -4 -15   7 185.138 166.040   4
  -4 -15   6 8439.51 720.443   4
  -4 -15   5 12694.9 924.712   4
  -4 -15   4 12112.4 920.639   4
  -4 -15   3 30862.2 1448.68   4
  -4 -15   2 5525.37 655.302   4
  -4 -15   1 3186.29 502.181   4
  -4 -15   0 309.308 315.325   4
  -4 -15  -1 8241.29 742.095   4
  -4 -15  -2 882.197 294.884   4
  -4 -15  -2 650.031 261.604  11
  -4 -15  -3 2178.49 404.327   4
  -4 -15  -3 2107.25 416.268  11
  -4 -15  -4 5661.63 613.456   4
  -4 -15  -4 5369.83 696.295  11
  -4 -15  -5 8788.18 715.074   4
  -4 -15  -5 8520.38 878.291  11
  -4 -15  -6 4457.85 506.650   4
  -4 -15  -6 4904.13 688.366  11
  -4 -15  -7 8304.78 675.513   4
  -4 -15  -7 7784.82 811.497  11
  -4 -15  -8 14256.1 830.776   4
  -4 -15  -8 13247.2 1011.56  11
  -4 -15  -9 23777.5 1310.25  11
  -4 -15 -10 383.286 257.073  11
  -4 -15 -11 2305.75 401.166  11
  -4 -15 -12 14749.9 831.472  11
  -4 -15 -13 552.316 170.939  11
  -4 -16   5-105.627 142.271   4
  -4 -16   4 1911.51 307.698   4
  -4 -16   3 3777.10 430.683   4
  -4 -16   2 2523.63 344.589   4
  -4 -16   1 19.6999 144.455   4
  -4 -16   0 3583.28 418.990   4
  -4 -16  -1 496.392 184.800   4
  -4 -16  -2 6300.27 532.582   4
  -4 -16  -3 9058.89 631.643   4
  -4 -16  -3 6964.72 576.163  11
  -4 -16  -4 3098.28 351.883   4
  -4 -16  -4 2832.95 400.303  11
  -4 -16  -5 9001.55 575.528   4
  -4 -16  -5 7943.92 660.673  11
  -4 -16  -6 10479.2 766.881  11
  -4 -16  -7 456.334 219.225  11
  -4 -16  -8 963.255 261.803  11
  -4 -16  -9 2341.06 356.944  11
  -4 -16 -10 922.615 220.385  11
   5 -14  -7 4297.51 395.187  11
   5 -14  -6 8367.97 623.693  11
   5 -14  -5 763.856 243.943  11
   5 -14  -4 8348.86 707.334  11
   5 -14  -3 5997.11 631.204  11
   5 -14  -2 8016.03 711.470  11
   5 -14  -1 865.341 280.962  11
   5 -14   0 3376.17 480.007  11
   5 -14   1 9601.25 757.318  11
   5 -14   2 1243.73 271.029  11
   5 -14   3 34147.7 1217.23  11
   5 -13  -9 11795.4 698.096  11
   5 -13  -8 3868.13 448.791  11
   5 -13  -7 839.967 266.888  11
   5 -13  -6 10961.9 897.350  11
   5 -13  -5 3570.19 587.560  11
   5 -13  -4-224.916 393.661  11
   5 -13  -3 32.6821 396.498  11
   5 -13  -2 484.796 343.757  11
   5 -13  -1 5715.75 730.732  11
   5 -13   0 7652.97 740.647   1
   5 -13   0 9388.98 902.762  11
   5 -13   1 780.253 358.631   1
   5 -13   1-112.373 288.716  11
   5 -13   2 5498.05 652.446   1
   5 -13   2 4499.80 601.609  11
   5 -13   3 11104.0 938.029   1
   5 -13   3 9206.60 793.087  11
   5 -13   4 975.803 397.399   1
   5 -13   4 749.221 270.439  11
   5 -13   5 16043.7 969.875  11
   5 -13   5 14456.5 1041.37   1
   5 -13   6 23200.7 1291.73   1
   5 -13   7 14274.5 986.485   1
   5 -13   8-21.9928 258.869   1
   5 -13   9 15519.9 905.318   1
   5 -13  10 11651.2 702.100   1
   5 -13  11 3600.44 355.841   1
   5 -12 -13 436.170 145.148   6
   5 -12 -12 462.234 195.848   6
   5 -12 -11 356.673 191.742   6
   5 -12 -10-483.394 287.406   6
   5 -12 -10-500.586 239.321  11
   5 -12  -9-246.460 268.988   6
   5 -12  -9-179.057 218.505  11
   5 -12  -8 1541.12 397.209  11
   5 -12  -8 1065.59 364.463   8
   5 -12  -8 1834.94 456.555   6
   5 -12  -7 16933.7 1143.97   8
   5 -12  -7 17322.7 1201.71   6
   5 -12  -7 17235.1 1223.10  11
   5 -12  -6 700.320 395.692   8
   5 -12  -6 1118.25 444.037   6
   5 -12  -6 1048.61 438.765  11
   5 -12  -5 22066.3 1448.27   8
   5 -12  -5 20413.5 1322.91   6
   5 -12  -4 6608.01 874.135  11
   5 -12  -4 7203.49 880.331   8
   5 -12  -3 310.973 471.679   8
   5 -12  -3 594.015 416.024  11
   5 -12  -2 2699.16 461.798   1
   5 -12  -2 4562.37 817.889   8
   5 -12  -2 4098.38 744.173  11
   5 -12  -1 2095.03 433.782   1
   5 -12  -1 2520.83 712.385   8
   5 -12  -1 2166.74 518.256  11
   5 -12   0 9266.34 1030.65  11
   5 -12   0 10949.1 1164.28   8
   5 -12   0 8817.92 816.358   1
   5 -12   1 1014.48 516.868   8
   5 -12   1 828.593 346.410   1
   5 -12   1 871.019 425.649  11
   5 -12   2 5133.87 779.527   8
   5 -12   2 5199.71 710.289   1
   5 -12   2 4527.37 663.591  11
   5 -12   3-201.882 359.815   1
   5 -12   3-65.6657 283.712  11
   5 -12   4-372.802 433.802   1
   5 -12   4 90.7119 265.859  11
   5 -12   5 1658.07 391.478  11
   5 -12   5 2446.54 539.835   1
   5 -12   6 3639.99 613.561   1
   5 -12   6 4145.96 588.592  11
   5 -12   7 1818.73 472.865   1
   5 -12   8 13334.3 1084.05   1
   5 -12   9 741.585 353.862   1
   5 -12  10 14045.8 962.387   1
   5 -12  11 376.521 233.227   1
   5 -12  12 2323.45 342.775   1
   5 -12  13-4.33788 126.561   1
   5 -11 -15 3727.83 362.575   6
   5 -11 -14 18777.2 918.949   6
   5 -11 -13 22070.6 1119.77   6
   5 -11 -12 719.664 279.475   6
   5 -11 -11 862.877 271.753   6
   5 -11 -10 1444.95 374.487   6
   5 -11 -10 2223.68 439.028   8
   5 -11 -10 2273.84 420.826  11
   5 -11  -9 5960.29 668.650   8
   5 -11  -9 5619.58 753.506   6
   5 -11  -9 5627.46 685.297  11
   5 -11  -8 6372.48 753.256   8
   5 -11  -8 5754.62 783.421   6
   5 -11  -8 5904.64 765.961  11
   5 -11  -7 6957.68 859.142   6
   5 -11  -7 7226.30 824.254   8
   5 -11  -7 6443.20 883.672  11
   5 -11  -6 13339.9 1182.48   8
   5 -11  -6 11979.5 1111.58   6
   5 -11  -6 11300.3 1174.36  11
   5 -11  -5 5072.18 820.597   8
   5 -11  -5 5738.52 779.273   6
   5 -11  -5 3767.58 720.897  11
   5 -11  -4 20184.5 1504.53   8
   5 -11  -4 23655.8 1502.80   6
   5 -11  -4 18884.9 1557.85  11
   5 -11  -3 8099.62 1008.74   8
   5 -11  -3 8717.87 916.850   6
   5 -11  -3 8556.64 1108.61  11
   5 -11  -2 6384.93 957.649   8
   5 -11  -2 4473.17 667.248   1
   5 -11  -2 6681.35 818.754   6
   5 -11  -2 7392.10 1003.58  11
   5 -11  -1 26459.8 1756.26   8
   5 -11  -1 22562.0 1354.85   1
   5 -11  -1 25789.8 1754.68  11
   5 -11   0 14705.9 1285.88   8
   5 -11   0 13528.8 1092.99   1
   5 -11   0 15310.6 1368.34  11
   5 -11   1 11832.7 1175.16   8
   5 -11   1 11399.2 1030.05   1
   5 -11   1 11188.2 1132.12  11
   5 -11   2 3552.84 690.121   8
   5 -11   2 2829.62 622.223   1
   5 -11   2 2279.75 520.233  11
   5 -11   3 1280.60 467.976   8
   5 -11   3 382.818 390.316   1
   5 -11   3 263.064 307.775  11
   5 -11   4 2913.65 621.859   8
   5 -11   4 1892.56 557.373   1
   5 -11   4 2485.21 543.046  11
   5 -11   5 2095.59 607.766   1
   5 -11   5 1266.18 387.150  11
   5 -11   6-661.336 548.616   1
   5 -11   6 229.437 225.033  11
   5 -11   7 1713.03 463.489  11
   5 -11   7-385.878 616.767   1
   5 -11   8 10783.0 1072.16   1
   5 -11   9 13763.0 1187.45   1
   5 -11  10 669.943 444.308   1
   5 -11  11 4217.44 574.663   1
   5 -11  12 2399.05 438.381   1
   5 -11  13 6659.94 590.428   1
   5 -11  14 6778.49 512.594   1
   5 -10 -16 18968.9 864.994   6
   5 -10 -15 24246.0 1122.53   6
   5 -10 -14 2930.17 497.035   6
   5 -10 -13 5735.64 701.403   6
   5 -10 -12 26465.7 1547.48   6
   5 -10 -11 4369.16 633.589   6
   5 -10 -10 2359.68 510.830   6
   5 -10 -10 2486.70 497.690   8
   5 -10 -10 1971.32 441.921  11
   5 -10  -9 33037.9 1897.42   6
   5 -10  -9 31885.8 1734.59  11
   5 -10  -9 32527.2 1627.58   8
   5 -10  -8 738.746 463.635   8
   5 -10  -8 470.546 342.038   6
   5 -10  -8 354.890 294.691  11
   5 -10  -7 10394.5 1078.96   8
   5 -10  -7 8376.79 953.677   6
   5 -10  -7 8327.97 1044.70  11
   5 -10  -6-325.761 417.574   6
   5 -10  -6 885.776 518.614   8
   5 -10  -6 1050.43 460.701  11
   5 -10  -5 1009.46 594.075   8
   5 -10  -5 625.445 376.783  11
   5 -10  -5 560.308 315.989   6
   5 -10  -4 414.417 366.053   6
   5 -10  -4-5.66053 509.957   8
   5 -10  -4 39.3936 346.512  11
   5 -10  -3 5734.81 826.742   8
   5 -10  -3 6379.36 805.237   6
   5 -10  -3 6775.53 981.237  11
   5 -10  -2 1979.24 554.732   6
   5 -10  -2 1674.12 567.179   8
   5 -10  -2 1671.66 500.259   1
   5 -10  -2 1939.34 591.717  11
   5 -10  -1 11392.6 1169.11   8
   5 -10  -1 11215.4 969.977   1
   5 -10  -1 11711.2 1094.84   6
   5 -10  -1 12119.6 1228.71  11
   5 -10   0 20272.8 1538.29  11
   5 -10   0 20092.4 1487.81   8
   5 -10   0 17968.8 1268.61   1
   5 -10   1 1945.30 576.747   8
   5 -10   1 1723.65 495.988   1
   5 -10   1 2553.40 642.189  11
   5 -10   2 47798.0 2223.60   1
   5 -10   2 46945.9 2153.28   8
   5 -10   2 47801.9 2274.02  11
   5 -10   3 7230.03 904.088   8
   5 -10   3 8079.51 1000.60   1
   5 -10   3 7273.15 912.404  11
   5 -10   4 48884.1 2172.58   8
   5 -10   4 55559.9 2529.29   1
   5 -10   4 49237.5 2247.49  11
   5 -10   5 46427.3 2056.59   8
   5 -10   5 49857.3 2431.24   1
   5 -10   5 46288.1 2151.55  11
   5 -10   6 38706.2 1847.40   8
   5 -10   6 36436.3 2117.71   1
   5 -10   7 1559.81 489.048   1
   5 -10   7 1965.79 464.876  11
   5 -10   8 40673.7 2131.11   1
   5 -10   8 34330.5 1712.30  11
   5 -10   9 10921.2 1121.83   1
   5 -10  10 73.9525 419.335   1
   5 -10  11 2494.62 514.362   1
   5 -10  12 864.223 388.969   1
   5 -10  13 1098.37 379.957   1
   5 -10  14 1835.33 376.544   1
   5 -10  15-606.972 247.376   1
   5  -9 -17 4581.46 456.675   6
   5  -9 -16 432.294 184.850  10
   5  -9 -16 455.111 239.573   6
   5  -9 -15 847.214 274.374  10
   5  -9 -15 1007.74 329.828   6
   5  -9 -14 9437.77 842.539  10
   5  -9 -14 11070.4 979.104   6
   5  -9 -13 10533.3 997.195   6
   5  -9 -12 3337.95 591.313   6
   5  -9 -11 12418.7 1181.83   6
   5  -9 -10 1586.82 452.304   8
   5  -9 -10 1742.94 432.452  11
   5  -9 -10 1431.62 506.306   6
   5  -9  -9 10957.1 1022.26   8
   5  -9  -9 10517.0 1151.25   6
   5  -9  -9 10230.5 1028.31  11
   5  -9  -8 103.275 379.304   8
   5  -9  -8 627.272 429.018  11
   5  -9  -7 35057.8 1885.89   8
   5  -9  -7 31955.4 1920.80   6
   5  -9  -7 32759.4 1985.14  11
   5  -9  -6 3989.46 770.098   8
   5  -9  -6 3079.08 599.325   6
   5  -9  -6 3836.57 735.132  11
   5  -9  -5 3736.99 766.309   8
   5  -9  -5 3696.52 677.528   6
   5  -9  -5 4158.88 766.241  11
   5  -9  -4 2952.31 572.090   6
   5  -9  -4 1852.83 405.667   8
   5  -9  -4 2104.74 610.362  11
   5  -9  -3 4569.12 747.290   8
   5  -9  -3 5239.20 743.338   6
   5  -9  -3 5291.34 887.983  11
   5  -9  -2 3008.29 563.282   6
   5  -9  -2 2067.67 599.375   8
   5  -9  -2 2020.79 418.042   1
   5  -9  -2 3271.86 676.111  11
   5  -9  -1 12206.4 1129.49   8
   5  -9  -1 13013.6 1050.68   1
   5  -9  -1 13473.0 1154.49   6
   5  -9  -1 14366.2 1336.44  11
   5  -9   0 259.162 346.621   8
   5  -9   0 420.596 367.899   1
   5  -9   0 250.940 264.331   6
   5  -9   0 467.926 381.106  11
   5  -9   1 90.6153 294.140  11
   5  -9   1-13.6709 371.463   8
   5  -9   1 3.46592 245.504   6
   5  -9   1-121.533 334.428   1
   5  -9   2 5349.33 743.198   8
   5  -9   2 5747.86 814.345   1
   5  -9   2 5987.13 826.005  11
   5  -9   3 18877.0 1320.54   8
   5  -9   3 19967.5 1510.79   1
   5  -9   3 15854.8 2573.06   3
   5  -9   3 19335.2 1444.55  11
   5  -9   4 7266.47 854.307   8
   5  -9   4 8148.67 1018.80   1
   5  -9   4 6491.60 823.851  11
   5  -9   5 12283.7 1070.08   8
   5  -9   5 11986.6 1215.68   1
   5  -9   5 11857.2 1078.67  11
   5  -9   6 21329.9 1390.13   8
   5  -9   6 19222.6 1572.75   1
   5  -9   6 18752.7 1383.09  11
   5  -9   7 13691.5 1163.28  11
   5  -9   7 15505.8 1189.77   8
   5  -9   7 11411.6 1237.34   1
   5  -9   8 30334.5 1663.42  11
   5  -9   8 33803.9 2045.69   1
   5  -9   9 19561.3 1542.93   1
   5  -9  10 7465.73 951.764   1
   5  -9  11 15179.0 1258.23   1
   5  -9  12 3917.77 644.632   1
   5  -9  12 1886.87 502.163   4
   5  -9  13 5472.82 778.007   4
   5  -9  13 8699.23 861.273   1
   5  -9  14 152.880 265.919   1
   5  -9  14 175.437 221.952   4
   5  -9  15 444.533 252.532   1
   5  -9  15 77.6920 214.869   4
   5  -9  16-379.502 233.447   4
   5  -9  17 5338.16 560.475   4
   5  -9  18 6939.29 494.067   4
   5  -8 -18 407.594 189.537  10
   5  -8 -18-75.6663 131.922   6
   5  -8 -17 999.456 303.294   6
   5  -8 -17 1438.53 337.560  10
   5  -8 -16 8835.90 827.069  10
   5  -8 -16 9942.52 862.722   6
   5  -8 -15 520.961 303.787   6
   5  -8 -15 491.577 345.051  10
   5  -8 -14 24081.2 1527.40   6
   5  -8 -13 5629.97 820.920   6
   5  -8 -12 700.646 312.087   6
   5  -8 -11 7572.05 977.350   6
   5  -8 -10 2142.25 524.320   8
   5  -8 -10 4020.41 793.110   6
   5  -8  -9 859.743 646.731   6
   5  -8  -9 80.0796 353.779   8
   5  -8  -9 538.330 413.686  11
   5  -8  -8 6161.57 788.478   8
   5  -8  -8 7532.99 975.420   6
   5  -8  -8 5807.52 850.467  11
   5  -8  -7 236.880 418.464   8
   5  -8  -7 847.438 441.964   6
   5  -8  -7 689.382 476.088  11
   5  -8  -6 5299.37 837.159   8
   5  -8  -6 6099.46 826.495   6
  -5   8   6 7718.86 2160.69  13
   5  -8  -6 4868.45 807.211  11
   5  -8  -5 12903.6 1197.85   8
   5  -8  -5 15313.5 1248.69   6
  -5   8   5 14953.5 2792.54  13
   5  -8  -5 13030.7 1279.99  11
   5  -8  -4 39.9979 240.205   6
   5  -8  -4 26.3651 356.473   8
   5  -8  -4 321.903 353.378  11
   5  -8  -3 26985.6 1727.36   8
  -5   8   3 30548.3 3896.90  13
   5  -8  -3 30014.1 1699.27   6
   5  -8  -3 30859.6 1916.30  11
   5  -8  -2 2905.76 682.983   8
   5  -8  -2 2933.29 538.104   6
   5  -8  -2 3555.75 719.209  11
   5  -8  -1 7795.39 899.589   8
   5  -8  -1 7954.41 876.392   6
   5  -8  -1 7172.14 766.192   1
   5  -8  -1 7227.71 941.912  11
   5  -8   0 3367.67 561.144   6
   5  -8   0 3683.03 646.979   8
   5  -8   0 3288.82 644.832  11
   5  -8   0 3470.47 577.867   1
   5  -8   1 1453.26 455.979   1
   5  -8   1 2256.66 579.691   8
   5  -8   1 2087.56 482.131   6
   5  -8   1 1125.36 436.321  11
   5  -8   2 10106.6 1915.69   3
   5  -8   2 9102.73 970.411   1
   5  -8   2 9147.30 923.844   8
   5  -8   2 10030.1 991.416   6
   5  -8   2 10719.3 1054.09  11
   5  -8   3 2697.70 575.240   1
   5  -8   3 3006.84 1159.78   3
   5  -8   3 2409.56 530.011   8
   5  -8   3 2602.11 591.738  11
   5  -8   4 11296.9 1129.81   1
   5  -8   4 10477.9 1960.20   3
   5  -8   4 10222.0 942.886   8
   5  -8   4 10773.1 1080.96  11
   5  -8   5 4242.19 1249.18   3
   5  -8   5 5052.59 707.166   8
   5  -8   5 5144.07 800.651   1
   5  -8   5 4184.65 722.354  11
   5  -8   6 13981.8 2438.78   3
   5  -8   6 14933.7 1152.60   8
   5  -8   6 15217.2 1335.26   1
   5  -8   6 16148.8 1265.57  11
   5  -8   7 3746.26 1249.69   3
   5  -8   7 2796.84 455.001   1
   5  -8   7 3704.05 617.699  11
   5  -8   8 16446.4 1441.16   1
   5  -8   8 15615.1 1201.07  11
   5  -8   9 2907.70 743.282   1
   5  -8  10 17466.4 1448.25   1
   5  -8  11 361.412 423.042   1
   5  -8  11 82.4551 299.526   4
   5  -8  12 367.309 331.888   1
   5  -8  12-310.996 353.028   4
   5  -8  13 472.090 358.866   1
   5  -8  13 0.41094 282.613   4
   5  -8  14 7232.77 793.589   1
   5  -8  14 5507.00 893.104   4
   5  -8  15 4676.67 603.769   1
   5  -8  15 3393.03 710.428   4
   5  -8  16-19.7631 255.470   4
   5  -8  16 477.227 269.871   1
   5  -8  17 11617.0 987.471   4
   5  -8  18 9387.77 787.969   4
   5  -8  19-90.4518 160.140   4
   5  -7 -19 18596.7 962.789  10
   5  -7 -19 18130.6 866.877   6
   5  -7 -18 2551.73 453.311  10
   5  -7 -18 2726.58 413.082   6
   5  -7 -17 14812.8 1097.07  10
   5  -7 -17 16070.2 1063.93   6
   5  -7 -16 2561.32 523.117   6
   5  -7 -15 1252.72 440.515   6
   5  -7 -14 11407.6 1143.77   6
   5  -7 -13 18050.2 1446.25   6
   5  -7 -12 5294.10 812.331   6
   5  -7 -11 1104.89 430.770   6
   5  -7 -10 27839.6 1520.82   8
   5  -7 -10 30915.7 1949.35   6
   5  -7  -9 14258.4 1121.54   8
   5  -7  -9 15257.1 1371.90   6
   5  -7  -8 165.211 398.399   8
   5  -7  -8 194.575 259.529   6
   5  -7  -8 262.337 305.346  11
   5  -7  -7 15612.8 1232.33   8
   5  -7  -7 15272.2 1305.69   6
  -5   7   7 16729.2 2978.97  13
   5  -7  -7 16789.9 1343.68  11
   5  -7  -6 5850.60 794.925   8
   5  -7  -6 5991.52 810.807   6
  -5   7   6 7590.19 1972.12  13
   5  -7  -6 6217.08 890.566  11
   5  -7  -5 10162.4 1051.82   8
   5  -7  -5 12011.4 1164.07   6
  -5   7   5 10930.1 2441.76  13
   5  -7  -5 11817.2 1167.72  11
  -5   7   4 38660.9 4401.21  13
   5  -7  -4 38631.2 1865.63   6
   5  -7  -4 34373.0 1934.87  11
   5  -7  -4 29941.6 1695.99   8
  -5   7   3 2285.86 950.914  13
  -5   7   2 26702.3 3532.77  13
  -5   7   1 13714.2 2608.86  13
   5  -7   1 1484.58 732.723   3
   5  -7   2 29687.9 3039.48   3
   5  -7   3 2298.22 890.966   3
   5  -7   4 6825.16 1514.02   3
   5  -7   5 391.963 383.961   3
   5  -7   5 584.993 394.868   1
   5  -7   6 12595.7 2147.22   3
   5  -7   6 11258.1 1856.07   2
   5  -7   6 11051.2 1204.93   1
   5  -7   6 11308.8 1039.09  11
   5  -7   7 485.359 584.668   2
   5  -7   7 1649.80 863.310   3
   5  -7   7 733.776 328.484   1
   5  -7   7 628.135 309.563  11
   5  -7   8-867.098 936.841   2
   5  -7   8 5.48622 357.274   3
   5  -7   8-601.132 586.653   1
   5  -7   8-669.331 402.522  11
   5  -7   9-54.2760 739.020   2
   5  -7   9-242.848 433.860   3
   5  -7   9-268.553 487.100   1
   5  -7  10 3547.30 723.658   4
   5  -7  10 6874.60 895.667   1
   5  -7  11 19270.7 1624.23   4
   5  -7  11 23599.9 1639.38   1
   5  -7  12-133.399 363.057   4
   5  -7  12 322.331 463.265   1
   5  -7  13 14112.4 1471.10   4
   5  -7  13 16880.2 1290.02   1
   5  -7  14 4501.54 708.795   1
   5  -7  14 4041.77 885.235   4
   5  -7  15 37001.1 1733.68   1
   5  -7  15 37845.2 2236.19   4
   5  -7  16 5397.35 619.543   1
   5  -7  16 5399.90 892.412   4
   5  -7  17 13219.4 1167.55   4
   5  -7  18 4719.09 694.573   4
   5  -7  19 261.455 226.168   4
   5  -7  20 236.974 164.658   4
   5  -6 -20 3332.00 428.343  10
   5  -6 -20 2884.61 334.878   6
   5  -6 -19 12305.0 896.963  10
   5  -6 -19 10461.3 730.625   6
   5  -6 -18 3875.82 605.795  10
   5  -6 -18 3457.49 489.920   6
   5  -6 -17 12837.5 1020.10   6
   5  -6 -16 7053.94 827.048   6
   5  -6 -15 5647.22 839.344   6
   5  -6 -14 4644.72 810.899   6
   5  -6 -13 18613.6 1492.80   6
   5  -6 -12-464.681 499.677   6
   5  -6 -11 4364.10 762.708   6
   5  -6 -10 1495.04 487.690   6
  -5   6  10 1053.95 843.929  13
   5  -6  -9 8327.62 863.080   8
   5  -6  -9 8218.84 1018.67   6
  -5   6   9 7186.59 2070.04  13
   5  -6  -8 1964.67 435.090   8
  -5   6   8 1482.40 859.868  13
   5  -6  -8 2481.92 573.989   6
   5  -6  -7 78.8851 283.660   6
  -5   6   7-745.001 1327.60  13
  -5   6   6 21195.2 3265.97  13
  -5   6   5 600.017 678.466  13
  -5   6   4 72313.2 5825.31  13
  -5   6   3 24122.8 2343.94  12
  -5   6   2 6834.66 1235.95  12
  -5   6   1 144556. 5744.87  12
  -5   6   0 12859.6 1719.01  12
   5  -6   1 22455.1 2436.71   3
  -5   6  -1 23373.9 2406.38  12
   5  -6   2 20520.2 2378.32   3
  -5   6  -2 21710.1 2361.75  12
   5  -6   3 9702.70 1659.44   3
  -5   6  -3 10652.7 1718.29  12
   5  -6   3 10311.4 1642.01   2
   5  -6   4 48387.4 3684.70   3
   5  -6   4 49006.6 3601.50   2
  -5   6  -4 48791.7 3674.06  12
   5  -6   5-45.9892 336.844   3
   5  -6   5 76.9873 349.861   2
   5  -6   6 15859.0 2187.92   3
   5  -6   6 14367.5 2044.76   2
   5  -6   7 1017.16 652.044   2
   5  -6   7 1637.16 680.035   3
   5  -6   8 318.281 390.885   1
   5  -6   8-394.305 652.833   2
   5  -6   8 19.5250 314.292   3
   5  -6   9 12992.6 2197.16   3
   5  -6   9 14326.0 2335.87   2
   5  -6   9 13464.2 1243.18   1
   5  -6  10 10765.9 2136.66   3
   5  -6  10 11503.9 2248.64   2
   5  -6  10 12602.6 1195.50   1
   5  -6  11 9815.83 1040.40   1
   5  -6  11 6068.54 1661.21   3
   5  -6  11 12120.9 2442.43   2
   5  -6  12 4560.12 758.325   1
   5  -6  13 20707.4 1434.54   1
   5  -6  14 2119.37 536.145   1
   5  -6  15 6854.06 797.984   1
   5  -6  16 42595.1 1795.88   1
   5  -6  17 2413.72 642.615   4
   5  -6  18 1908.93 555.057   4
   5  -6  19 890.113 359.495   4
   5  -6  20 10423.9 878.214   4
   5  -6  21 495.776 204.711   4
   5  -5 -21 4602.62 450.261  10
   5  -5 -20 105.803 206.842  10
   5  -5 -20-123.658 128.125   6
   5  -5 -19 3092.16 532.251  10
   5  -5 -19 2594.46 407.644   6
   5  -5 -18 2243.85 507.776   6
   5  -5 -17 3558.57 605.995   6
   5  -5 -16 1166.41 455.280   6
   5  -5 -15 20027.5 1503.56   6
   5  -5 -14 6270.44 901.883   6
   5  -5 -13 11193.3 1215.33   6
   5  -5 -12 8995.20 1030.01   6
  -5   5  11 11638.6 2606.54  13
   5  -5 -11 9424.31 1077.60   6
   5  -5 -10 5564.71 818.859   6
  -5   5  10 5264.29 1786.93  13
  -5   5   9 12274.0 2201.25  12
   5  -5  -9 11424.6 1130.59   6
  -5   5   9 11213.7 2405.13  13
  -5   5   8 8611.95 2039.73  13
  -5   5   8 12068.3 2092.61  12
  -5   5   7 883.363 673.098  12
  -5   5   7 1062.42 757.246  13
  -5   5   6-14.4147 372.460  12
  -5   5   5 821.764 436.395  12
  -5   5   4 42277.3 3127.07  12
  -5   5   3 33136.0 2704.41  12
  -5   5   2 2338.26 753.078  12
  -5   5   1 24108.4 2301.24  12
  -5   5   0 28094.0 2535.28  12
   5  -5   1 34470.7 2717.45   3
  -5   5  -1 37340.0 2985.70  12
   5  -5   2 32784.0 2693.93   3
  -5   5  -2 34844.8 2931.28  12
   5  -5   2 38164.7 2982.12   2
   5  -5   3 1535.37 704.223   2
  -5   5  -3 1214.68 552.668  12
   5  -5   3 1638.26 666.401   3
   5  -5   4 19507.5 2139.85   3
   5  -5   4 20550.0 2218.79   2
   5  -5   5 5514.05 1184.26   3
   5  -5   5 6452.01 1278.04   2
   5  -5   6 2205.38 820.567   2
   5  -5   6 1913.04 721.484   3
   5  -5   7 6284.47 1360.84   3
   5  -5   7 7046.59 1411.06   2
   5  -5   8 20437.8 2526.00   3
   5  -5   8 21928.6 2711.04   2
   5  -5   9 5470.82 1458.19   2
   5  -5   9 2781.25 1065.55   3
   5  -5  10 34680.6 1875.59   1
   5  -5  10 27927.4 3256.10   3
   5  -5  10 31304.7 3655.87   2
   5  -5  11 36952.4 3877.80   3
   5  -5  11 45991.5 2143.98   1
   5  -5  11 41277.9 4409.00   2
   5  -5  12 20190.4 2975.04   3
   5  -5  12 21082.2 3249.10   2
   5  -5  12 26153.2 1584.01   1
   5  -5  13 62584.0 2397.01   1
   5  -5  14 1676.07 464.214   7
   5  -5  14 2048.22 500.142   1
   5  -5  15-25.0728 363.447   7
   5  -5  15-33.8339 322.016   1
   5  -5  16 44.9288 306.020   7
   5  -5  17 27227.5 1482.91   7
   5  -5  18 5302.77 662.339   7
   5  -5  20 21565.6 1375.31   4
   5  -5  21 705.275 275.147   4
   5  -5  22 7311.81 682.054   4
   5  -4 -21 2043.77 348.652  10
   5  -4 -21 1458.44 214.827   6
   5  -4 -20 467.020 254.047  10
   5  -4 -20 46.5154 145.763   6
   5  -4 -19 622.339 356.847  10
   5  -4 -19 556.524 238.110   6
   5  -4 -18 1.06150 222.945   6
   5  -4 -17 5503.47 753.769   6
   5  -4 -16 1400.94 443.151   6
   5  -4 -15 7011.02 936.026   6
   5  -4 -14 4546.44 786.464   6
   5  -4 -13 1304.28 390.207   6
  -5   4  12 1564.14 1267.17  13
   5  -4 -12 122.059 398.395   6
  -5   4  12 1051.78 1087.32  12
  -5   4  11 4163.25 1624.38  13
   5  -4 -11 3294.40 685.820   6
  -5   4  11 3412.25 1379.49  12
  -5   4  10 2192.01 1031.73  13
   5  -4 -10 3525.19 712.891   6
  -5   4  10 4157.49 1346.88  12
  -5   4   9 813.387 740.613  13
  -5   4   9 1117.11 693.886  12
  -5   4   8 5335.34 1403.39  12
  -5   4   7 695.574 620.954  12
  -5   4   6 61747.4 4013.10  12
  -5   4   5 7666.87 1439.73  12
  -5   4   4 62936.6 3722.61  12
  -5   4   3 10585.2 1479.79  12
  -5   4   2 1451.19 590.033  12
  -5   4   1 95.6022 289.439  12
  -5   4   0 2997.54 859.492  12
  -5   4  -1 5364.58 1086.02  12
   5  -4   1 4696.21 910.446   3
   5  -4   2 1242.19 555.348   3
   5  -4   2 2119.97 708.810   2
  -5   4  -2 1385.33 541.420  12
   5  -4   3 6156.24 1089.79   3
   5  -4   3 6443.40 1243.92   2
   5  -4   4 18465.0 1872.53   3
   5  -4   4 18923.9 2082.05   2
   5  -4   5 10631.4 1478.57   3
   5  -4   5 10253.0 1592.64   2
   5  -4   6 55397.2 3740.25   2
   5  -4   6 55428.0 3483.21   3
   5  -4   7-247.220 376.577   2
   5  -4   7 363.509 377.563   3
   5  -4   8 35739.3 3085.57   3
   5  -4   8 40325.0 3559.24   2
   5  -4   9 4906.61 1403.17   2
   5  -4   9 3251.33 1050.47   3
   5  -4  10 8128.55 1695.53   3
   5  -4  10 9308.24 1979.17   2
   5  -4  11 15468.0 2659.58   2
   5  -4  12 64.8521 533.642   2
   5  -4  12 413.867 350.506   9
   5  -4  12 616.418 433.932   1
   5  -4  13 6879.69 891.367   1
   5  -4  13 4150.00 1496.05   2
   5  -4  13 5988.30 777.809   7
   5  -4  14-95.8683 286.594   7
   5  -4  14-169.724 282.298   1
   5  -4  15 177.387 311.273   1
   5  -4  15-62.0171 313.828   7
   5  -4  16 534.067 321.501   7
   5  -4  17 7994.90 858.495   7
   5  -4  18 12895.0 1013.15   7
  -5   4 -18 9325.97 985.522   5
  -5   4 -19 80.7029 192.240   5
   5  -4  19 181.334 272.629   7
  -5   4 -20 11419.1 942.140   5
   5  -4  20 14413.3 979.817   7
   5  -4  22 3713.56 532.667   4
   5  -4  23 649.722 216.586   4
   5  -3 -21 99.0018 105.662   6
   5  -3 -21 270.122 190.040  10
   5  -3 -20 3140.82 529.368  10
   5  -3 -20 2620.03 385.015   6
   5  -3 -19 2866.41 583.903  10
   5  -3 -19 2894.42 471.453   6
   5  -3 -18 752.531 352.613   6
   5  -3 -17 936.137 383.920   6
   5  -3 -16 438.331 269.150   6
   5  -3 -15 17483.2 1445.81   6
   5  -3 -14 10700.8 1147.71   6
  -5   3  13 3490.75 1411.57  13
   5  -3 -13 4950.33 813.992   6
  -5   3  13 5918.89 1925.23  12
  -5   3  12 21675.0 3420.26  13
   5  -3 -12 18743.1 1527.17   6
  -5   3  12 19735.0 3367.43  12
  -5   3  11 4508.74 1624.61  13
   5  -3 -11 4379.02 763.915   6
  -5   3  11 4135.53 1464.69  12
  -5   3  10 8115.47 2029.31  13
  -5   3  10 11872.0 2328.21  12
  -5   3   9 701.555 697.935  12
  -5   3   8 29088.3 3114.22  12
  -5   3   7 15838.1 2154.41  12
  -5   3   6 100031. 5008.78  12
  -5   3   5 41491.9 3043.14  12
  -5   3   4 7168.40 1256.62  12
  -5   3   3 8038.51 1277.30  12
  -5   3   2 9133.21 1390.69  12
  -5   3   1 10818.2 1470.46  12
  -5   3   0 22919.8 2128.81  12
   5  -3   1 40568.2 2815.80   2
   5  -3   1 39240.6 2292.32   3
  -5   3  -1 40224.8 2905.04  12
   5  -3   2 848.911 483.220   2
   5  -3   2 230.519 222.299   3
   5  -3   3 593.414 432.175   2
   5  -3   3-114.005 254.000   3
   5  -3   4-372.021 397.358   2
   5  -3   4 233.288 283.228   3
   5  -3   5 345.221 338.967   2
   5  -3   5 439.413 366.998   3
   5  -3   6 14093.4 1804.45   2
   5  -3   6 12181.2 1514.10   3
   5  -3   7 15651.0 1801.58   3
   5  -3   7 16537.4 2060.37   2
   5  -3   8 5476.42 1276.53   2
   5  -3   9 41546.5 3719.21   2
   5  -3  10 13372.1 2237.76   2
   5  -3  11 518.549 667.143   2
   5  -3  12 6255.60 1780.03   2
   5  -3  13 7238.34 984.075   9
   5  -3  13 5234.53 1530.72   2
   5  -3  13 7431.94 842.943   7
   5  -3  13 8512.37 862.168   1
   5  -3  14 557.092 393.409   9
   5  -3  14-152.804 643.939   2
   5  -3  14 941.186 405.199   7
   5  -3  14 986.067 354.167   1
   5  -3  15 35196.6 1741.41   7
   5  -3  16 1552.81 467.492   7
   5  -3  17 12500.4 1037.83   7
   5  -3  18 2968.27 496.034   7
   5  -3  19 2013.93 457.072   7
  -5   3 -20 1094.95 398.908   5
   5  -3  20 355.689 292.493   7
  -5   3 -21 659.732 310.706   5
   5  -3  21 722.211 298.473   7
  -5   3 -22 983.560 277.960   5
   5  -3  22 770.211 257.049   7
   5  -3  23 228.838 173.217   4
   5  -2 -21 4032.23 505.555  10
   5  -2 -20 930.134 352.700  10
   5  -2 -20 881.675 249.528   6
   5  -2 -19 7875.17 873.558  10
   5  -2 -19 6972.12 701.022   6
   5  -2 -19 6140.53 647.016   5
   5  -2 -18 24.1806 188.747   5
   5  -2 -18 502.712 283.991   6
   5  -2 -17 23382.8 1488.09   6
   5  -2 -17 23264.0 1460.75   5
   5  -2 -16 31020.5 1764.01   5
   5  -2 -16 30736.1 1804.07   6
   5  -2 -15 361.678 372.372   6
   5  -2 -15 216.434 326.640   5
   5  -2 -14 6073.59 875.491   5
   5  -2 -14 5111.39 810.067   6
  -5   2  13 4528.18 1631.00  13
   5  -2 -13 5426.62 869.070   6
  -5   2  13 6056.32 1965.10  12
   5  -2 -12 1594.81 462.270   6
  -5   2  12 651.114 535.176  12
  -5   2  11 140.552 717.347  13
  -5   2  11 716.701 907.303  12
  -5   2  10 36408.0 3958.36  12
  -5   2  10 29298.7 3692.43  13
  -5   2   9 8086.53 1803.02  12
  -5   2   8 59141.0 4389.47  12
  -5   2   7 671.151 611.386  12
  -5   2   6 2512.01 948.952  12
  -5   2   5 35467.1 2835.07  12
  -5   2   4 100224. 4491.02  12
  -5   2   3 33866.2 2547.51  12
  -5   2   2 76150.7 3719.22  12
  -5   2   1 124902. 4749.49  12
  -5   2   0 42967.7 2822.91  12
   5  -2   1 90279.2 4059.95   2
  -5   2  -1 91672.5 4166.73  12
   5  -2   2 4251.67 644.832   3
   5  -2   2 5991.29 1043.42   2
   5  -2   3 102081. 3241.21   3
   5  -2   3 105365. 4389.90   2
   5  -2   4 3769.09 662.600   3
   5  -2   4 4019.95 881.363   2
   5  -2   5 12699.6 1306.66   3
   5  -2   5 13341.9 1670.55   2
   5  -2   6 318.143 471.942   2
   5  -2   6 129.366 171.918   3
   5  -2   7 4109.76 990.175   2
   5  -2   8 22805.9 2492.47   2
   5  -2   9 11157.2 1891.19   2
   5  -2  10 46989.6 4076.07   2
   5  -2  11 3729.93 1192.31   2
   5  -2  12 71.3415 616.586   2
   5  -2  13 77163.7 3101.61   9
   5  -2  13 62328.1 5436.14   2
   5  -2  14 950.030 807.042   2
   5  -2  14 372.579 373.602   9
   5  -2  14 762.350 417.044   7
   5  -2  15 36532.3 2234.82   9
   5  -2  15 34971.6 1683.16   7
   5  -2  15 36103.2 4325.91   2
   5  -2  16 26662.5 1496.39   7
   5  -2  17 3414.09 620.838   7
   5  -2  18 31788.0 1642.28   7
   5  -2  19 275.927 417.403   7
   5  -2  20 272.655 299.852   7
  -5   2 -21 185.250 316.512   5
   5  -2  21-417.138 343.585   7
  -5   2 -22 1588.05 414.658   5
   5  -2  22 2239.80 394.023   7
  -5   2 -23-24.7092 175.515   5
   5  -2  23 89.1057 203.138   7
   5  -2  24 637.485 186.330   4
   5  -1 -21 633.588 252.938  10
   5  -1 -21 153.527 133.306   5
   5  -1 -20 3654.40 564.807  10
   5  -1 -20 2418.56 423.123   5
   5  -1 -19 467.240 279.557  10
   5  -1 -19 761.909 270.190   6
   5  -1 -19 890.222 330.423   5
   5  -1 -18 29188.8 1760.36  10
   5  -1 -18 27731.4 1467.67   6
   5  -1 -18 28366.5 1587.85   5
   5  -1 -17 118.538 227.150   6
   5  -1 -17-37.9963 243.155   5
   5  -1 -16 31213.1 1902.40   5
   5  -1 -16 31259.9 1768.70   6
   5  -1 -15 6698.18 998.206   5
   5  -1 -15 7339.46 922.872   6
   5  -1 -14 31259.0 1899.04   6
   5  -1 -14 33293.0 2108.63   5
   5  -1 -13 62371.9 2728.89   5
  -5   1  13 54814.3 5138.08  13
   5  -1 -13 51929.1 2436.73   6
  -5   1  13 56665.1 5669.09  12
   5  -1 -12 613.623 254.689   5
  -5   1  12 236.737 521.813  13
  -5   1  12 398.331 641.961  12
   5  -1 -12 640.089 365.590   6
  -5   1  11 28116.2 3601.74  13
  -5   1  11 23505.3 3390.10  12
  -5   1  10 14687.0 2560.01  12
  -5   1   9 644.302 636.043  12
  -5   1   8 1202.06 831.913  12
  -5   1   7 569.078 655.315  12
  -5   1   6 6619.59 1318.31  12
  -5   1   5 22531.1 2211.84  12
  -5   1   4 57320.5 3322.22  12
  -5   1   3 16634.3 1761.34  12
  -5   1   2 82902.6 3811.55  12
  -5   1   1 30677.2 2308.49  12
  -5   1   0 35370.3 2468.00  12
   5  -1   1 10656.9 1335.13   2
  -5   1  -1 9683.50 1333.29  12
   5  -1   2 35076.3 2444.82   2
   5  -1   2 33790.4 1401.97   3
   5  -1   3 326.723 361.757   2
   5  -1   3 196.115 136.327   3
   5  -1   4 19783.9 1251.57   3
   5  -1   4 20562.1 1951.75   2
   5  -1   5 18521.2 1888.76   2
   5  -1   5 16329.5 1283.51   3
   5  -1   6 27739.3 2383.64   2
   5  -1   7 23353.0 2316.02   2
   5  -1   8 35606.0 3018.77   2
   5  -1   9 5238.72 1369.88   2
   5  -1  10 39435.6 3656.95   2
   5  -1  11 450.539 608.908   2
   5  -1  12 2245.98 1006.68   2
   5  -1  13 8544.18 2022.92   2
   5  -1  14 9384.60 1176.48   9
   5  -1  14 8212.92 2022.86   2
   5  -1  14 9511.11 889.773   7
   5  -1  15 6070.54 1810.87   2
   5  -1  15 4887.43 916.123   9
   5  -1  15 4182.81 664.108   7
   5  -1  16 11449.3 1020.56   7
   5  -1  17 41750.6 1884.89   7
   5  -1  18 1255.42 465.450   7
   5  -1  19 33409.9 1698.56   7
   5  -1  20 1007.10 400.887   7
   5  -1  21 8616.37 813.732   7
  -5   1 -22 1050.83 372.257   5
   5  -1  22 464.564 266.239   7
  -5   1 -23 1832.01 370.825   5
   5  -1  23 2344.70 401.476   7
  -5   1 -24 2932.40 379.855   5
   5  -1  24 3160.18 369.362   7
   5   0 -21 222.935 177.897  10
   5   0 -21 120.728 159.130   5
   5   0 -20 8126.68 777.763  10
   5   0 -20 7280.38 752.460   5
   5   0 -19 1193.99 411.108  10
   5   0 -19 926.415 359.141   5
   5   0 -18 346.578 315.240  10
   5   0 -18 177.789 323.995   5
   5   0 -17 2418.33 621.452  10
   5   0 -17 1213.61 457.955   5
   5   0 -16 3159.48 714.086   5
   5   0 -15 19046.1 1593.74   5
   5   0 -14 2356.83 704.687   5
   5   0 -13 7302.10 1029.69   5
  -5   0  13 6721.56 2089.46  12
   5   0 -12 22657.0 1714.07   5
  -5   0  12 18481.2 2921.73  13
  -5   0  12 23828.6 3661.72  12
  -5   0  11 1681.02 746.462  13
  -5   0  11 1819.49 1064.99  12
  -5   0  10 18361.1 2875.69  12
  -5   0   9 4383.26 1355.89  12
  -5   0   8 3369.48 1176.71  12
  -5   0   7 20068.0 2423.90  12
  -5   0   6 15859.5 1975.53  12
  -5   0   5 24629.0 2283.52  12
  -5   0   4 79041.5 3885.08  12
  -5   0   3 2138.41 645.593  12
  -5   0   2 12683.4 1454.69  12
  -5   0   1 19549.7 1789.02  12
  -5   0   0 9158.28 1246.51  12
  -5   0  -1 19194.0 1776.79  12
   5   0   2 42795.7 2579.21   2
   5   0   3 7133.23 1077.04   2
   5   0   4 10688.8 689.648   3
   5   0   4 15144.3 1617.17   2
   5   0   5 41246.6 2685.67   2
   5   0   5 41848.6 2542.84  13
   5   0   6 31403.0 2253.48  13
   5   0   6 31274.2 2387.63   2
   5   0   7 82805.6 3812.89  13
   5   0   7 76065.1 3993.80   2
   5   0   8 122674. 4803.79  13
   5   0   8 124260. 5433.05   2
   5   0   9 250.258 448.429   2
   5   0   9 233.690 324.672  13
   5   0  10 24411.7 2778.92   2
   5   0  10 19444.7 2051.43  13
   5   0  11 3456.85 1157.23   2
   5   0  11 2842.97 837.598  13
   5   0  12-301.674 694.324   2
   5   0  13-1060.04 918.194   2
   5   0  14 526.381 533.998   2
   5   0  14 813.720 456.625   9
   5   0  14 1169.51 395.943   7
   5   0  15 3630.73 1338.98   2
   5   0  15 4706.16 913.573   9
   5   0  15 4226.83 636.365   7
   5   0  16 384.004 523.051   9
   5   0  16-1000.95 807.754   2
   5   0  16 209.971 340.601   7
   5   0  17 1106.60 418.695   7
   5   0  18 1258.06 492.811   7
   5   0  19 2056.03 549.268   7
   5   0  20 152.875 353.053   7
   5   0  21-195.206 301.833   7
  -5   0 -22 13212.2 1115.61   5
   5   0  22 15205.1 999.104   7
  -5   0 -23 3127.25 504.923   5
   5   0  23 3113.88 479.455   7
  -5   0 -24 4761.97 526.819   5
   5   0  24 5171.68 477.232   7
   5   1 -22 7866.88 545.519   5
   5   1 -21 263.564 162.489   5
   5   1 -20 14531.0 1029.64   5
   5   1 -19 192.097 250.236   5
   5   1 -19 243.654 270.726  10
   5   1 -18 12667.5 1126.32  10
   5   1 -18 11710.5 1155.87   5
   5   1 -17 7015.92 953.269   5
   5   1 -17 8374.67 996.721  10
   5   1 -16 3364.97 693.928  10
   5   1 -16 4008.79 780.245   5
   5   1 -15 6702.50 980.485   5
   5   1 -14 2048.35 683.669   5
   5   1 -13 15959.5 1476.40   5
  -5  -1  13 17405.9 3153.89  12
   5   1 -12 55.0591 295.800   5
  -5  -1  12-38.3081 766.724  12
  -5  -1  11 71279.4 5965.15  12
  -5  -1  10 31821.1 3777.61  12
  -5  -1   9 40251.4 3917.84  12
  -5  -1   8 56338.7 4290.07  12
  -5  -1   7 41086.1 3380.46  12
  -5  -1   6 183639. 6648.54  12
  -5  -1   5 954.894 540.973  12
  -5  -1   4 39345.9 2721.18  12
  -5  -1   3 41467.8 2667.09  12
  -5  -1   2 15461.2 1598.45  12
  -5  -1   1 4558.94 845.257  12
  -5  -1   0 16372.7 1607.18  12
  -5  -1  -1 2580.69 693.441  12
   5   1   2 7155.67 1047.54   2
   5   1   3 43171.4 2559.29  13
   5   1   3 44382.1 2573.33   2
   5   1   4 30412.1 2164.78   2
   5   1   4 30780.0 2191.31  13
   5   1   5 744.171 423.350  13
   5   1   5 773.867 454.031   2
   5   1   6 50381.4 2949.05   2
   5   1   6 54135.9 3093.43  13
   5   1   7 35437.8 2587.66   2
   5   1   7 36458.7 2656.88  13
   5   1   8 68020.5 3825.20   2
   5   1   8 67702.1 3839.90  13
   5   1   9 43159.4 3284.02   2
   5   1   9 38092.8 2980.42  13
   5   1  10 4538.03 1184.83   2
   5   1  10 3664.59 1011.53  13
   5   1  11 1629.83 863.772   2
   5   1  11 602.797 417.911  13
   5   1  12 6025.47 1523.78   2
   5   1  12 6929.28 1398.69  13
   5   1  13 12269.4 2255.70   2
   5   1  14 16903.6 1548.13   9
   5   1  14 16243.6 1171.27   7
   5   1  14 13548.4 2444.46   2
   5   1  15 3554.32 1365.57   2
   5   1  15 3367.74 623.070   7
   5   1  15 3800.94 855.901   9
   5   1  16 16027.1 1552.49   9
   5   1  16 16627.3 1233.80   7
   5   1  16 16433.6 2826.34   2
   5   1  17-248.833 354.640   7
   5   1  18 4778.49 738.226   7
   5   1  19 2146.34 637.782   7
   5   1  20 1033.11 439.575   7
   5   1  21 57.8381 335.454   7
   5   1  22 887.996 337.214   7
   5   1  23 11822.0 855.055   7
  -5  -1 -23 12066.7 1026.53   5
  -5  -1 -24 786.884 273.022   5
   5   1  24 898.864 282.016   7
   5   2 -22 10812.8 662.357   5
   5   2 -21 827.578 261.094   5
   5   2 -20 14594.8 1045.90   5
   5   2 -19 13.3849 286.709   5
   5   2 -18 6537.44 881.449   5
   5   2 -17 653.477 411.612   5
   5   2 -17 575.008 323.788  10
   5   2 -16 6141.05 954.420   5
   5   2 -16 7237.94 933.015  10
   5   2 -15 6645.41 998.685   5
   5   2 -15 7062.79 944.386  10
   5   2 -14 11421.0 1192.37  10
   5   2 -14 11558.4 1346.06   5
   5   2 -13 32198.7 2120.35   5
  -5  -2  13 30944.0 4272.14   2
  -5  -2  13 32106.0 4204.65  12
   5   2 -12 67.6774 299.046   5
  -5  -2  12 65.7271 586.391  12
  -5  -2  11 21747.9 3338.53  12
  -5  -2  10 21065.5 3162.64  12
  -5  -2   9 163.683 675.444  12
  -5  -2   8 8563.05 1741.07  12
  -5  -2   7 4334.47 1197.92  12
  -5  -2   6 5704.48 1237.79  12
  -5  -2   5 13371.5 1704.98  12
  -5  -2   4 6864.33 1134.99  12
  -5  -2   3 1933.62 680.048  12
  -5  -2   2 81947.7 3558.96  12
  -5  -2   1 6746.69 1028.82  12
  -5  -2   0 38481.0 2365.52  12
   5   2   1 20879.4 1824.58  13
  -5  -2  -1 22145.7 1790.68  12
   5   2   2 19217.2 1759.95  13
  -5  -2  -2 19739.0 1707.25  12
   5   2   3 45717.1 2705.33  13
   5   2   3 48832.2 2610.45   2
   5   2   4 3305.94 793.805  13
   5   2   4 4194.36 783.737   2
   5   2   5 14950.3 1673.22  13
   5   2   5 13952.2 1443.21   2
   5   2   6 5226.33 1041.66  13
   5   2   6 5907.05 1007.58   2
   5   2   7 42108.9 2745.17   2
   5   2   7 46596.7 3137.74  13
   5   2   8 13724.6 1677.15   2
   5   2   8 13310.8 1815.83  13
   5   2   9 661.017 503.817   2
   5   2   9 184.295 310.271  13
   5   2  10 39405.3 3282.12   2
   5   2  10 29396.7 2841.65  13
   5   2  11 4763.76 1236.63   2
   5   2  11 4662.62 1198.32  13
   5   2  12 16957.6 2423.17   2
   5   2  12 17530.9 2313.64  13
   5   2  13-525.741 901.513   2
   5   2  13 387.035 504.930  13
   5   2  14 6612.60 984.978   9
   5   2  14 5501.03 1625.74   2
   5   2  14 5986.91 777.130   7
   5   2  15 1116.16 892.442   2
   5   2  15 1894.53 612.336   9
   5   2  15 1801.56 526.365   7
   5   2  16 551.234 503.490   9
   5   2  16 1088.20 836.698   2
   5   2  16 618.829 377.045   7
   5   2  17 14787.9 1211.50   7
   5   2  18 194.550 342.878   7
   5   2  19-146.312 358.139   7
   5   2  20 12915.2 1105.10   7
   5   2  21 18400.7 1212.57   7
   5   2  22 2110.59 489.346   7
  -5  -2 -23 6420.30 719.357   5
   5   2  23 7615.19 668.356   7
  -5  -2 -24 51.8222 170.906   5
   5   2  24-167.274 217.459   7
  -5  -2 -24-0.16206 152.725   6
   5   3 -22 3028.09 365.289   5
   5   3 -21 1402.08 329.167   5
   5   3 -20-176.034 243.752   5
   5   3 -19-170.215 268.702   5
   5   3 -18 1836.65 548.871   5
   5   3 -17 2081.18 579.697   5
   5   3 -16 27930.6 1898.29   5
   5   3 -15 3698.36 862.550   5
   5   3 -14 80292.8 3375.79   5
   5   3 -13 6085.99 1011.02   5
  -5  -3  13 5917.34 1869.42   2
  -5  -3  13 6049.10 1786.33  12
   5   3 -12 14961.6 1472.63   5
  -5  -3  12 15318.5 2830.40  12
   5   3 -11 18416.4 1560.00   5
  -5  -3  11 20650.3 3189.00  12
  -5  -3  10 8363.35 2002.03  12
  -5  -3   9 139.752 683.910  12
  -5  -3   8 4110.39 1273.78  12
  -5  -3   7 384.254 475.478  12
  -5  -3   6 1093.66 637.586  12
  -5  -3   5 19004.1 2046.05  12
  -5  -3   4 1599.29 600.171  12
  -5  -3   3 29889.4 2216.56  12
  -5  -3   2 56772.4 2935.59  12
  -5  -3   1 540.687 195.549   3
  -5  -3   1 598.583 431.205  12
  -5  -3   0 7472.34 1017.45  12
   5   3   0 7008.49 1104.60  13
   5   3   1 66669.3 3321.59  13
  -5  -3  -1 65909.0 3002.09  12
  -5  -3  -2 4810.87 830.046  12
   5   3   2 5581.57 988.419  13
   5   3   3 133066. 4786.04  13
  -5  -3  -3 131575. 4298.54  12
   5   3   4 35701.0 2183.75   2
   5   3   4 32936.3 2476.05  13
   5   3   5 1430.86 572.998  13
   5   3   5 1745.45 532.399   2
   5   3   6 89606.8 4342.08  13
   5   3   6 84552.5 3558.38   2
   5   3   7 18786.5 1769.43   2
   5   3   7 21876.5 2270.19  13
   5   3   8 7547.69 1187.83   2
   5   3   8 8167.79 1511.07  13
   5   3   9 2759.23 870.004   2
   5   3   9 1630.74 727.391  13
   5   3  10 311.458 392.510   2
   5   3  10 91.5079 412.903  13
   5   3  11-23.8616 451.283   2
   5   3  11-321.034 688.272  13
   5   3  12 1516.08 842.803   2
   5   3  12 1507.12 722.877  13
   5   3  13 100.108 380.903   2
   5   3  13 34.7876 487.930  13
   5   3  14 4005.16 1288.27  13
   5   3  14 3830.31 1254.82   2
   5   3  14 4255.25 823.068   9
   5   3  14 4525.63 703.181   7
   5   3  15 2095.66 640.060   9
   5   3  15 2548.21 557.618   7
   5   3  16 11356.2 1347.26   9
   5   3  16 12543.7 1146.76   7
   5   3  17 1364.49 488.433   7
   5   3  18 20679.8 1423.67   7
   5   3  19 13928.8 1149.33   7
   5   3  20 5407.68 745.499   7
   5   3  21 22961.6 1330.35   7
   5   3  22 421.185 319.059   7
  -5  -3 -23 9918.15 854.624   5
   5   3  23 11516.8 780.985   7
  -5  -3 -24 93.1197 168.122   5
   5   3  24 146.066 168.648   7
  -5  -3 -24 141.505 142.130   6
   5   4 -21-223.106 198.298   5
   5   4 -20 8117.27 782.759   5
   5   4 -19 82.4075 300.339   5
   5   4 -18 5136.31 866.084   5
   5   4 -17 966.921 444.817   5
   5   4 -16 16531.6 1539.14   5
   5   4 -15 16203.3 1576.70   5
   5   4 -14 7697.74 1143.06   5
  -5  -4  13 10052.0 2421.30   2
   5   4 -13 13169.3 1475.44   5
   5   4 -12 8.39697 322.814   5
  -5  -4  12 452.927 655.411   2
  -5  -4  12 907.249 846.771  12
   5   4 -11 6191.83 888.244   5
  -5  -4  11 8004.26 1976.64  12
  -5  -4  10 1297.01 980.328  12
  -5  -4   9 105.798 588.890  12
  -5  -4   8 1436.36 804.557  12
  -5  -4   7 5899.70 1398.08  12
  -5  -4   6 15869.6 2085.79  12
  -5  -4   5 2273.01 795.328  12
  -5  -4   4 49065.3 3089.94  12
  -5  -4   3 20536.8 1875.96  12
  -5  -4   2 14875.8 1285.24   3
  -5  -4   2 15753.3 1527.11  12
  -5  -4   1 9973.77 957.314   3
  -5  -4   1 10869.0 1215.97  12
  -5  -4   0 1267.12 302.861   3
   5   4   0 1405.72 580.836  13
  -5  -4   0 1357.05 417.725  12
   5   4   1 328.629 309.728  13
  -5  -4  -1 485.652 300.304  12
   5   4   2 174837. 5616.54  13
  -5  -4  -2 173426. 4587.55  12
   5   4   3 3757.12 859.101  13
  -5  -4  -3 4142.94 725.552  12
  -5  -4  -4 143124. 4364.56  12
   5   4   4 149399. 5418.22  13
   5   4   5 106548. 4756.42  13
   5   4   5 108157. 3683.41   2
   5   4   6 56405.1 2742.04   2
   5   4   6 60782.9 3753.97  13
   5   4   7 103105. 3906.16   2
   5   4   7 107375. 5261.43  13
   5   4   8 28.1987 273.446   2
   5   4   8 95.4649 536.253  13
   5   4   9 17010.2 2283.67  13
   5   4   9 18816.3 1905.78   2
   5   4  10 397.755 482.863   2
   5   4  10 214.228 543.630  13
   5   4  11 141.303 391.416  13
   5   4  12 252.726 513.012  13
   5   4  13 169.006 525.422  13
   5   4  14 827.841 443.810   9
   5   4  14 38.6121 334.244   7
   5   4  14 397.879 544.533  13
   5   4  15 20426.6 1765.59   9
   5   4  15 25186.3 1583.15   7
   5   4  15 25010.8 3044.77  13
   5   4  16 18388.8 1374.34   7
   5   4  17 630.656 427.898   7
   5   4  18 21420.2 1446.92   7
   5   4  19 16091.1 1218.60   7
   5   4  20 67.1787 360.846   7
   5   4  21 7830.77 778.980   7
   5   4  22 1436.64 371.475   7
  -5  -4 -23 1181.60 295.291   6
  -5  -4 -23 952.014 313.823   5
   5   4  23 819.676 266.450   7
  -5  -4 -24 2125.77 340.424   5
   5   4  24 2475.72 318.138   7
  -5  -4 -24 2160.16 299.657   6
   5   5 -21 1890.20 324.609   5
   5   5 -20 665.296 268.668   5
   5   5 -19 1999.72 445.680   5
   5   5 -18 2160.03 532.294   5
   5   5 -17-236.913 320.995   5
   5   5 -16 4867.85 860.437   5
   5   5 -15 1531.32 608.501   5
   5   5 -14 948.568 543.698   5
   5   5 -13 12074.0 1353.53   5
   5   5 -12 1906.28 580.301   5
  -5  -5  12 565.525 710.595   2
   5   5 -11 38337.6 2320.62   5
  -5  -5  11 51262.8 4932.15   2
   5   5 -10 530.120 334.384   5
  -5  -5  10 1310.80 879.193   2
  -5  -5  10 1232.60 941.866  12
  -5  -5   9 4510.17 1400.08  12
  -5  -5   8 1518.34 794.348  12
  -5  -5   7 23604.4 2852.27  12
  -5  -5   6 1740.10 750.752  12
  -5  -5   5 17860.6 2124.01  12
  -5  -5   4 26984.3 2399.89  12
  -5  -5   3 6364.38 1024.42   3
  -5  -5   3 6393.90 1112.62  12
  -5  -5   2 2741.02 636.056   3
  -5  -5   2 3268.20 724.109  12
  -5  -5   1 23549.9 1697.75   3
   5   5  -1 27154.3 2241.69  13
  -5  -5   1 24448.8 1777.57  12
   5   5   0 24082.1 2104.34  13
  -5  -5   0 23485.0 1611.29   3
  -5  -5   0 23404.4 1628.27  12
  -5  -5  -1 8535.65 931.994   3
   5   5   1 8052.14 1256.15  13
  -5  -5  -1 8714.64 938.339  12
  -5  -5  -2 12285.1 1085.11  12
   5   5   2 13589.7 1658.45  13
   5   5   3 100796. 4497.65  13
  -5  -5  -3 98333.0 3148.75  12
   5   5   4 17527.9 1957.81  13
  -5  -5  -4 18021.4 1400.00  12
   5   5   5 67841.3 3955.59  13
  -5  -5  -5 63683.0 2746.71  12
   5   5   6 7642.89 1429.58  13
   5   5   7 17380.5 2237.52  13
   5   5   8 13602.9 2132.05  13
   5   5   9 18895.5 2558.66  13
   5   5  10 6653.90 1581.47  13
   5   5  11 11724.7 2134.78  13
   5   5  12 9739.90 2013.41  13
   5   5  13 17953.4 1329.28   7
   5   5  13 22207.5 3022.22  13
   5   5  14 298.701 323.933   9
   5   5  14 332.243 487.157  13
   5   5  14-105.538 374.349   7
   5   5  15 7288.76 1018.59   9
   5   5  15 8050.86 955.162   7
   5   5  15 7893.73 1883.96  13
   5   5  16 16455.0 1304.20   7
   5   5  17 1924.45 552.900   7
   5   5  18 8773.27 958.988   7
   5   5  19 1183.67 464.224   7
   5   5  20 2466.38 494.973   7
   5   5  21 1290.56 386.609   7
  -5  -5 -21 1817.87 418.200   6
  -5  -5 -22 1583.54 341.884   6
   5   5  22 2027.75 409.734   7
  -5  -5 -23 11014.5 792.830   5
   5   5  23 12277.0 728.794   7
  -5  -5 -23 9974.06 662.333   6
   5   5  24-7.03366 120.865   7
   5   6 -20 2903.94 407.382   5
   5   6 -19 7389.23 711.619   5
   5   6 -18 15170.3 1119.76   5
   5   6 -17 457.107 337.913   5
   5   6 -16 7823.67 979.711   5
   5   6 -15 7716.95 1026.15   5
   5   6 -14 15525.4 1464.52   5
   5   6 -13 2982.47 709.557   5
   5   6 -12 8870.04 1113.96   5
  -5  -6  11 9447.13 1096.63   4
   5   6 -11 7741.38 1013.58   5
   5   6 -10 834.430 410.453   5
  -5  -6  10 753.837 553.273   2
  -5  -6  10 226.126 263.979   4
  -5  -6   9 37677.2 4026.14   2
   5   6  -9 39553.2 2135.52   5
  -5  -6   8 3275.43 1222.44   2
  -5  -6   8 4107.51 1362.15  12
  -5  -6   7 2930.45 1085.80  12
  -5  -6   6 26593.2 2833.73  12
  -5  -6   5 8944.53 1606.24  12
  -5  -6   4 16905.3 1890.24   3
  -5  -6   4 18143.8 2124.83  12
  -5  -6   3 79327.2 3858.70   3
  -5  -6   2 28638.2 2210.67   3
   5   6  -1 1251.34 580.303  13
  -5  -6   1 767.106 438.262   3
  -5  -6   0 79958.8 3439.44   3
   5   6   0 83633.8 4104.54  13
  -5  -6  -1 12639.9 1323.83   3
   5   6   1 12608.8 1639.47  13
   5   6   2 16832.1 1904.70  13
   5   6   3 12820.0 1697.03  13
   5   6   4 3953.12 1010.55  13
   5   6   5 1010.76 633.199  13
   5   6   6 16288.0 2162.77  13
   5   6   7 2962.97 1039.44  13
   5   6   8 9367.05 1908.11  13
   5   6   9 68996.4 5042.81  13
   5   6  10 2734.49 1058.99  13
   5   6  11 24075.6 3178.72  13
   5   6  12 238.222 268.480   7
   5   6  12 432.502 689.992  13
   5   6  13 16787.3 1277.51   7
   5   6  13 18262.2 2878.03  13
   5   6  14 4120.03 677.067   7
   5   6  14 7024.26 1774.76  13
   5   6  15 590.056 378.255   7
   5   6  16 2790.57 591.100   7
   5   6  17 9942.94 1019.18   7
   5   6  18 3597.69 645.402   7
  -5  -6 -19 324.624 298.545   6
   5   6  19 351.926 334.276   7
  -5  -6 -20 1153.06 361.640   6
   5   6  20 1644.94 414.641   7
  -5  -6 -21 1252.95 359.235   6
   5   6  21 967.227 291.514   7
  -5  -6 -22 82.8151 147.487   6
   5   6  22 628.155 278.047   7
  -5  -6 -23 732.258 213.020   5
   5   6  23 481.424 170.042   7
   5   7 -20 6107.84 460.593   5
   5   7 -19 1459.08 304.342   5
   5   7 -18 4012.32 547.450   5
   5   7 -17 15697.1 1146.64   5
   5   7 -16 40.1558 277.127   5
  -5  -7  15 11905.8 1051.03   4
   5   7 -15 13998.5 1263.57   5
  -5  -7  14 10439.1 1096.79   4
   5   7 -14 11252.7 1226.06   5
   5   7 -13 2481.00 617.187   5
  -5  -7  13 3374.50 711.961   4
  -5  -7  12 8671.29 1056.69   4
   5   7 -12 7244.43 1019.75   5
  -5  -7  11 6934.06 969.120   4
   5   7 -11 5688.99 911.881   5
   5   7 -10 1741.21 557.961   5
  -5  -7  10 849.534 290.687   4
  -5  -7   9 9647.60 2040.45   2
  -5  -7   9 10627.5 1139.38   4
   5   7  -9 10999.2 1153.55   5
  -5  -7   8 7064.28 922.194   4
  -5  -7   8 6934.99 1668.03   2
   5   7  -8 7930.87 940.901   5
  -5  -7   7 2555.63 963.035   3
  -5  -7   6 20843.7 2534.37   3
  -5  -7   5 17799.9 2224.05   3
  -5  -7   4 1761.24 708.108   3
  -5  -7   3 20053.9 2121.14   3
  -5  -7   2 6754.95 1184.51   3
   5   7  -1 7246.72 1261.64  13
  -5  -7   1 6556.73 1127.98   3
  -5  -7   0 75343.1 3752.86   3
   5   7   0 74235.0 4012.61  13
  -5  -7  -1 16632.5 1724.21   3
   5   7   1 19020.3 2082.71  13
   5   7   2 617.134 473.292  13
   5   7   3 4814.78 1075.68  13
   5   7   4 19050.7 2232.31  13
   5   7   5 852.123 652.411  13
   5   7   6 33113.9 3225.29  13
   5   7   7 9334.77 1772.00  13
   5   7   8 10757.9 2028.46  13
   5   7   9 405.694 527.085  13
   5   7  10 9628.37 1977.01  13
  -5  -7 -11 3878.04 728.619   4
   5   7  11 5435.21 769.269   7
   5   7  11 4743.48 1557.05  13
   5   7  12-220.520 682.788  13
   5   7  12 630.034 455.222   7
  -5  -7 -12 203.159 276.308   4
   5   7  13 1333.91 483.044   7
   5   7  13 1760.43 905.094  13
   5   7  14 2746.49 502.949   7
   5   7  15 32731.3 1802.04   7
   5   7  16 13583.4 1152.11   7
   5   7  17 28435.9 1598.67   7
   5   7  18 42996.9 1855.90   7
  -5  -7 -18 39367.7 1838.20   6
  -5  -7 -19 203.631 244.303   6
   5   7  19 139.002 299.211   7
   5   7  20 10286.7 833.112   7
  -5  -7 -20 8954.25 754.344   6
   5   7  21 2506.03 405.253   7
  -5  -7 -21 1759.26 315.112   6
  -5  -7 -22 1064.31 255.123   5
   5   7  22 1237.14 300.103   7
   5   8 -18 379.037 205.856   5
   5   8 -17 3310.93 502.765   5
   5   8 -16 8427.64 867.813   5
  -5  -8  16 7037.64 675.136   4
   5   8 -15 724.601 348.597   5
  -5  -8  15 594.157 278.137   4
   5   8 -14 4588.85 728.905   5
  -5  -8  14 5157.30 749.944   4
   5   8 -13-196.892 326.929   5
  -5  -8  13 1263.45 456.243   4
   5   8 -12 1834.55 477.075   5
  -5  -8  12 3749.07 750.065   4
   5   8 -11 3446.25 666.508   5
  -5  -8  11 4416.74 766.105   4
  -5  -8  10 5291.85 803.103   4
   5   8 -10 7317.87 960.395   5
  -5  -8   9 13624.9 1341.27   4
   5   8  -9 15490.0 1349.48   5
   5   8  -8 1762.67 517.396   5
  -5  -8   8 1422.88 394.186   4
  -5  -8   7 8613.86 965.127   4
   5   8  -7 7790.26 884.859   5
  -5  -8   6 1125.08 372.267   4
  -5  -8   5 7960.80 1577.17   3
  -5  -8   4-351.611 388.534   3
  -5  -8   3 487.658 444.672   3
  -5  -8   2 31865.8 2777.98   3
  -5  -8   1 39048.6 2992.74   3
   5   8   0 612.977 456.810  13
   5   8   1 31111.7 2797.04  13
   5   8   2 33009.2 2928.73  13
   5   8   3 10847.4 1694.98  13
   5   8   4 24668.3 2686.62  13
   5   8   5 191.820 540.267  13
   5   8   6 8855.31 1777.23  13
   5   8   7-41.8195 611.932  13
   5   8   8 52249.9 4674.50  13
  -5  -8  -9 3874.66 685.918   4
   5   8   9 3098.86 1144.31  13
  -5  -8 -10 1161.81 435.478   4
   5   8  10 1161.45 887.014  13
   5   8  11 642.006 841.806  13
  -5  -8 -11 1897.24 534.418   4
   5   8  12 1142.97 905.213  13
  -5  -8 -12 1496.88 482.638   4
   5   8  13 6822.68 827.976   7
   5   8  14 1301.31 386.716   7
   5   8  15 25986.1 1557.32   7
   5   8  16 19053.8 1354.76   7
   5   8  17 12098.0 1038.64   7
   5   8  18 51932.8 1945.61   7
   5   8  19 10576.0 841.833   7
   5   8  20 2376.01 425.145   7
   5   8  21 2482.55 378.897   7
   5   8  22 1864.12 262.720   7
   5   9 -17 355.148 172.975   5
   5   9 -16 260.001 198.324   5
  -5  -9  16 423.781 195.896   4
  -5  -9  15 5601.49 640.249   4
   5   9 -15 4624.50 622.980   5
   5   9 -14 1089.90 387.348   5
  -5  -9  14 1064.10 359.630   4
   5   9 -13 1676.75 530.696   5
  -5  -9  13 1670.62 503.427   4
  -5  -9  12 19577.5 1534.98   4
   5   9 -12 14144.8 1244.81   5
   5   9 -11-628.546 532.951   5
  -5  -9  11 521.597 299.067   4
  -5  -9  10 25925.2 1785.35   4
   5   9 -10 28996.4 1779.59   5
  -5  -9   9 2325.53 583.811   4
   5   9  -9 2923.86 553.600   5
  -5  -9   8 32461.3 1987.64   4
  -5  -9   7 2199.58 543.690   4
  -5  -9   6 14596.9 1269.50   4
  -5  -9   5 13004.4 1182.40   4
  -5  -9   4 1182.95 407.501   4
  -5  -9   3 12436.4 1095.97   4
  -5  -9   2 497.986 328.904   4
   5   9   2 11639.6 1836.25  13
   5   9   3 349.847 502.213  13
   5   9   4 10315.0 1839.99  13
   5   9   5 3552.97 1170.00  13
  -5  -9  -6 19203.9 1344.93   4
   5   9   6 17766.3 2595.64  13
  -5  -9  -7 20980.7 1428.36   4
   5   9   7 23373.2 3142.94  13
  -5  -9  -8 53.8336 257.638   4
   5   9   8 1191.92 1002.97  13
  -5  -9  -9 3289.58 623.237   4
   5   9   9 2311.05 1194.84  13
   5   9  10-1155.26 780.134  13
  -5  -9 -10-3.48708 302.627   4
  -5  -9 -11 7433.58 957.241   4
   5   9  12 921.985 515.291   7
  -5  -9 -12-96.0953 299.073   4
   5   9  13 16278.6 1250.54   7
   5   9  14 34.0470 498.922   7
   5   9  15 19755.3 1345.30   7
   5   9  16 7852.86 861.836   7
   5   9  17 1356.00 378.376   7
   5   9  18 760.854 340.230   7
   5   9  19 1295.14 347.954   7
   5   9  20 731.619 248.305   7
   5   9  21 393.146 169.635   7
  -5 -10  16 125.031 137.969   4
  -5 -10  15 9042.45 740.366   4
  -5 -10  14 8278.77 816.733   4
  -5 -10  13 2579.14 528.899   4
  -5 -10  12 12182.2 1200.15   4
  -5 -10  11 1194.72 473.724   4
  -5 -10  10 6219.60 917.292   4
  -5 -10   9 2027.66 552.372   4
  -5 -10   8 339.617 344.515   4
  -5 -10   7 7228.50 959.510   4
  -5 -10   6 36630.0 2063.89   4
  -5 -10   5 3289.41 643.745   4
  -5 -10   4 61400.1 2526.39   4
  -5 -10   3 5926.68 792.109   4
  -5 -10   2 22884.5 1490.54   4
  -5 -10   1 52185.3 2233.19   4
  -5 -10   0 245.902 251.045   4
  -5 -10  -1 1450.98 341.114   4
  -5 -10  -2 2388.18 496.204   4
  -5 -10  -3 293.558 221.578   4
  -5 -10  -4 4532.11 688.218   4
   5  10   4 4814.05 1313.62  13
   5  10   5 621.490 478.999  13
  -5 -10  -5 953.785 388.911   4
   5  10   6 3537.12 1204.18  13
  -5 -10  -6 2318.46 547.854   4
   5  10   7 1676.21 808.286  13
  -5 -10  -7 2468.36 527.382   4
  -5 -10  -8 15764.6 1297.66   4
   5  10   8 16033.1 2813.76  13
  -5 -10  -9 8941.21 979.081   4
  -5 -10 -10 22596.9 1598.97   4
   5  10  11 4845.98 782.660   7
  -5 -10 -11 3360.50 654.774   4
   5  10  12 3342.71 666.041   7
  -5 -10 -12 2678.30 615.366   4
   5  10  13 47560.1 2066.05   7
   5  10  14-285.068 441.341   7
   5  10  15 10943.2 979.316   7
   5  10  16 550.059 345.168   7
   5  10  17 627.353 332.473   7
  -5 -10 -17 76.2327 209.377  11
   5  10  18 1322.71 307.276   7
   5  10  19 1121.93 267.895   7
  -5 -11  15 1567.17 271.766   4
  -5 -11  14-45.4732 173.284   4
  -5 -11  13 6088.70 689.937   4
  -5 -11  12 322.792 270.798   4
  -5 -11  11 459.039 333.115   4
  -5 -11  10 91.1768 299.004   4
  -5 -11   9 1163.78 384.903   4
  -5 -11   8 23491.8 1663.00   4
  -5 -11   7 914.712 415.182   4
  -5 -11   6 51787.5 2463.86   4
  -5 -11   5 39941.0 2135.29   4
  -5 -11   4 36155.2 2017.87   4
  -5 -11   3 50979.5 2352.03   4
  -5 -11   2 7763.45 938.385   4
  -5 -11   1 12543.3 1125.98   4
  -5 -11   0 441.939 303.139   4
  -5 -11  -1 7505.46 843.899   4
  -5 -11  -2-132.250 317.140   4
  -5 -11  -3 1360.37 431.462   4
  -5 -11  -4 1225.97 444.009   4
  -5 -11  -5 137.777 271.678   4
  -5 -11  -6 2690.96 553.561   4
  -5 -11  -7 240.884 279.073   4
  -5 -11  -8 11963.6 1129.37   4
  -5 -11  -9 9580.74 1043.58   4
  -5 -11 -10 12941.6 1190.48   4
  -5 -11 -11 32669.0 1843.56   4
   5  11  11 31714.8 1683.89   7
  -5 -11 -12 491.152 333.592   4
   5  11  12 1739.87 533.700   7
   5  11  13-404.493 436.703   7
   5  11  14 8848.64 830.940   7
   5  11  15 6183.01 716.377   7
  -5 -11 -15 5038.67 663.087  11
   5  11  16 2704.74 448.496   7
  -5 -11 -16 2451.16 451.149  11
   5  11  17 10406.5 727.820   7
  -5 -11 -17 9581.68 745.327  11
   5  11  18 3493.82 389.831   7
  -5 -12  14 2212.09 308.461   4
  -5 -12  13 2399.96 388.209   4
  -5 -12  12 941.840 291.943   4
  -5 -12  11 38.4050 229.584   4
  -5 -12  10 1128.75 332.337   4
  -5 -12   9-452.725 391.355   4
  -5 -12   8 10209.8 1055.22   4
  -5 -12   7 677.527 456.184   4
  -5 -12   6 12340.9 1223.61   4
  -5 -12   5 2363.87 644.211   4
  -5 -12   4 237.263 316.692   4
  -5 -12   3 1085.97 410.969   4
  -5 -12   2 1405.89 408.367   4
  -5 -12   1 1169.35 380.540   4
  -5 -12   0 590.626 343.805   4
  -5 -12  -1 212.780 287.859  11
  -5 -12  -1 540.624 294.681   4
  -5 -12  -2 1383.26 401.057   4
  -5 -12  -2 1050.11 404.248  11
  -5 -12  -3 44499.6 2068.27   4
  -5 -12  -3 38802.5 2127.09  11
  -5 -12  -4 2026.21 526.882   4
  -5 -12  -5 64582.3 2499.93   4
  -5 -12  -6 46713.4 2135.17   4
  -5 -12  -7 11168.5 1062.20   4
  -5 -12  -8 40172.5 1986.15   4
  -5 -12  -9 7603.31 914.321   4
   5  12  10 4327.99 713.090   7
  -5 -12 -10 2997.78 615.033   4
  -5 -12 -11 1867.79 486.889   4
   5  12  11 1947.81 558.908   7
   5  12  12 4477.07 597.922   7
  -5 -12 -12 4530.11 744.219  11
   5  12  13 15953.1 1049.68   7
  -5 -12 -13 20466.7 1408.49  11
   5  12  14 532.251 325.753   7
  -5 -12 -14 170.472 301.892  11
   5  12  15 17458.8 959.514   7
  -5 -12 -15 16770.4 1084.71  11
   5  12  16 1786.03 308.481   7
  -5 -12 -16 2257.71 384.929  11
  -5 -12 -17 8230.28 600.170  11
  -5 -13  13 16484.3 734.874   4
  -5 -13  12 409.670 199.322   4
  -5 -13  11 3054.74 473.408   4
  -5 -13  10 7108.73 736.850   4
  -5 -13   9 3187.42 517.557   4
  -5 -13   8 7447.13 793.381   4
  -5 -13   7 4260.60 625.240   4
  -5 -13   6 31980.7 1775.38   4
  -5 -13   5 641.053 323.735   4
  -5 -13   4 787.973 333.092   4
  -5 -13   3 8684.12 920.780   4
  -5 -13   2-140.086 326.355   4
  -5 -13   1 11854.1 1078.61   4
  -5 -13   0 277.837 264.283   4
  -5 -13  -1 17408.8 1285.26   4
  -5 -13  -1 16296.5 1204.61  11
  -5 -13  -2 3701.47 643.014   4
  -5 -13  -2 3152.20 591.562  11
  -5 -13  -3 26911.3 1574.26   4
  -5 -13  -3 26738.4 1679.34  11
  -5 -13  -4 22782.6 1452.23   4
  -5 -13  -4 23517.2 1658.52  11
  -5 -13  -5 29244.0 1608.51   4
  -5 -13  -5 29615.1 1864.28  11
  -5 -13  -6 25030.8 1499.07   4
  -5 -13  -6 24794.7 1711.58  11
  -5 -13  -7 5113.59 739.465   4
  -5 -13  -7 4603.76 723.387  11
  -5 -13  -8 2434.68 539.239   4
  -5 -13  -8 1421.39 438.797  11
  -5 -13  -9 8444.60 894.821   4
   5  13   9 10284.5 922.526   7
  -5 -13  -9 10683.9 1151.61  11
  -5 -13 -10 8170.01 879.706   4
   5  13  10 9591.24 833.427   7
  -5 -13 -10 9006.97 983.947  11
  -5 -13 -11-45.5088 234.176   4
   5  13  11 152.849 271.684   7
  -5 -13 -11 610.628 392.364  11
   5  13  12 7290.50 627.460   7
  -5 -13 -12 12824.0 1099.16  11
   5  13  13 384.085 239.293   7
  -5 -13 -13 278.059 280.206  11
  -5 -13 -14 3199.89 479.569  11
  -5 -13 -15 22.0469 160.446  11
  -5 -13 -16 968.011 231.077  11
  -5 -14  11 5987.89 473.023   4
  -5 -14  10 12299.8 774.120   4
  -5 -14   9 257.041 223.461   4
  -5 -14   8 7706.89 707.810   4
  -5 -14   7 8208.10 784.710   4
  -5 -14   6-184.405 270.345   4
  -5 -14   5 3325.85 577.116   4
  -5 -14   4 242.887 239.095   4
  -5 -14   3 1155.91 414.754   4
  -5 -14   2 903.444 349.601   4
  -5 -14   1 5608.02 726.462   4
  -5 -14   0 502.604 299.181   4
  -5 -14  -1 7728.94 832.838   4
  -5 -14  -2 1980.91 465.223   4
  -5 -14  -2 1429.70 431.468  11
  -5 -14  -3 2102.74 464.782   4
  -5 -14  -3 1922.02 450.956  11
  -5 -14  -4 10260.5 907.597   4
  -5 -14  -4 8921.76 936.681  11
  -5 -14  -5 322.639 300.681   4
  -5 -14  -5 610.713 365.767  11
  -5 -14  -6 231.308 259.708   4
  -5 -14  -6 420.698 366.111  11
  -5 -14  -7 7553.69 790.838   4
  -5 -14  -7 7217.22 882.440  11
  -5 -14  -8 6308.52 701.015   4
   5  14   8 7226.86 678.602   7
  -5 -14  -8 6240.75 800.128  11
  -5 -14  -9 4434.97 573.691   4
   5  14   9 4553.73 536.301   7
  -5 -14  -9 5501.15 741.673  11
  -5 -14 -10 13493.7 958.150   4
   5  14  10 11904.4 765.544   7
  -5 -14 -11 4259.89 603.223  11
  -5 -14 -12 4216.15 571.250  11
  -5 -14 -13 6550.30 611.521  11
  -5 -14 -14 4734.47 467.431  11
  -5 -14 -15 55.5385 110.594  11
  -5 -15   9 5116.64 415.889   4
  -5 -15   8 348.971 173.127   4
  -5 -15   7 4890.26 508.217   4
  -5 -15   6 14035.7 883.233   4
  -5 -15   5 1091.95 326.584   4
  -5 -15   4 16522.6 1043.87   4
  -5 -15   3 809.431 353.266   4
  -5 -15   2 1904.16 395.960   4
  -5 -15   1 5438.36 643.953   4
  -5 -15   0 954.437 346.604   4
  -5 -15  -1 10437.8 828.900   4
  -5 -15  -2 3760.42 532.332   4
  -5 -15  -2 2928.18 421.913  11
  -5 -15  -3 526.072 243.857   4
  -5 -15  -3 465.456 260.230  11
  -5 -15  -4 1687.08 377.502   4
  -5 -15  -4 2248.88 475.423  11
  -5 -15  -5 13551.0 908.017   4
  -5 -15  -5 13275.6 1027.08  11
  -5 -15  -6 3996.13 509.441   4
  -5 -15  -6 4712.57 655.017  11
  -5 -15  -7 3171.62 438.254   4
  -5 -15  -7 3073.72 527.910  11
  -5 -15  -8 28354.4 1221.74   4
  -5 -15  -8 24645.1 1375.71  11
  -5 -15  -9 4699.71 620.370  11
  -5 -15 -10 893.858 333.614  11
  -5 -15 -11 4397.25 521.237  11
  -5 -15 -12 150.573 162.787  11
  -5 -15 -13 4010.70 387.871  11
  -5 -16   5-337.577 175.950   4
  -5 -16   4 17539.1 840.938   4
  -5 -16   3 5982.13 520.484   4
  -5 -16   2 161.276 150.703   4
  -5 -16   1 1016.32 242.432   4
  -5 -16   0 3570.10 428.760   4
  -5 -16  -1 673.812 211.453   4
  -5 -16  -2 7094.27 573.446   4
  -5 -16  -3 5524.15 500.752   4
  -5 -16  -4 3420.71 398.118   4
  -5 -16  -4 2579.55 361.771  11
  -5 -16  -5 8331.92 590.481   4
  -5 -16  -5 7237.12 597.587  11
  -5 -16  -6 7264.10 527.701   4
  -5 -16  -6 6935.58 592.722  11
  -5 -16  -7 316.724 173.701  11
  -5 -16  -8 3355.66 428.755  11
  -5 -16  -9 2072.10 319.497  11
   6 -14  -4 4332.08 428.217  11
   6 -14  -3 8897.52 618.579  11
   6 -14  -2 1428.31 317.038  11
   6 -14  -1 3100.90 418.048  11
   6 -14   0 13295.5 779.973  11
   6 -14   1 15968.4 889.773  11
   6 -13  -7 1948.65 296.603  11
   6 -13  -6 106.500 173.348  11
   6 -13  -5 595.430 224.732  11
   6 -13  -4 356.388 244.491  11
   6 -13  -3 277.407 285.580  11
   6 -13  -2 406.774 302.667  11
   6 -13  -1-212.691 258.510  11
   6 -13   0 7441.10 756.057  11
   6 -13   1 1571.22 357.263   1
   6 -13   1 686.501 314.207  11
   6 -13   2 3147.78 455.122   1
   6 -13   2 3035.42 464.187  11
   6 -13   3 19065.0 1042.95   1
   6 -13   3 17330.1 983.135  11
   6 -13   4 1632.68 426.966   1
   6 -13   4 16979.6 1069.32  11
   6 -13   5 35507.4 1445.25   1
   6 -13   6 13700.1 876.360   1
   6 -13   7 868.744 276.571   1
   6 -13   8 11899.9 773.901   1
   6 -13   9 7716.14 562.653   1
   6 -12  -9-152.853 183.424  11
   6 -12  -8 841.576 278.731  11
   6 -12  -7-202.086 321.721   8
   6 -12  -7-151.956 225.781  11
   6 -12  -6 1869.94 449.203   8
   6 -12  -6 2028.02 453.394  11
   6 -12  -5 6176.15 771.786   8
   6 -12  -5 5873.27 747.458  11
   6 -12  -4-479.241 442.084   8
   6 -12  -4 113.364 314.070  11
   6 -12  -3 695.868 399.689   8
   6 -12  -3 813.200 378.980  11
   6 -12  -2 3881.89 743.333   8
   6 -12  -2 130.804 308.687  11
   6 -12  -1 3400.00 500.977   1
   6 -12  -1 2415.05 598.533  11
   6 -12   0 959.756 311.663   1
   6 -12   0 1087.55 563.743   8
   6 -12   0 637.450 444.060  11
   6 -12   1 4239.98 733.807   8
   6 -12   1 3404.75 557.548   1
   6 -12   1 3243.71 606.113  11
   6 -12   2 1987.70 600.428   8
   6 -12   2 1793.49 448.866   1
   6 -12   2 1544.65 397.209  11
   6 -12   3 710.010 365.003   1
   6 -12   3 774.592 304.048  11
   6 -12   4 6452.12 760.335   1
   6 -12   4 5328.64 645.830  11
   6 -12   5 258.128 321.492   1
   6 -12   5 3437.70 667.203  11
   6 -12   6 2704.60 493.429   1
   6 -12   7 4171.37 600.552   1
   6 -12   8 2430.25 531.672   1
   6 -12   9 12085.3 887.779   1
   6 -12  10 7795.50 680.853   1
   6 -12  11 5793.31 521.984   1
   6 -12  12 4773.89 419.629   1
   6 -11 -13 2659.51 338.744   6
   6 -11 -12 650.369 232.794   6
   6 -11 -11-20.7940 185.935   6
   6 -11 -10-168.760 285.823   6
   6 -11  -9 9927.77 764.794   8
   6 -11  -9 8850.81 853.441   6
   6 -11  -9 8397.01 727.308  11
   6 -11  -8 302.640 340.254   8
   6 -11  -8 588.654 389.083   6
   6 -11  -8 259.627 231.348  11
   6 -11  -7 38479.9 1746.03   8
   6 -11  -7 38101.5 1833.01   6
   6 -11  -7 33731.4 1741.16  11
   6 -11  -6 4429.24 731.747   8
   6 -11  -6 4354.57 698.779   6
   6 -11  -6 3674.48 650.791  11
   6 -11  -5 35856.8 1873.34   8
   6 -11  -5 36476.2 1824.25   6
   6 -11  -5 32278.0 1909.61  11
   6 -11  -4 7067.10 908.781   8
   6 -11  -4 8826.44 935.985   6
   6 -11  -4 6580.46 889.316  11
   6 -11  -3 7914.74 987.918   8
   6 -11  -3 7488.71 952.579  11
   6 -11  -2 8564.89 1010.49   8
   6 -11  -2 8257.15 951.637  11
   6 -11  -1 47.9457 488.442   8
   6 -11  -1 132.769 253.770   1
   6 -11  -1-98.8517 401.569  11
   6 -11   0 1434.28 400.259   1
   6 -11   0 2231.18 685.320   8
   6 -11   0 1185.23 461.262  11
   6 -11   1 15.6604 433.165   8
   6 -11   1 222.645 291.575   1
   6 -11   1 91.8738 354.336  11
   6 -11   2 899.661 480.727   8
   6 -11   2 124.956 329.133   1
   6 -11   2 224.012 367.096  11
   6 -11   3 1163.63 484.573   8
   6 -11   3 714.808 338.110   1
   6 -11   3 1332.28 460.710  11
   6 -11   4 3201.03 598.338   8
   6 -11   4 2265.89 477.815   1
   6 -11   4 2647.46 537.641  11
   6 -11   5 286.432 388.231   1
   6 -11   5 618.545 318.681  11
   6 -11   6 2910.55 569.374  11
   6 -11   6-96.7930 519.437   1
   6 -11   7 1666.33 361.307   1
   6 -11   7 23597.4 1505.69  11
   6 -11   8 10303.1 1014.14   1
   6 -11   9 1876.66 521.246   1
   6 -11  10 14265.0 1056.35   1
   6 -11  11 527.640 325.058   1
   6 -11  12 2401.52 417.480   1
   6 -11  13-97.9915 211.895   1
   6 -11  14 4387.93 374.057   1
   6 -10 -15 2086.47 291.726   6
   6 -10 -14 6305.62 562.203   6
   6 -10 -13 31606.2 1378.34   6
   6 -10 -12 7709.85 759.591   6
   6 -10 -11 176.427 283.829   6
   6 -10 -10 2512.38 467.110   6
   6 -10 -10 4018.68 525.266   8
   6 -10  -9 19245.4 1196.41   8
   6 -10  -9 17148.3 1296.14   6
   6 -10  -9 17029.4 1143.57  11
   6 -10  -8 364.959 439.419   8
   6 -10  -8 18.7029 312.881   6
   6 -10  -8-91.4316 287.634  11
   6 -10  -7 7661.76 879.974   8
   6 -10  -7 7205.28 884.924   6
   6 -10  -7 6560.11 869.511  11
   6 -10  -6 822.107 552.534   8
   6 -10  -6 607.887 391.631   6
   6 -10  -6 1017.62 494.119  11
   6 -10  -5 15245.7 1357.24   8
   6 -10  -5 14292.5 1214.33   6
   6 -10  -5 12674.7 1305.50  11
   6 -10  -4 28.9084 536.879   8
   6 -10  -4 406.694 370.688   6
   6 -10  -4-275.296 448.664  11
   6 -10  -3-585.110 548.411   8
   6 -10  -3 209.499 285.475   6
   6 -10  -3 275.104 423.323  11
   6 -10  -2 132.882 497.485   8
   6 -10  -2 531.422 425.779   6
   6 -10  -2-71.2996 409.295  11
   6 -10  -1 30603.3 1853.16   8
   6 -10  -1 25574.5 1464.02   1
   6 -10  -1 30972.4 1958.30  11
   6 -10   0 8483.94 984.748   8
   6 -10   0 6648.76 784.186   1
   6 -10   0 6973.82 959.658  11
   6 -10   1 48394.8 2259.90   8
   6 -10   1 45242.4 2058.82   1
   6 -10   1 46761.5 2270.57  11
   6 -10   2 41683.8 2028.97   8
   6 -10   2 40864.2 2018.89   1
   6 -10   2 37854.8 2050.53  11
   6 -10   3 4956.47 776.667   8
   6 -10   3 5202.12 832.966   1
   6 -10   3 4655.61 727.152  11
   6 -10   4 16144.4 1227.44   8
   6 -10   4 17529.4 1435.09   1
   6 -10   4 13895.3 1206.44  11
   6 -10   5 11.6208 361.418   8
   6 -10   5-64.1552 312.535  11
   6 -10   5 369.545 585.964   1
   6 -10   6 8441.69 900.013   8
   6 -10   6 8568.89 1074.84   1
   6 -10   6 6412.63 792.331  11
   6 -10   7 6564.79 863.201   1
   6 -10   7 8570.29 927.332  11
   6 -10   8 15761.8 1292.27   1
   6 -10   9 3818.72 665.820   1
   6 -10  10 5954.13 789.447   1
   6 -10  11 6413.43 765.344   1
   6 -10  12 1569.76 434.764   1
   6 -10  13 4326.82 552.968   1
   6 -10  14 638.172 252.922   1
   6 -10  15 2445.56 314.896   1
   6  -9 -16 10286.4 641.009   6
   6  -9 -15 14325.1 871.994   6
   6  -9 -14 6884.29 704.227   6
   6  -9 -13 399.825 281.387   6
   6  -9 -12 18927.8 1320.57   6
   6  -9 -11 967.851 345.781   6
   6  -9 -10 10569.0 898.210   8
   6  -9 -10 9231.90 1001.88   6
   6  -9  -9-1.42366 377.938   8
   6  -9  -9-85.7928 334.159   6
   6  -9  -9-5.67484 242.698  11
   6  -9  -8 29404.7 1667.30   8
   6  -9  -8 28861.2 1821.29   6
   6  -9  -8 27928.3 1672.34  11
   6  -9  -7 18201.3 1382.22   8
   6  -9  -7 16864.8 1373.86   6
   6  -9  -7 16251.8 1362.10  11
   6  -9  -6 31805.1 1846.91   8
   6  -9  -6 30523.1 1812.61   6
   6  -9  -6 27564.2 1843.44  11
   6  -9  -5 11456.8 1190.56   8
   6  -9  -5 13182.9 1169.37   6
   6  -9  -5 11050.3 1211.84  11
   6  -9  -4 554.574 459.763   8
   6  -9  -4 1807.60 511.318   6
   6  -9  -4 729.831 378.671  11
   6  -9  -3 1885.32 500.664   6
   6  -9  -3 1517.25 553.515   8
   6  -9  -3 1603.99 568.439  11
   6  -9  -2 1166.43 529.598   8
   6  -9  -2 833.000 409.347   6
   6  -9  -2 1008.78 583.466  11
   6  -9  -1 19364.0 1476.36   8
   6  -9  -1 19379.1 1251.44   1
   6  -9  -1 19184.1 1374.67   6
   6  -9  -1 21593.3 1623.86  11
   6  -9   0 40795.0 2082.34   8
   6  -9   0 39031.5 1846.93   1
   6  -9   0 40718.6 1996.01   6
   6  -9   0 42631.3 2236.35  11
   6  -9   1 27098.8 1649.85   8
   6  -9   1 26410.6 1552.00   1
   6  -9   1 27071.0 1730.04  11
   6  -9   2 19008.7 1391.29   8
   6  -9   2 19365.2 1412.45   1
   6  -9   2 18815.9 1472.09  11
   6  -9   3 3689.06 670.953   8
   6  -9   3 3433.17 675.691  11
   6  -9   3 4146.30 781.665   1
   6  -9   4 41986.0 1940.15   8
   6  -9   4 44416.5 2237.13   1
   6  -9   4 40575.3 2060.01  11
   6  -9   5 26159.0 1525.53   8
   6  -9   5 22945.5 1537.84  11
   6  -9   5 24802.8 1749.03   1
   6  -9   6 8061.27 899.335   8
   6  -9   6 8491.75 1049.79   1
   6  -9   6 7374.65 868.771  11
   6  -9   7 4891.57 815.826   1
   6  -9   7 6292.39 825.709   8
   6  -9   7 4873.44 719.159  11
   6  -9   8 31709.2 1967.01   1
   6  -9   8 38104.4 1931.83  11
   6  -9   9 2975.59 697.341   1
   6  -9  10 11704.1 1164.40   1
   6  -9  11 7692.31 937.307   1
   6  -9  12 1628.99 478.105   1
   6  -9  13 1807.23 470.200   1
   6  -9  14 238.836 283.639   1
   6  -9  15-458.320 259.699   1
   6  -9  16 35.3355 190.854   1
   6  -8 -17 10617.1 643.036  10
   6  -8 -17 13764.1 746.028   6
   6  -8 -16 5067.48 535.707  10
   6  -8 -16 5751.08 581.436   6
   6  -8 -15 7571.59 727.855  10
   6  -8 -15 9553.20 819.991   6
   6  -8 -14 5961.21 741.444  10
   6  -8 -14 5392.65 687.362   6
   6  -8 -13 344.646 292.895  10
   6  -8 -13-116.842 270.574   6
   6  -8 -12 3843.75 661.804  10
   6  -8 -12 2879.12 539.991   6
   6  -8 -11 4173.15 735.227  10
   6  -8 -11 3673.61 629.966   6
   6  -8 -10 1083.27 396.478   8
   6  -8 -10 743.419 452.230   6
   6  -8  -9 2695.16 575.905   8
   6  -8  -9 3762.70 812.429   6
   6  -8  -8 4643.34 728.653   8
   6  -8  -8 6150.33 901.250   6
   6  -8  -8 4603.42 717.651  11
   6  -8  -7 7003.06 911.538   8
   6  -8  -7 7672.72 1012.87   6
   6  -8  -7 7036.49 920.394  11
   6  -8  -6-422.204 328.587   6
   6  -8  -6-55.0241 401.129   8
   6  -8  -6 4.61746 385.646  11
   6  -8  -5 5503.40 859.217   8
   6  -8  -5 5261.00 735.760   6
   6  -8  -5 5131.77 861.611  11
   6  -8  -4 3085.35 650.348   8
   6  -8  -4 4252.95 683.939   6
   6  -8  -4 3237.70 724.050  11
   6  -8  -3 5940.35 950.340   8
   6  -8  -3 7550.49 874.411   6
   6  -8  -3 8121.71 1061.58  11
   6  -8  -2 3551.63 616.381   6
   6  -8  -2 3647.86 753.805   8
   6  -8  -2 4094.20 774.261  11
   6  -8  -1 13575.5 1213.73   8
   6  -8  -1 11273.8 947.530   1
   6  -8  -1 13037.1 1112.28   6
   6  -8  -1 14129.1 1362.66  11
   6  -8   0 978.527 502.729   8
   6  -8   0 1267.66 404.466   6
   6  -8   0 1065.47 477.800  11
   6  -8   0 679.561 365.334   1
   6  -8   1 4231.76 691.281   1
   6  -8   1 5184.06 797.792   8
   6  -8   1 5369.90 781.436   6
   6  -8   1 5257.58 796.788  11
   6  -8   2 20050.0 1424.25   1
   6  -8   2 19199.3 1357.02   8
   6  -8   2 18884.9 1488.07  11
   6  -8   3 9634.61 929.202   8
   6  -8   3 10705.6 1126.18   1
   6  -8   3 10198.2 1073.97  11
   6  -8   4 316.712 384.044   1
   6  -8   4 195.863 361.141   8
   6  -8   4-237.247 406.208  11
   6  -8   5 760.214 387.283   8
   6  -8   5 1300.13 543.106   1
   6  -8   5 774.257 327.741  11
   6  -8   6 33348.3 1687.40   8
   6  -8   6 33240.8 1979.43   1
   6  -8   6 33139.5 1767.06  11
   6  -8   7-82.0696 536.707   1
   6  -8   7 702.473 331.282  11
   6  -8   8 27381.8 1609.43  11
   6  -8   8 24898.9 1796.31   1
   6  -8   9 819.172 628.958   1
   6  -8  10 17371.3 1477.56   1
   6  -8  11 621.658 487.186   1
   6  -8  12 1124.53 509.557   1
   6  -8  13 5833.54 763.878   1
   6  -8  14 11210.8 1071.74   4
   6  -8  14 15498.6 1111.57   1
   6  -8  15 283.055 287.481   1
   6  -8  15-108.196 253.138   4
   6  -8  16 258.146 220.537   1
   6  -8  16 25.9534 180.646   4
   6  -8  17 11588.6 830.348   4
   6  -8  18 5492.48 492.908   4
   6  -7 -18 477.210 213.873  10
   6  -7 -18 107.228 141.339   6
   6  -7 -17 10920.2 819.188  10
   6  -7 -17 11464.7 775.165   6
   6  -7 -16 3341.27 528.872  10
   6  -7 -16 3338.88 494.646   6
   6  -7 -15 1703.82 431.948  10
   6  -7 -15 1525.08 405.073   6
   6  -7 -14 21245.5 1499.53  10
   6  -7 -14 22579.9 1458.32   6
   6  -7 -13 2319.47 639.071  10
   6  -7 -13 2303.16 564.195   6
   6  -7 -12 1243.51 524.853  10
   6  -7 -12 642.998 316.610   6
   6  -7 -11 9658.14 1114.78  10
   6  -7 -11 10505.7 1106.16   6
   6  -7 -10 24471.0 1424.96   8
   6  -7 -10 23969.1 1687.58   6
   6  -7  -9 418.187 350.414  10
   6  -7  -9 1011.84 455.844   6
   6  -7  -9 1196.90 415.100   8
   6  -7  -8 1172.62 473.784   6
   6  -7  -8 1418.51 496.000   8
   6  -7  -7 662.174 437.352   8
   6  -7  -7 997.059 486.029   6
   6  -7  -7 811.141 390.076  11
   6  -7  -6 11952.5 1135.43   8
   6  -7  -6 11712.4 1138.10   6
  -6   7   6 9568.96 2353.44  13
   6  -7  -6 11799.7 1178.84  11
   6  -7  -5 22575.0 1571.83   8
  -6   7   5 23308.7 3724.38  13
   6  -7  -5 25228.4 1590.25   6
   6  -7  -5 23930.9 1706.91  11
   6  -7  -4 1603.83 477.595   6
   6  -7  -4 1032.61 462.304   8
  -6   7   4 1281.50 685.278  13
   6  -7  -4 1133.28 413.137  11
   6  -7  -3 35959.8 1953.92   8
  -6   7   3 39674.7 4814.61  13
   6  -7  -3 39775.9 1939.28   6
   6  -7  -3 40137.3 2166.65  11
   6  -7  -2 38534.6 1974.30   8
  -6   7   2 36028.9 4554.45  13
   6  -7  -2 38282.5 1880.68   6
   6  -7  -2 42340.4 2241.42  11
   6  -7  -1 220.286 252.890   6
   6  -7  -1 495.595 349.428   8
   6  -7  -1 240.301 373.061  11
   6  -7   0 5775.40 839.030   8
   6  -7   0 5800.56 785.402   6
   6  -7   0 5978.46 867.572  11
   6  -7   1 6296.93 789.083   1
   6  -7   1 7194.04 841.492   8
   6  -7   1 7566.54 883.097   6
   6  -7   1 6834.29 903.231  11
   6  -7   2 2720.82 532.321   8
   6  -7   2 2149.41 517.788   1
   6  -7   2 2426.25 536.818   6
   6  -7   2 2029.21 505.647  11
   6  -7   3 14.4761 298.527   8
   6  -7   3-27.6125 371.697   1
   6  -7   3 15.1169 308.428  11
   6  -7   4 6342.15 771.401   8
   6  -7   4 6604.90 823.767  11
   6  -7   4 6693.24 899.371   1
   6  -7   5 53.6328 345.442   8
   6  -7   5 904.356 525.008   1
   6  -7   5 229.357 288.521  11
   6  -7   6 8466.56 1083.25   1
   6  -7   6 7874.45 933.430  11
   6  -7   7 5459.49 815.981   1
   6  -7   7 5996.71 770.307  11
   6  -7   8 3989.48 690.666   1
   6  -7   8 5085.30 803.805  11
   6  -7   9 269.885 377.867   1
   6  -7   9 22863.3 1615.61  11
   6  -7  10-180.975 423.740   1
   6  -7  11 4568.28 805.591   1
   6  -7  12 1392.42 538.282   1
   6  -7  13 1862.69 572.785   4
   6  -7  13 3970.71 694.528   1
   6  -7  14 10099.2 974.974   1
   6  -7  14 7040.57 1011.84   4
   6  -7  15 4642.24 648.703   1
   6  -7  15 4137.11 736.927   4
   6  -7  16 6758.25 868.308   4
   6  -7  16 8685.06 776.038   1
   6  -7  17 16738.7 947.896   1
   6  -7  17 15212.7 1176.15   4
   6  -7  18-213.807 170.130   4
   6  -7  19 632.002 220.695   4
   6  -6 -19 28586.8 1156.65  10
   6  -6 -19 24976.9 898.285   6
   6  -6 -18 618.170 219.476   6
   6  -6 -18 823.451 305.811  10
   6  -6 -17 34142.3 1608.50  10
   6  -6 -17 32781.3 1414.70   6
   6  -6 -16 2579.22 566.793  10
   6  -6 -16 2471.82 468.673   6
   6  -6 -15 7107.89 965.586  10
   6  -6 -15 6817.37 806.935   6
   6  -6 -14 6590.60 849.893   6
   6  -6 -13 3265.44 653.660   6
   6  -6 -12 1878.74 435.247   6
   6  -6 -11-143.516 414.805   6
   6  -6 -10 4731.82 698.037   8
   6  -6 -10 4478.69 736.085   6
   6  -6  -9 511.104 359.839   8
   6  -6  -9 160.842 327.994   6
   6  -6  -8 11408.0 1156.19   6
  -6   6   8 11094.8 2481.51  13
   6  -6  -8 9980.20 1005.91   8
   6  -6  -7 6228.55 892.778   8
  -6   6   7 3957.08 1489.76  13
   6  -6  -7 6188.63 834.637   6
   6  -6  -6 169.670 266.986   6
   6  -6  -6 242.676 359.557   8
  -6   6   6-5.87757 937.323  13
   6  -6  -6 423.886 327.743  11
  -6   6   5 102051. 7389.52  13
   6  -6  -5 103276. 3081.89   6
   6  -6  -5 95790.2 3149.26   8
   6  -6  -5 104333. 3375.37  11
   6  -6  -4 67649.4 2585.28   8
   6  -6  -4 72206.9 2812.36  11
  -6   6   2 144369. 6254.20  12
  -6   6   1 24793.1 2608.49  12
  -6   6   0 3583.31 1009.21  12
  -6   6  -1 14121.0 2078.50  12
   6  -6   2 19714.1 2280.70   3
  -6   6  -2 22381.7 2640.06  12
  -6   6  -3 1927.69 760.126  12
   6  -6   3 1949.56 761.220   3
   6  -6   4 7688.28 1495.18   3
  -6   6  -4 8635.90 1715.75  12
   6  -6   4 9782.13 1735.09   2
   6  -6   5 3965.71 1193.31   2
  -6   6  -5 2470.98 940.123  12
   6  -6   6 3347.21 746.813   1
   6  -6   6 3784.97 1118.51   2
   6  -6   6 3236.03 576.217  11
   6  -6   7 323.775 400.024   1
   6  -6   7 961.125 682.126   2
   6  -6   7 66.2255 228.850  11
   6  -6   8-438.150 372.210   1
   6  -6   8-13.1373 439.543   2
   6  -6   8 913.857 445.095  11
   6  -6   9 4464.86 808.947   1
   6  -6   9 3131.71 1169.99   2
   6  -6  10 15732.5 2703.57   2
   6  -6  10 20266.3 1557.39   1
   6  -6  11 13713.3 1279.69   1
   6  -6  12 2796.68 622.618   1
   6  -6  13 12146.7 1107.25   1
   6  -6  14 7534.91 899.818   1
   6  -6  15 15065.2 1124.76   1
   6  -6  16 2395.16 651.857   4
   6  -6  16 2138.10 477.528   1
   6  -6  17 11882.7 895.911   1
   6  -6  17 11030.5 1111.71   4
   6  -6  18 2499.93 544.352   4
   6  -6  19-243.928 217.351   4
   6  -6  20 3744.79 467.495   4
   6  -6  21 272.435 124.620   4
   6  -5 -20 142.655 160.145  10
   6  -5 -19 8684.85 740.381  10
   6  -5 -19 7339.12 543.280   6
   6  -5 -18 305.736 300.449  10
   6  -5 -18-46.2254 167.765   6
   6  -5 -17 539.473 373.874  10
   6  -5 -17 840.236 309.155   6
   6  -5 -16 460.558 339.493  10
   6  -5 -16 615.223 320.433   6
   6  -5 -15 4769.77 737.300   6
   6  -5 -14 1253.89 521.997   6
   6  -5 -13 28096.6 1803.43   6
   6  -5 -12 1321.51 381.212   6
   6  -5 -11 21362.0 1574.53   6
   6  -5 -10 253.887 310.353   8
   6  -5 -10 502.969 322.939   6
   6  -5  -9 21415.3 1391.16   8
  -6   5   9 20003.4 3417.84  13
   6  -5  -9 20546.0 1524.59   6
  -6   5   8 3126.55 1200.41  12
   6  -5  -8 3648.88 627.407   6
   6  -5  -8 3571.63 632.940   8
  -6   5   8 3339.97 1267.41  13
   6  -5  -7 627.846 410.279   8
  -6   5   7-302.876 1006.61  13
  -6   5   7 810.454 566.296  12
   6  -5  -7 599.591 284.799   6
  -6   5   6 217.114 461.686  12
  -6   5   5 12147.8 1896.11  12
  -6   5   4 88558.6 4984.70  12
  -6   5   3 13440.7 1913.22  12
  -6   5   2 49022.1 3641.47  12
  -6   5   1 59043.8 3997.09  12
  -6   5   0 4682.64 1145.20  12
  -6   5  -1 24175.5 2627.17  12
   6  -5   2 20382.9 2103.50   3
  -6   5  -2 20839.6 2483.23  12
  -6   5  -3 615.497 602.010  12
   6  -5   3 403.677 389.091   3
   6  -5   3 1205.79 768.973   2
   6  -5   4 19401.6 2371.89   2
   6  -5   4 18186.8 2082.71   3
  -6   5  -4 19311.2 2471.28  12
   6  -5   5 657.142 602.179   2
   6  -5   5 1054.13 548.210   3
   6  -5   6 7598.90 1596.52   2
   6  -5   7 4293.92 1193.92   2
   6  -5   8 2283.07 638.316   1
   6  -5   8 1529.53 711.931   2
   6  -5   9 363.124 608.438   2
   6  -5   9 379.442 469.740   1
   6  -5  10 14311.9 1352.15   1
   6  -5  10 13053.7 2397.97   2
   6  -5  11 866.791 615.173   2
   6  -5  11 2171.09 556.287   1
   6  -5  12 28690.4 1749.89   1
   6  -5  13 6162.22 847.145   1
   6  -5  14 191.116 332.002   1
   6  -5  15 8323.36 923.672   1
   6  -5  16 8268.61 863.340   1
   6  -5  17 20595.9 1216.82   1
   6  -5  19 25911.2 1548.52   4
   6  -5  20 10319.4 897.855   4
   6  -5  21 4548.64 534.600   4
   6  -5  22 4890.18 441.000   4
   6  -4 -20 571.587 235.827  10
   6  -4 -19 571.659 305.066  10
   6  -4 -19 328.428 174.438   6
   6  -4 -18 943.187 361.256  10
   6  -4 -18 561.680 223.258   6
   6  -4 -17 3870.69 728.368  10
   6  -4 -17 4678.72 613.648   6
   6  -4 -16 5563.96 908.304  10
   6  -4 -16 4925.84 692.509   6
   6  -4 -15 3699.73 700.586   6
   6  -4 -14 5373.53 825.381   6
   6  -4 -13 11061.0 1186.00   6
   6  -4 -12 4146.82 672.178   6
   6  -4 -11 3012.50 591.593   6
  -6   4  11 615.704 725.574  12
  -6   4  10 3320.24 1440.86  13
   6  -4 -10 4939.54 680.588   8
   6  -4 -10 4114.25 688.510   6
  -6   4  10 4920.23 1562.74  12
   6  -4  -9-141.112 277.488   8
  -6   4   9 317.389 747.453  13
   6  -4  -9 11.7466 230.809   6
  -6   4   9 331.575 467.422  12
  -6   4   8 3848.08 1279.53  12
   6  -4  -8 3439.01 617.036   6
  -6   4   7 5197.67 1368.41  12
  -6   4   6 883.422 645.227  12
  -6   4   5 7415.68 1462.42  12
  -6   4   4 15265.6 2020.56  12
  -6   4   3-91.1283 347.725  12
  -6   4   2 1394.21 769.154  12
  -6   4   1 508.938 413.326  12
  -6   4   0 377.033 392.621  12
  -6   4  -1 17567.1 2195.23  12
   6  -4   2 810.128 369.928   3
  -6   4  -2 1404.75 737.239  12
   6  -4   3 613.477 394.570   3
   6  -4   3 935.446 767.571   2
  -6   4  -3 1475.70 676.302  12
   6  -4   4 956.966 616.356   2
   6  -4   4 1087.44 526.390   3
   6  -4   5 56271.2 3320.53   3
   6  -4   5 63069.1 4130.24   2
   6  -4   6 6346.23 1391.32   2
   6  -4   7 61331.4 4363.37   2
   6  -4   8 29266.0 3132.45   2
   6  -4   9 2835.30 1042.20   2
   6  -4  10 20041.5 1532.46   1
   6  -4  10 18136.6 2832.14   2
   6  -4  11 4260.50 1457.08   2
   6  -4  11 3052.92 653.343   1
   6  -4  12 32845.0 1822.50   1
   6  -4  12 25661.7 1770.40   9
   6  -4  12 28829.9 3829.48   2
   6  -4  13 648.408 416.627   1
   6  -4  13 1.62846 363.743   9
   6  -4  14 132.305 304.567   1
   6  -4  15 2458.86 553.223   1
   6  -4  15 1676.14 446.327   7
   6  -4  16-126.572 323.461   1
   6  -4  16-14.3857 303.788   7
   6  -4  17 9691.27 880.804   7
   6  -4  18 1103.70 319.949   7
   6  -4  19 10326.2 824.446   7
   6  -4  21 1289.26 357.941   4
   6  -4  22 7498.83 698.909   4
   6  -3 -21 2080.41 308.613  10
   6  -3 -20 8731.41 736.465  10
   6  -3 -19 333.738 313.165  10
   6  -3 -19 102.882 158.353   6
   6  -3 -18-42.4144 266.824  10
   6  -3 -18-27.1269 158.371   6
   6  -3 -17 1934.23 565.250  10
   6  -3 -17 1104.66 352.590   6
   6  -3 -16 856.675 394.487   6
   6  -3 -15 1286.07 543.697   6
   6  -3 -14 9243.70 1056.31   6
   6  -3 -13 2039.03 550.232   6
   6  -3 -12-222.947 419.527   6
   6  -3 -11 13130.6 1216.11   6
  -6   3  11 12797.0 2720.04  13
  -6   3  11 13015.5 2663.29  12
   6  -3 -10 9178.17 1048.64   6
  -6   3  10 7955.47 2168.92  13
  -6   3  10 10692.4 2287.24  12
  -6   3   9 27283.1 3392.38  12
  -6   3   8 13802.0 2258.36  12
  -6   3   7 9354.68 1778.24  12
  -6   3   6 87598.6 5076.07  12
  -6   3   5 3718.25 1056.82  12
  -6   3   4 61800.8 3944.27  12
  -6   3   3 21581.9 2295.27  12
  -6   3   2 4578.46 1075.16  12
  -6   3   1 19574.7 2174.18  12
  -6   3   0 370.881 340.147  12
  -6   3  -1 41275.7 3286.71  12
  -6   3  -2 10790.9 1695.81  12
   6  -3   2 11359.7 1663.81   2
  -6   3  -3 729.665 422.799  12
   6  -3   3 501.865 622.154   2
   6  -3   4 597.350 608.870   2
   6  -3   5 54549.5 3736.29   2
   6  -3   6 3962.65 1020.33   2
   6  -3   7 2014.65 770.717   2
   6  -3   8 36219.5 3399.35   2
   6  -3   9 19283.0 2638.10   2
   6  -3  10 496.154 700.404   2
   6  -3  11 3236.46 1351.08   2
   6  -3  12 4500.66 787.174   9
   6  -3  12 6100.48 851.326   1
   6  -3  12 5922.15 1757.93   2
   6  -3  13 3837.31 671.169   1
   6  -3  13 4129.75 815.673   9
   6  -3  14 859.994 525.255   9
   6  -3  14 226.918 308.532   7
   6  -3  14 212.471 297.648   1
   6  -3  15 1879.48 509.813   1
   6  -3  15 1435.53 437.222   7
   6  -3  16 25620.1 1447.23   7
   6  -3  16 25403.5 1543.56   1
   6  -3  17 1836.71 478.563   7
   6  -3  18 6263.89 712.666   7
   6  -3  19 8557.76 782.224   7
  -6   3 -20 506.535 286.439   5
   6  -3  20 1094.31 356.398   7
  -6   3 -21 4693.30 608.915   5
   6  -3  21 5087.33 542.114   7
  -6   3 -22 1110.99 266.430   5
   6  -3  23 202.808 153.817   4
   6  -2 -21 1717.56 297.142  10
   6  -2 -20 2782.36 446.969  10
   6  -2 -19 4742.97 652.792  10
   6  -2 -18 4309.68 687.422  10
   6  -2 -18 2972.04 435.300   6
   6  -2 -17 3864.49 699.892  10
   6  -2 -17 4089.87 591.073   6
   6  -2 -16 773.605 505.280  10
   6  -2 -16 755.710 351.070   6
   6  -2 -15 9493.04 988.358   6
   6  -2 -14 11101.6 1092.29   6
   6  -2 -13-122.116 312.498   6
   6  -2 -12 11063.1 1102.15   6
  -6   2  12 9856.78 2361.38  13
  -6   2  12 10650.2 2500.67  12
  -6   2  11 4267.17 1505.59  13
   6  -2 -11 3821.13 674.689   6
  -6   2  11 5108.41 1808.34  12
  -6   2  10 25949.5 3422.86  12
  -6   2   9 6590.17 1670.11  12
  -6   2   8 13724.9 2238.59  12
  -6   2   7-118.275 474.373  12
  -6   2   6 78012.7 4665.70  12
  -6   2   5 35580.3 3062.97  12
  -6   2   4 2147.04 786.422  12
  -6   2   3 11711.5 1630.06  12
  -6   2   2 88507.5 4458.08  12
  -6   2   1 37804.2 2920.87  12
  -6   2   0 147189. 5813.93  12
  -6   2  -1 12422.7 1749.79  12
   6  -2   2 19352.6 2140.81   2
  -6   2  -2 20072.8 2216.84  12
   6  -2   3 32141.0 2679.03   2
   6  -2   4 34582.4 2853.73   2
   6  -2   5 3903.08 938.722   2
   6  -2   6 7596.88 1400.67   2
   6  -2   7 2326.00 886.734   2
   6  -2   8 20826.1 2472.15   2
   6  -2   9 50819.2 4074.54   2
   6  -2  10 78981.1 5404.80   2
   6  -2  11 941.754 921.750   2
   6  -2  12 52863.4 2541.45   9
   6  -2  12 63633.3 5469.14   2
   6  -2  13 3229.00 718.891   9
   6  -2  13 2952.01 1340.70   2
   6  -2  13 4023.58 630.197   7
   6  -2  14 41473.2 2426.92   9
   6  -2  14 40901.7 1788.60   7
   6  -2  15 26760.8 1982.80   9
   6  -2  15 28417.4 1623.96   1
   6  -2  15 24836.8 1442.43   7
   6  -2  16 15190.3 1215.50   1
   6  -2  16 13901.5 1098.24   7
   6  -2  17 6763.50 760.406   7
   6  -2  18 625.158 349.432   7
   6  -2  19 3939.18 595.503   7
   6  -2  20 509.493 263.960   7
  -6   2 -21 1054.57 374.810   5
   6  -2  21 1070.58 316.938   7
  -6   2 -22 218.505 236.660   5
   6  -2  22 357.068 243.048   7
  -6   2 -23 139.071 131.913   5
   6  -1 -21 809.645 243.181  10
   6  -1 -20-0.65085 205.191  10
   6  -1 -19 2311.54 482.398  10
   6  -1 -19 1311.89 317.983   5
   6  -1 -18 1461.58 438.367  10
   6  -1 -18 1002.43 304.321   5
   6  -1 -17 6089.63 855.024  10
   6  -1 -17 5622.95 704.285   5
   6  -1 -16 18871.7 1544.35  10
   6  -1 -16 18640.8 1367.60   5
   6  -1 -15 24600.2 1666.72   5
   6  -1 -14 49440.8 2417.37   5
   6  -1 -13 4817.42 818.111   5
  -6   1  12 10844.8 2595.74  12
  -6   1  12 10307.4 2360.66  13
   6  -1 -12 12935.9 1231.48   5
  -6   1  11 19924.2 3217.70  12
  -6   1  11 19137.3 3170.38  13
   6  -1 -11 15547.9 1443.46   5
  -6   1  10 256.820 674.898  12
  -6   1   9 6860.78 1727.39  12
  -6   1   8 1055.34 716.732  12
  -6   1   7 539.471 612.126  12
  -6   1   6 13668.4 2011.13  12
  -6   1   5 4061.63 1037.63  12
  -6   1   4 3259.06 912.404  12
  -6   1   3 5537.54 1139.24  12
  -6   1   2 44441.0 3119.00  12
  -6   1   1 12122.9 1608.65  12
  -6   1   0 82023.8 4218.79  12
  -6   1  -1 10488.4 1521.87  12
   6  -1   2 68205.1 3835.63   2
  -6   1  -2 69989.9 3950.63  12
   6  -1   3 46220.2 3098.96   2
   6  -1   4 10837.8 1540.79   2
   6  -1   5 22097.4 2236.16   2
   6  -1   6 29939.7 2729.88   2
   6  -1   7 50684.4 3517.60   2
   6  -1   8 6024.15 1337.55   2
   6  -1   9 5219.10 1305.02   2
   6  -1  10 51201.4 4248.55   2
   6  -1  11 1370.05 884.622   2
   6  -1  12 9315.73 2083.57   2
   6  -1  13 21119.9 1670.48   9
   6  -1  13 23845.6 1329.72   7
   6  -1  13 22854.9 3296.93   2
   6  -1  14 462.274 487.543   9
   6  -1  14 374.945 325.975   7
   6  -1  15 3077.38 755.070   9
   6  -1  15 2001.92 1059.83   2
   6  -1  15 2191.41 487.393   7
   6  -1  16 7593.80 1115.76   9
   6  -1  16 8553.12 907.733   7
   6  -1  17 10186.2 990.848   7
   6  -1  18 45882.0 1918.39   7
   6  -1  19 12084.0 999.906   7
   6  -1  20 1925.04 453.369   7
   6  -1  21 9599.38 812.933   7
   6  -1  22 6397.98 606.467   7
  -6   1 -22 6037.15 708.024   5
  -6   1 -23 1974.50 382.052   5
   6  -1  23 2640.57 365.104   7
   6   0 -20 6747.86 655.862  10
   6   0 -20 5242.76 534.743   5
   6   0 -19 1504.60 414.600  10
   6   0 -19 1115.47 325.902   5
   6   0 -18 20409.4 1374.65  10
   6   0 -18 17684.8 1203.53   5
   6   0 -17 798.372 412.859  10
   6   0 -17 417.334 305.939   5
   6   0 -16 8880.85 1075.43  10
   6   0 -16 8153.45 982.437   5
   6   0 -15 7798.48 1092.30  10
   6   0 -15 7774.09 996.631   5
   6   0 -14 19930.1 1638.76   5
   6   0 -13 9702.99 1169.49   5
   6   0 -12 2131.61 592.982   5
  -6   0  12 935.228 917.976  12
   6   0 -11 15451.4 1389.81   5
  -6   0  11 17540.1 3110.20  12
  -6   0  10 12307.3 2498.71  12
  -6   0   9 10646.5 2109.65  12
  -6   0   8 15492.2 2354.48  12
  -6   0   7 627.517 630.319  12
  -6   0   6 29881.7 2894.08  12
  -6   0   5 4598.80 1139.72  12
  -6   0   4 45926.5 3237.34  12
  -6   0   3 466.609 512.717  12
  -6   0   2 22763.2 2176.95  12
  -6   0   1 3516.97 902.390  12
  -6   0   0 32615.6 2584.14  12
  -6   0  -1 3780.97 904.913  12
  -6   0  -2 73425.6 3922.35  12
   6   0   2 76326.9 3894.91   2
   6   0   3 788.112 548.203   2
   6   0   4 28978.5 2396.66   2
   6   0   5 649.111 430.400   2
   6   0   6 10951.3 1591.42   2
   6   0   7 242312. 7462.35   2
   6   0   8 15535.7 2063.12   2
   6   0   9 94153.9 5168.56   2
   6   0   9 80826.9 4423.84  13
   6   0  10 54646.9 3717.05  13
   6   0  10 74328.6 4944.64   2
   6   0  11 10758.0 2052.06   2
   6   0  12 511.446 455.852   2
   6   0  13 510.846 678.664   2
   6   0  13 156.435 325.093   9
   6   0  14 2075.81 1084.10   2
   6   0  14 2642.09 673.682   9
   6   0  14 2965.38 564.474   7
   6   0  15 2776.19 1151.78   2
   6   0  15 3258.57 832.548   9
   6   0  15 3185.73 562.114   7
   6   0  16 27286.6 2055.86   9
   6   0  16 26771.8 1495.68   7
   6   0  17 6294.23 771.900   7
   6   0  18 16395.5 1216.64   7
   6   0  19 16954.4 1218.85   7
   6   0  20 683.073 345.283   7
   6   0  21 4615.78 620.694   7
   6   0  22 8288.92 713.153   7
  -6   0 -23 521.080 266.075   5
   6   0  23 397.701 207.053   7
  -6   0 -24 14788.4 794.132   5
   6   0  24 16274.8 753.026   7
   6   1 -21-46.7927 111.573   5
   6   1 -20 290.210 181.907   5
   6   1 -19 6011.14 673.195  10
   6   1 -19 5697.40 662.257   5
   6   1 -18 2210.55 522.516   5
   6   1 -18 2173.54 486.053  10
   6   1 -17 901.268 423.859  10
   6   1 -17 1063.03 380.375   5
   6   1 -16 6156.06 897.855  10
   6   1 -16 5198.63 845.337   5
   6   1 -15 3466.76 841.223  10
   6   1 -15 3587.99 744.907   5
   6   1 -14 2432.31 735.889  10
   6   1 -14 2633.08 680.574   5
   6   1 -13 501.837 479.985  10
   6   1 -13 358.830 370.996   5
   6   1 -12 27183.9 1898.34   5
   6   1 -12 26780.6 1933.57  10
  -6  -1  12 25115.0 3870.91  12
   6   1 -11 46892.1 2418.10   5
  -6  -1  11 41487.4 4860.21  12
  -6  -1  10 25073.7 3504.83  12
  -6  -1   9 79151.6 5747.71  12
  -6  -1   8 1123.41 813.918  12
  -6  -1   7 88089.3 5301.10  12
  -6  -1   6 1297.28 702.505  12
  -6  -1   5 68224.8 4081.74  12
  -6  -1   4 6248.70 1235.34  12
  -6  -1   3 5047.41 1060.51  12
  -6  -1   2 987.181 541.220  12
  -6  -1   1 23647.9 2167.44  12
  -6  -1   0 7732.70 1255.20  12
  -6  -1  -1 20135.5 1986.61  12
  -6  -1  -2 17262.1 1878.73  12
   6   1   3 66628.5 3557.32   2
   6   1   4 1237.67 510.264   2
   6   1   5 64458.4 3564.04  13
   6   1   5 60767.5 3445.85   2
   6   1   6 3514.72 917.956  13
   6   1   6 2992.03 847.543   2
   6   1   7 122193. 5253.96  13
   6   1   7 117555. 5058.77   2
   6   1   8 104077. 4992.21   2
   6   1   8 106385. 5104.39  13
   6   1   9 22728.1 2482.37   2
   6   1   9 20178.3 2328.38  13
   6   1  10 22488.6 2494.71  13
   6   1  10 29720.2 3016.44   2
   6   1  11 2613.18 1037.11   2
   6   1  11 1608.86 617.078  13
   6   1  12 2975.15 1131.27   2
   6   1  12 532.481 517.057  13
   6   1  13-279.183 936.373   2
   6   1  13 86.6590 295.503   9
   6   1  14 296.422 620.918   2
   6   1  14 15.1241 336.844   9
   6   1  14 446.185 299.305   7
   6   1  15 1614.82 627.676   9
   6   1  15 690.801 615.345   2
   6   1  15 1701.28 475.935   7
   6   1  16 9363.72 1260.92   9
   6   1  16 9794.87 953.160   7
   6   1  17-241.409 372.474   9
   6   1  17-17.6879 330.095   7
   6   1  18 8981.38 963.790   7
   6   1  19 5006.56 738.105   7
   6   1  20 3081.43 590.751   7
   6   1  21 1518.50 474.517   7
   6   1  22 101.199 265.024   7
  -6  -1 -23 4169.81 579.261   5
   6   1  23 4488.55 501.036   7
  -6  -1 -24 6338.35 575.644   5
   6   1  24 7737.81 547.901   7
   6   2 -21 6764.33 538.597   5
   6   2 -20 4528.38 535.928   5
   6   2 -19 24942.7 1352.29   5
   6   2 -18 2499.47 571.853   5
   6   2 -18 3088.13 515.823  10
   6   2 -17 1255.53 405.840  10
   6   2 -17 797.275 381.265   5
   6   2 -16 12113.9 1138.97  10
   6   2 -16 12955.3 1230.44   5
   6   2 -15 434.787 339.810  10
   6   2 -15-83.3444 351.154   5
   6   2 -14 11867.9 1274.89  10
   6   2 -14 12604.8 1327.22   5
   6   2 -13 1566.04 605.639  10
   6   2 -13 1041.70 462.732   5
   6   2 -12 41737.8 2379.70   5
   6   2 -12 40673.7 2264.99  10
  -6  -2  12 38003.2 4643.49  12
   6   2 -11 74701.9 3111.29   5
   6   2 -11 81766.9 3186.68  10
  -6  -2  11 84280.4 6747.38  12
  -6  -2  10-867.162 970.649  12
  -6  -2   9 54859.1 4894.87  12
  -6  -2   8 2379.74 987.218  12
  -6  -2   7 15820.9 2314.21  12
  -6  -2   6 30110.5 2951.90  12
  -6  -2   5 1463.29 674.592  12
  -6  -2   4 13116.1 1693.73  12
  -6  -2   3 36496.8 2731.20  12
  -6  -2   2 9617.59 1365.35  12
  -6  -2   1 20053.5 1925.61  12
  -6  -2   0 69492.9 3601.27  12
  -6  -2  -1 755.784 439.163  12
  -6  -2  -2 9793.08 1359.96  12
   6   2   3 1814.99 605.316  13
  -6  -2  -3 2106.46 640.133  12
   6   2   4 9644.80 1406.91  13
   6   2   4 11006.8 1402.64   2
   6   2   5 13251.5 1709.10  13
   6   2   5 14698.3 1654.35   2
   6   2   6 39882.2 2776.84   2
   6   2   6 39977.9 3009.65  13
   6   2   7 4516.35 1063.16  13
   6   2   7 3881.63 954.887   2
   6   2   8 13608.1 1936.55  13
   6   2   8 12111.3 1669.48   2
   6   2   9 26958.8 2616.66   2
   6   2   9 27108.8 2809.19  13
   6   2  10 32883.8 3076.62   2
   6   2  10 26043.6 2868.27  13
   6   2  11 873.272 690.010   2
   6   2  11 713.416 392.378  13
   6   2  12 5637.57 1440.85  13
   6   2  12 6799.35 1586.33   2
   6   2  13 1757.06 523.280   9
   6   2  13 954.763 641.614   2
   6   2  13 1095.71 691.638  13
   6   2  14 2453.68 594.372   9
   6   2  14 2422.03 1152.08   2
   6   2  14 2605.64 539.249   7
   6   2  15 14105.8 1454.99   9
   6   2  15 16685.9 1337.92   7
   6   2  15 13646.4 2526.82   2
   6   2  16 7290.20 1098.88   9
   6   2  16 7350.42 855.259   7
   6   2  17 2106.05 619.871   9
   6   2  17 2915.25 626.731   7
   6   2  18 1074.56 468.739   7
   6   2  19 1483.87 451.099   7
   6   2  20 9175.03 926.783   7
   6   2  21 8702.92 832.706   7
   6   2  22 1145.43 370.264   7
  -6  -2 -23 2382.00 475.428   5
   6   2  23 2424.28 412.067   7
  -6  -2 -24 99.5917 170.868   5
   6   2  24 39.8998 157.925   7
  -6  -2 -24 33.2112 129.396   6
   6   3 -21 61.2347 125.491   5
   6   3 -20 5720.25 600.102   5
   6   3 -19 2102.77 439.761   5
   6   3 -18 6068.41 789.792   5
   6   3 -17 5461.29 796.423   5
   6   3 -16 4520.40 815.877   5
   6   3 -15 15008.2 1263.36  10
   6   3 -15 14786.5 1451.45   5
   6   3 -14 26428.2 1727.29  10
   6   3 -14 27888.4 1964.65   5
   6   3 -13 8847.12 1058.52  10
   6   3 -13 9347.43 1202.46   5
   6   3 -12 84370.4 3146.83  10
  -6  -3  12 94260.6 7133.85  12
   6   3 -12 84748.2 3440.14   5
   6   3 -11 12720.1 1229.27  10
  -6  -3  11 13117.5 2679.01  12
   6   3 -11 10701.0 1240.95   5
  -6  -3  10 13817.6 2703.53  12
   6   3 -10 11004.6 1217.23   5
  -6  -3   9 2523.63 1155.44  12
  -6  -3   8 467.248 510.115  12
  -6  -3   7 3827.80 1218.90  12
  -6  -3   6 1563.46 797.579  12
  -6  -3   5 59033.3 3867.14  12
  -6  -3   4 4878.85 1101.79  12
  -6  -3   3 93814.2 4343.40  12
  -6  -3   2 16920.4 1792.62  12
  -6  -3   1 14194.4 1589.10  12
  -6  -3   0 35660.5 2516.88  12
  -6  -3  -1 7699.98 1147.22  12
   6   3   2 47793.0 3109.78  13
  -6  -3  -2 49126.8 2959.87  12
   6   3   3 51589.1 3276.43  13
  -6  -3  -3 51626.5 3096.09  12
  -6  -3  -4 18780.1 1877.00  12
   6   3   4 19604.1 2059.19  13
   6   3   5 57071.0 3638.98  13
   6   3   5 59625.1 3228.68   2
   6   3   6 14909.1 1638.42   2
   6   3   6 14349.1 1883.05  13
   6   3   7 11718.1 1510.29   2
   6   3   7 11968.0 1796.63  13
   6   3   8 1422.89 675.465   2
   6   3   8 1299.00 778.843  13
   6   3   9 23489.5 2718.99  13
   6   3   9 23479.1 2328.36   2
   6   3  10 39435.8 3651.87  13
   6   3  10 48843.1 3593.40   2
   6   3  11 558.469 501.093  13
   6   3  11 1046.88 734.757   2
   6   3  12 6175.32 1528.79  13
   6   3  12 7581.51 1628.30   2
   6   3  13 1624.50 494.936   9
   6   3  13 1264.50 727.657   2
   6   3  13 1508.90 479.362   7
   6   3  13 1861.87 922.292  13
   6   3  14 2602.79 645.651   9
   6   3  14 4240.88 762.653   7
   6   3  14 3539.19 1317.09  13
   6   3  15 1137.87 568.779   9
   6   3  15 798.814 389.910   7
   6   3  16 1470.47 615.111   9
   6   3  16 1475.14 536.590   7
   6   3  17 1522.82 492.210   7
   6   3  18 10822.9 1028.66   7
   6   3  19 169.296 361.417   7
   6   3  20 15748.5 1136.15   7
   6   3  21 12140.9 959.483   7
   6   3  22 1200.90 386.627   7
   6   3  23 1603.04 344.233   7
  -6  -3 -24 465.235 228.981   5
   6   3  24 237.476 171.399   7
   6   4 -21 1766.07 277.586   5
   6   4 -20 735.271 266.552   5
   6   4 -19 2854.86 497.884   5
   6   4 -18 1475.80 424.171   5
   6   4 -17 17218.2 1419.43   5
   6   4 -16 28639.4 1900.12   5
   6   4 -15 1582.92 605.711   5
   6   4 -14 17116.9 1553.38   5
   6   4 -13 15936.2 1578.71   5
   6   4 -12 415.518 359.773   5
  -6  -4  12 1000.77 1059.40  12
   6   4 -11-106.094 422.861   5
  -6  -4  11 724.909 943.369  12
   6   4 -10 2534.94 643.527   5
  -6  -4  10 3143.35 1398.01  12
  -6  -4   9-269.474 527.414  12
  -6  -4   8 13983.2 2406.72  12
  -6  -4   7 697.133 590.364  12
  -6  -4   6 2932.94 988.382  12
  -6  -4   5 20328.1 2307.79  12
  -6  -4   4 1244.72 557.508  12
  -6  -4   3 17379.3 1879.07  12
  -6  -4   2 87714.4 3984.75  12
  -6  -4   1 10277.1 1319.14  12
  -6  -4   0 10327.0 1279.68  12
   6   4   1 18557.6 1969.39  13
  -6  -4  -1 17124.0 1653.62  12
  -6  -4  -2 8275.00 1171.27  12
   6   4   2 7967.24 1353.49  13
   6   4   3 46617.4 3197.76  13
  -6  -4  -3 45687.0 2747.38  12
   6   4   4 79020.2 4279.47  13
  -6  -4  -4 77114.6 3629.08  12
   6   4   5 4332.65 1080.29  13
  -6  -4  -5 3464.14 802.100  12
   6   4   6 42183.0 3376.64  13
   6   4   6 41728.3 2643.06   2
   6   4   7 22399.4 2531.92  13
   6   4   7 22126.4 1971.01   2
   6   4   8 6986.66 1199.75   2
   6   4   8 7781.85 1628.38  13
   6   4   9 26429.9 3056.86  13
   6   4   9 27741.4 2424.42   2
   6   4  10 1596.35 799.365  13
   6   4  10 3392.09 847.403   2
   6   4  11 1500.42 810.198  13
   6   4  12 3146.35 1194.27  13
   6   4  13-265.825 380.061   9
   6   4  13-509.091 453.080   7
   6   4  14 865.711 415.872   9
   6   4  14 1173.59 439.754   7
   6   4  14 1886.47 914.882  13
   6   4  15 1837.00 690.426   9
   6   4  15 2000.89 573.973   7
   6   4  15 1667.86 881.527  13
   6   4  16 2157.08 678.695   9
   6   4  16 1413.59 453.445   7
   6   4  17 12351.2 1149.90   7
   6   4  18 39536.8 1910.58   7
   6   4  19 7526.51 855.592   7
   6   4  20 14997.0 1113.37   7
   6   4  21 13720.6 1010.45   7
   6   4  22 487.947 319.732   7
  -6  -4 -22 167.761 196.674   6
   6   4  23 1212.88 289.435   7
  -6  -4 -23 892.149 209.333   6
  -6  -4 -24 541.939 196.240   5
   6   4  24 182.006 161.365   7
   6   5 -20 462.973 207.606   5
   6   5 -19 4529.40 595.324   5
   6   5 -18 4455.73 657.452   5
   6   5 -17 1453.94 478.616   5
   6   5 -16 6775.78 932.162   5
   6   5 -15 10572.8 1264.49   5
   6   5 -14 20509.1 1723.79   5
   6   5 -13 3567.70 796.165   5
   6   5 -12 489.899 364.381   5
  -6  -5  11 29004.4 3825.69   2
  -6  -5  11 30478.1 3773.53  12
   6   5 -11 25940.4 1921.09   5
   6   5 -10 1030.12 448.453   5
  -6  -5  10 1215.13 885.805  12
  -6  -5   9 37221.4 4036.40  12
   6   5  -9 45205.5 2361.42   5
  -6  -5   8 1748.47 966.849  12
  -6  -5   7 2348.88 1009.74  12
  -6  -5   6 16363.8 2333.66  12
  -6  -5   5 16569.7 2157.37  12
  -6  -5   4 1073.18 592.980  12
  -6  -5   3 28298.2 2414.34  12
  -6  -5   2 218.436 293.206  12
  -6  -5   1 950.351 455.180  12
   6   5   0 25181.5 2382.22  13
  -6  -5   0 24339.7 1888.45  12
  -6  -5  -1 11977.3 1282.93  12
   6   5   1 10812.4 1572.96  13
  -6  -5  -2 66285.6 2991.24  12
   6   5   2 68663.7 3945.16  13
  -6  -5  -3 9373.33 1128.58  12
   6   5   3 10242.2 1573.97  13
   6   5   4 68117.3 4085.90  13
  -6  -5  -4 64603.2 3048.56  12
   6   5   5 1113.93 572.539  13
  -6  -5  -5 1262.22 445.565  12
   6   5   6 9362.33 1652.27  13
  -6  -5  -6 9382.63 1273.46  12
   6   5   7 6863.13 1511.50  13
   6   5   8 2300.31 1007.42  13
   6   5   9 33237.7 3507.93  13
   6   5  10 943.943 661.680  13
   6   5  11-253.292 777.532  13
   6   5  12 7861.96 872.177   7
   6   5  12 8000.95 1865.39  13
   6   5  13 684.852 302.138   9
   6   5  13 860.376 346.340   7
   6   5  13 1103.20 644.761  13
   6   5  14 21216.4 1735.81   9
   6   5  14 17548.6 1362.81   7
   6   5  14 22902.7 3142.40  13
   6   5  15 5757.79 969.915   9
   6   5  15 5458.56 816.952   7
   6   5  16 33.1038 374.717   9
   6   5  16 15.5768 421.580   7
   6   5  17 2171.36 544.737   7
   6   5  18 11026.5 1051.61   7
   6   5  19 12797.0 1074.59   7
   6   5  20 1957.50 500.285   7
   6   5  21 663.804 281.967   7
  -6  -5 -21 417.730 249.087   6
   6   5  22 5184.09 556.015   7
  -6  -5 -22 3700.31 441.112   6
  -6  -5 -23 248.715 204.127   5
   6   5  23 241.605 171.835   7
   6   5  24 2417.33 274.349   7
   6   6 -20-85.2886 136.086   5
   6   6 -19 7012.06 639.870   5
   6   6 -18 708.312 303.139   5
   6   6 -17 928.061 379.410   5
   6   6 -16 2893.10 575.753   5
   6   6 -15 3737.83 691.748   5
   6   6 -14 3506.84 750.655   5
   6   6 -13 27845.7 1916.36   5
   6   6 -12 6890.62 1008.06   5
   6   6 -11 606.932 332.627   5
   6   6 -10 748.168 451.817   5
  -6  -6  10 242.914 757.553   2
  -6  -6   9 45142.8 4530.36   2
  -6  -6   9 43449.9 4215.24  12
   6   6  -9 49942.9 2453.93   5
   6   6  -8 662.396 406.620   5
  -6  -6   8 946.541 650.334  12
  -6  -6   7 35909.8 3597.30  12
  -6  -6   6 3230.83 1054.59  12
  -6  -6   5 38610.5 3407.78  12
   6   6   0 5736.15 1187.45  13
   6   6   1 586.450 414.425  13
   6   6   2 1109.09 572.231  13
   6   6   3 2883.55 933.956  13
   6   6   4 6413.15 1347.00  13
   6   6   5 94.4411 476.436  13
   6   6   6 1217.92 728.614  13
   6   6   7 1816.48 843.005  13
   6   6   8 128330. 6878.60  13
   6   6   9 6886.98 1729.78  13
   6   6  10 34122.7 3832.47  13
  -6  -6 -11 5438.13 786.389   4
   6   6  11 6781.43 855.596   7
   6   6  11 4679.04 1474.74  13
   6   6  12 3861.17 674.679   7
   6   6  12 3722.56 1218.23  13
   6   6  13 1175.87 803.283  13
   6   6  13 1541.56 446.745   7
   6   6  14 10687.7 1196.00   9
   6   6  14 8476.52 903.502   7
   6   6  14 11843.8 2380.67  13
   6   6  15 11528.3 1248.62   9
   6   6  15 11187.1 1110.81   7
   6   6  16 419.097 432.135   7
   6   6  17 735.015 404.844   7
   6   6  18 482.537 385.717   7
  -6  -6 -19-65.3121 190.277   6
   6   6  19-37.6468 337.308   7
   6   6  20 9595.01 854.923   7
  -6  -6 -20 7598.83 709.777   6
   6   6  21 53.8393 241.411   7
   6   6  22 4714.44 499.797   7
  -6  -6 -23 399.285 182.832   5
   6   6  23-104.817 143.061   7
   6   7 -19 709.889 203.183   5
   6   7 -18 3323.67 462.691   5
   6   7 -17 215.003 226.464   5
   6   7 -16 4997.22 681.876   5
   6   7 -15 12663.8 1157.15   5
   6   7 -14 6659.14 890.412   5
   6   7 -13 1136.09 427.451   5
   6   7 -12 850.287 364.217   5
   6   7 -11 2924.55 625.679   5
   6   7 -10 659.400 440.821   5
   6   7  -9 3622.85 741.494   5
  -6  -7   9 2767.72 572.466   4
   6   7  -8 1594.72 576.545   5
  -6  -7   8 439.848 319.245   4
  -6  -7   7 5384.77 733.380   4
   6   7  -7 5701.46 846.966   5
   6   7   0 52178.6 3595.52  13
   6   7   1 2069.15 769.615  13
   6   7   2 91.4612 365.425  13
   6   7   3 4598.48 1172.85  13
   6   7   4 814.786 403.363  13
   6   7   5 3768.82 1090.12  13
   6   7   6 9867.94 1873.36  13
   6   7   7 5224.22 1455.51  13
   6   7   8 19088.0 2762.40  13
   6   7   9 9117.44 2041.04  13
  -6  -7 -10 1763.76 456.517   4
   6   7  10 2124.22 480.287   5
  -6  -7 -11 17176.4 1438.27   4
   6   7  11 14162.2 2588.07  13
  -6  -7 -12-12.3537 310.249   4
   6   7  12-224.244 400.003   7
   6   7  12-194.982 1026.58  13
   6   7  13 524.681 398.732   7
   6   7  13-1257.14 1084.76  13
   6   7  14 12866.4 1158.99   7
   6   7  15 7846.44 893.697   7
   6   7  16 7529.20 952.521   7
   6   7  17 38785.8 1870.39   7
   6   7  18 373.822 403.398   7
   6   7  19 15459.8 1053.51   7
   6   7  20 9144.13 776.996   7
   6   7  21-128.611 260.621   7
  -6  -7 -22 696.064 218.259   5
   6   7  22 1107.92 263.159   7
   6   8 -18 348.074 165.119   5
   6   8 -17 13052.4 865.289   5
   6   8 -16-10.5874 221.987   5
   6   8 -15 25945.4 1491.96   5
   6   8 -14 924.398 393.700   5
  -6  -8  13 11566.8 1034.79   4
   6   8 -13 10976.8 1146.95   5
   6   8 -12 2043.07 536.170   5
  -6  -8  12 2790.54 597.595   4
   6   8 -11-910.258 597.081   5
  -6  -8  11-66.8179 243.531   4
   6   8 -10 2257.96 556.426   5
  -6  -8  10 1702.52 492.667   4
   6   8  -9 720.232 381.498   5
  -6  -8   9 493.273 279.039   4
   6   8  -8 8.92809 243.658   5
  -6  -8   8-237.017 278.071   4
  -6  -8   7 10942.3 1118.81   4
   6   8  -7 10859.0 1066.51   5
   6   8  -6 2583.01 532.083   5
  -6  -8   6 3265.41 608.712   4
  -6  -8   5 15924.3 1241.01   4
   6   8  -5 15239.3 1159.23   5
  -6  -8   4 3798.90 610.973   4
   6   8   0 12763.2 1879.19  13
   6   8   1 2389.40 914.694  13
   6   8   2 2764.80 953.270  13
   6   8   3 7462.71 1503.96  13
   6   8   4 562.558 588.430  13
   6   8   5 21129.5 2669.27  13
   6   8   6 27707.7 3180.51  13
   6   8   7 26393.4 3281.75  13
  -6  -8  -8 40908.0 1978.95   4
   6   8   8 42390.9 4278.70  13
  -6  -8  -9 832.204 379.783   4
   6   8   9 131.261 558.624  13
  -6  -8 -10 2561.64 578.253   4
   6   8  10 1217.73 622.580  13
  -6  -8 -11 4657.14 804.208   4
   6   8  11 3004.96 1145.71  13
  -6  -8 -12 8845.39 1088.77   4
   6   8  12 11733.9 1154.56   7
   6   8  13 2775.24 626.033   7
   6   8  14 3069.51 508.802   7
   6   8  15 46758.5 2116.73   7
   6   8  16 2945.08 700.983   7
   6   8  17 69474.9 2389.80   7
   6   8  18 33302.7 1570.70   7
   6   8  19 13996.5 958.663   7
   6   8  20 21636.5 1085.01   7
   6   8  21-153.172 219.584   7
   6   8  22 3754.42 376.515   7
   6   9 -17 1038.26 231.367   5
   6   9 -16 1302.92 300.356   5
   6   9 -15 3455.74 515.585   5
  -6  -9  14 9495.52 797.326   4
   6   9 -14 8675.46 904.123   5
  -6  -9  13 7845.49 818.405   4
   6   9 -13 6281.42 840.117   5
   6   9 -12-199.219 355.305   5
  -6  -9  12 45.3672 272.984   4
  -6  -9  11 13514.7 1250.63   4
   6   9 -11 9493.17 1028.81   5
  -6  -9  10 6402.06 888.985   4
   6   9 -10 5462.30 798.485   5
  -6  -9   9 6794.85 907.872   4
   6   9  -9 8882.30 1007.08   5
   6   9  -8 1963.72 514.879   5
  -6  -9   8 2303.41 547.567   4
   6   9  -7 92.8200 251.480   5
  -6  -9   7 384.021 262.033   4
  -6  -9   6 19100.8 1460.38   4
   6   9  -6 18414.2 1335.23   5
  -6  -9   5 4007.37 678.445   4
   6   9  -5 4205.45 650.996   5
  -6  -9   4 10607.3 1012.79   4
  -6  -9   3 2447.10 556.250   4
  -6  -9   2 4896.84 708.615   4
  -6  -9   1 51597.0 2141.46   4
  -6  -9   0 6090.32 729.776   4
  -6  -9  -1 12038.0 1027.84   4
   6   9   2 1877.94 941.054  13
  -6  -9  -2 305.055 225.162   4
  -6  -9  -3 26011.4 1505.18   4
   6   9   3 26138.8 2933.79  13
  -6  -9  -4 18358.4 1295.73   4
   6   9   4 18643.1 2552.47  13
  -6  -9  -5 32676.5 1747.97   4
   6   9   5 32405.1 3466.38  13
  -6  -9  -6 37878.5 1901.97   4
   6   9   6 37808.3 3825.11  13
  -6  -9  -7-68.7912 223.204   4
   6   9   7 484.477 864.246  13
  -6  -9  -8 14106.7 1225.93   4
   6   9   8 16069.2 2808.33  13
  -6  -9  -9 5695.12 817.775   4
   6   9   9 6599.03 1818.54  13
  -6  -9 -10 477.425 382.373   4
   6   9  10-13.1416 896.263  13
  -6  -9 -11 4969.39 816.776   4
  -6  -9 -12 16436.6 1450.73   4
   6   9  12 19793.0 1394.75   7
   6   9  13 6658.42 839.110   7
   6   9  14-539.299 592.590   7
   6   9  15 5850.08 725.324   7
   6   9  16 389.985 412.226   7
   6   9  17 22108.5 1300.89   7
   6   9  18 5262.72 621.489   7
   6   9  19 839.587 301.024   7
   6   9  20 3013.69 423.771   7
   6   9  21 6166.36 463.768   7
  -6 -10  14 6003.95 602.509   4
   6  10 -14 4826.21 553.831   5
  -6 -10  13 11061.5 882.276   4
   6  10 -13 8703.38 807.723   5
  -6 -10  12 18488.0 1280.26   4
   6  10 -12 16407.3 1146.48   5
   6  10 -11 1392.16 411.491   5
  -6 -10  11 1874.34 484.517   4
  -6 -10  10 11992.7 1195.26   4
   6  10 -10 10598.5 1024.99   5
   6  10  -9 2162.40 518.173   5
  -6 -10   9 1105.82 384.299   4
  -6 -10   8 10577.2 1156.19   4
  -6 -10   7 2735.77 616.547   4
  -6 -10   6 14738.8 1311.39   4
  -6 -10   5 98346.7 3295.41   4
  -6 -10   4 20533.6 1488.97   4
  -6 -10   3 5103.45 728.825   4
  -6 -10   2 2562.34 534.950   4
  -6 -10   1 16448.7 1270.59   4
  -6 -10   0 637.344 311.627   4
  -6 -10  -1 2061.76 477.749   4
  -6 -10  -2-107.082 255.581   4
  -6 -10  -3 8154.14 899.027   4
   6  10   4 1153.88 913.273  13
  -6 -10  -4 658.926 355.074   4
   6  10   5 944.229 561.413  13
  -6 -10  -5 1380.84 499.534   4
  -6 -10  -6 8555.59 939.211   4
   6  10   6 7623.78 1666.63  13
  -6 -10  -7 19062.9 1422.36   4
   6  10   7 18694.6 2904.35  13
  -6 -10  -8 13014.0 1184.15   4
  -6 -10  -9 1.11395 253.231   4
  -6 -10 -10 28197.0 1822.42   4
  -6 -10 -11 6543.32 918.107   4
   6  10  11 8469.52 976.232   7
   6  10  12 1971.89 606.496   7
  -6 -10 -12 821.037 434.042   4
   6  10  13 2066.00 522.466   7
   6  10  14 13473.1 1096.12   7
   6  10  15 4919.06 658.633   7
   6  10  16 4082.25 627.643   7
   6  10  17 1969.71 394.574   7
   6  10  18 250.360 257.001   7
  -6 -10 -18-33.4968 206.504  11
   6  10  19 448.497 244.337   7
   6  10  20 3188.94 326.856   7
  -6 -11  14-2.86533 123.139   4
  -6 -11  13 1303.29 313.491   4
  -6 -11  12 15274.7 1042.26   4
  -6 -11  11-1.17733 229.494   4
  -6 -11  10 6842.20 837.926   4
  -6 -11   9 3766.56 627.652   4
  -6 -11   8 1047.53 427.124   4
  -6 -11   7 12475.6 1206.13   4
  -6 -11   6 42639.6 2200.25   4
  -6 -11   5 4949.58 808.929   4
  -6 -11   4 62245.8 2611.15   4
  -6 -11   3 4117.73 667.218   4
  -6 -11   2 63332.4 2532.93   4
  -6 -11   1 10062.4 1013.68   4
  -6 -11   0 662.522 345.025   4
  -6 -11  -1 820.193 368.872   4
  -6 -11  -2 8241.78 896.971   4
  -6 -11  -3 4168.32 681.927   4
  -6 -11  -4 1956.45 514.480   4
  -6 -11  -5 4690.85 723.452   4
  -6 -11  -6 12600.2 1271.75   4
  -6 -11  -7 3386.33 658.278   4
  -6 -11  -8 30641.1 1836.89   4
  -6 -11  -9 1976.99 562.349   4
  -6 -11 -10 39425.0 2094.21   4
  -6 -11 -11 1006.85 446.941   4
   6  11  11 2024.12 626.442   7
  -6 -11 -12 1049.93 426.991   4
   6  11  12 2045.95 537.088   7
   6  11  13 8011.10 850.736   7
   6  11  14 1337.10 335.837   7
   6  11  15 3507.87 572.726   7
   6  11  16 278.815 300.105   7
  -6 -11 -16-318.009 313.870  11
   6  11  17 510.755 224.453   7
  -6 -11 -17 243.690 212.472  11
   6  11  18 166.207 206.219   7
  -6 -11 -18 37.2504 138.278  11
  -6 -12  13 7957.15 560.062   4
  -6 -12  12 5432.46 548.627   4
  -6 -12  11 2688.57 458.835   4
  -6 -12  10 77.5825 208.372   4
  -6 -12   9 11474.7 1022.28   4
  -6 -12   8 6562.38 800.751   4
  -6 -12   7-481.897 474.126   4
  -6 -12   6 8039.91 925.230   4
  -6 -12   5-36.8516 320.248   4
  -6 -12   4 28256.0 1730.63   4
  -6 -12   3 11795.4 1123.86   4
  -6 -12   2 1986.37 532.693   4
  -6 -12   1 5405.66 759.775   4
  -6 -12   0 5829.11 782.296   4
  -6 -12  -1-55.9631 310.774   4
  -6 -12  -2 1079.22 430.080   4
  -6 -12  -3 6946.84 827.445   4
  -6 -12  -4 6044.47 799.333   4
  -6 -12  -5 41316.5 2033.27   4
  -6 -12  -6 864.720 371.637   4
  -6 -12  -7 21362.8 1478.47   4
  -6 -12  -8 30636.3 1766.95   4
  -6 -12  -9 570.400 387.712   4
  -6 -12 -10 2054.90 556.107   4
   6  12  11 2524.08 587.663   7
  -6 -12 -11 1630.46 462.801   4
   6  12  12 7048.50 799.343   7
   6  12  13 4615.28 542.554   7
   6  12  14 16428.5 1039.69   7
  -6 -12 -14 16771.2 1190.04  11
   6  12  15 4063.20 509.755   7
  -6 -12 -15 3282.86 491.283  11
   6  12  16 8579.76 639.188   7
  -6 -12 -16 8334.12 705.714  11
   6  12  17 5944.33 457.389   7
  -6 -12 -17 4974.90 473.664  11
  -6 -13  12 16197.2 729.655   4
  -6 -13  11 5731.46 525.515   4
  -6 -13  10 598.106 250.624   4
  -6 -13   9 2338.94 443.377   4
  -6 -13   8 192.270 252.584   4
  -6 -13   7 6513.94 735.553   4
  -6 -13   6-377.445 350.905   4
  -6 -13   5 2713.60 532.131   4
  -6 -13   4 387.977 298.584   4
  -6 -13   3 3296.03 580.523   4
  -6 -13   2 8984.49 955.678   4
  -6 -13   1 2845.99 553.600   4
  -6 -13   0 1261.62 419.359   4
  -6 -13  -1 11484.8 1028.94   4
  -6 -13  -2 3081.81 596.417   4
  -6 -13  -2 2699.30 541.104  11
  -6 -13  -3 16267.5 1237.03   4
  -6 -13  -3 15097.8 1236.62  11
  -6 -13  -4 5565.77 765.806   4
  -6 -13  -4 5868.87 814.667  11
  -6 -13  -5 68105.9 2487.04   4
  -6 -13  -5 69745.1 2823.84  11
  -6 -13  -6 1421.25 413.590   4
  -6 -13  -6 1107.66 401.623  11
  -6 -13  -7 7355.00 878.060   4
  -6 -13  -7 4507.72 660.770  11
  -6 -13  -8 25637.1 1497.41   4
  -6 -13  -8 17663.2 1440.57  11
  -6 -13  -9 1177.75 418.704   4
  -6 -13  -9 777.152 478.642  11
   6  13  10 4318.72 616.488   7
  -6 -13 -10 3843.55 629.401   4
  -6 -13 -10 4458.56 728.776  11
  -6 -13 -11-6.11353 233.411   4
   6  13  11 678.379 362.414   7
  -6 -13 -11 267.525 333.274  11
   6  13  12 592.068 263.553   7
  -6 -13 -12 1945.43 488.504  11
   6  13  13-664.996 321.544   7
  -6 -13 -13 150.963 274.143  11
   6  13  14 1157.55 280.477   7
  -6 -13 -14 821.783 317.811  11
   6  13  15 351.064 171.660   7
  -6 -13 -15 379.265 202.234  11
  -6 -13 -16 851.003 230.290  11
  -6 -14  10 1043.53 222.916   4
  -6 -14   9 1860.60 319.557   4
  -6 -14   8 1622.33 333.590   4
  -6 -14   7 278.053 199.749   4
  -6 -14   6 2596.65 440.337   4
  -6 -14   5 318.801 288.929   4
  -6 -14   4 936.983 363.364   4
  -6 -14   3-122.434 246.713   4
  -6 -14   2 6213.60 747.470   4
  -6 -14   1 1189.13 391.373   4
  -6 -14   0 671.111 313.734   4
  -6 -14  -1 2316.36 502.933   4
  -6 -14  -2 270.284 224.666  11
  -6 -14  -2 407.835 343.842   4
  -6 -14  -3 6113.16 709.306   4
  -6 -14  -3 5136.31 636.175  11
  -6 -14  -4 315.943 238.809   4
  -6 -14  -4 215.445 281.422  11
  -6 -14  -5 9297.91 897.032   4
  -6 -14  -5 9367.29 956.168  11
  -6 -14  -6 2668.47 517.755   4
  -6 -14  -6 2709.51 570.494  11
  -6 -14  -7 3605.52 565.028   4
  -6 -14  -7 2904.09 575.522  11
  -6 -14  -8 4.57687 226.707   4
  -6 -14  -8 45.9850 272.242  11
  -6 -14  -9 23469.0 1266.31   4
   6  14   9 21194.4 1119.86   7
  -6 -14  -9 20300.5 1380.16  11
  -6 -14 -10 3382.43 497.962   4
   6  14  10 3748.16 464.123   7
  -6 -14 -10 3836.34 624.208  11
   6  14  11 19.1711 256.856   7
  -6 -14 -11 1440.34 435.748  11
   6  14  12 4524.44 421.788   7
  -6 -14 -12 6585.88 668.224  11
  -6 -14 -13 2412.47 404.632  11
  -6 -14 -14 6990.59 571.579  11
  -6 -15   8-2.57522 98.7333   4
  -6 -15   7 6388.04 516.920   4
  -6 -15   6 1463.05 273.598   4
  -6 -15   5 4689.62 514.254   4
  -6 -15   4 3392.90 476.278   4
  -6 -15   3 2896.56 457.256   4
  -6 -15   2 13340.7 947.345   4
  -6 -15   1 3271.79 516.528   4
  -6 -15   0 2513.26 450.411   4
  -6 -15  -1 9703.44 796.898   4
  -6 -15  -2 288.535 227.894   4
  -6 -15  -3 610.142 282.637   4
  -6 -15  -3 482.078 250.810  11
  -6 -15  -4 216.539 202.205   4
  -6 -15  -4 908.334 317.656  11
  -6 -15  -5 7216.30 676.200   4
  -6 -15  -5 6890.82 701.485  11
  -6 -15  -6 1249.76 325.621   4
  -6 -15  -6 1490.91 367.671  11
  -6 -15  -7 17837.8 1001.96   4
   6  15   7 15713.0 839.593   7
  -6 -15  -7 15252.4 1045.83  11
  -6 -15  -8 12123.2 817.019   4
   6  15   8 9903.70 628.807   7
  -6 -15  -8 10841.1 862.095  11
   6  15   9 7667.10 506.908   7
  -6 -15  -9 11246.6 868.720  11
  -6 -15 -10 20781.4 1096.79  11
  -6 -15 -11 44.3596 183.517  11
  -6 -15 -12 2247.72 336.581  11
  -6 -16   4 4598.12 395.129   4
  -6 -16   3 487.770 154.249   4
  -6 -16   2 7668.56 573.685   4
  -6 -16   1 7570.45 589.062   4
  -6 -16   0 3243.36 398.602   4
  -6 -16  -1 561.349 203.328   4
  -6 -16  -2 9187.42 650.141   4
  -6 -16  -3 1667.51 291.287   4
  -6 -16  -4 1852.76 307.049   4
  -6 -16  -5 3316.13 383.591   4
  -6 -16  -5 2299.59 316.773  11
  -6 -16  -6-41.6128 130.499   4
  -6 -16  -6 148.843 162.971  11
  -6 -16  -7 8687.20 606.018  11
  -6 -16  -8 6514.47 512.329  11
   7 -13  -5 6666.54 560.828  11
   7 -13  -4 2702.21 464.058  11
   7 -13  -3 4619.04 518.467  11
   7 -13  -2 2243.04 403.433  11
   7 -13  -1 15815.9 931.430  11
   7 -13   0 27314.0 1210.98  11
   7 -13   1 15705.3 1022.04  11
   7 -13   4 12287.7 712.749   1
   7 -13   5 12126.4 711.089   1
   7 -13   6 1378.85 272.059   1
   7 -13   7 12151.2 666.467   1
   7 -12  -7 346.978 188.301  11
   7 -12  -6 265.298 275.651   8
   7 -12  -6 179.449 169.292  11
   7 -12  -5 2408.56 455.106   8
   7 -12  -5 1571.22 342.403  11
   7 -12  -4 4309.72 572.229   8
   7 -12  -4 3035.85 490.379  11
   7 -12  -3 7325.04 781.001  11
   7 -12  -3 7875.08 775.530   8
   7 -12  -2 848.484 389.248   8
   7 -12  -2 214.057 239.155  11
   7 -12  -1 17615.3 1212.22   8
   7 -12  -1 13848.3 1078.67  11
   7 -12   0 8280.77 875.011   8
   7 -12   0 7519.55 780.741  11
   7 -12   1 460.545 237.546   1
   7 -12   1 481.085 299.405  11
   7 -12   2 2592.73 439.109   1
   7 -12   2 2940.51 509.551  11
   7 -12   3 8252.72 735.301   1
   7 -12   3 11675.6 986.136  11
   7 -12   4-310.088 245.522   1
   7 -12   4 22775.6 1325.74  11
   7 -12   5 19658.7 1111.79   1
   7 -12   6 9220.94 774.669   1
   7 -12   7-62.2960 282.216   1
   7 -12   8 9021.09 741.860   1
   7 -12   9 16137.2 896.179   1
   7 -12  10 828.828 229.813   1
   7 -12  11 14625.8 690.991   1
   7 -11 -11 612.247 193.269   6
   7 -11 -10 1155.27 256.703   6
   7 -11  -9-60.8897 204.059   8
   7 -11  -9-588.689 309.447   6
   7 -11  -8 639.985 223.487  11
   7 -11  -8 1332.86 337.376   8
   7 -11  -8 840.883 259.776   6
   7 -11  -7 6729.95 707.386   8
   7 -11  -7 7029.74 744.279   6
   7 -11  -7 5256.01 576.212  11
   7 -11  -6 5108.77 700.101   8
   7 -11  -6 4103.16 589.595  11
   7 -11  -5 18412.3 1262.58   8
   7 -11  -5 14774.5 1137.28  11
   7 -11  -4 21711.6 1430.03   8
   7 -11  -4 20787.9 1432.00  11
   7 -11  -3 42225.9 2082.04  11
   7 -11  -3 47811.0 2120.16   8
   7 -11  -2 555.860 427.362   8
   7 -11  -2 528.900 402.649  11
   7 -11  -1 11579.9 1118.38   8
   7 -11  -1 10374.9 1061.60  11
   7 -11   0 527.147 438.461   8
   7 -11   0 313.851 261.283   1
   7 -11   0 794.052 414.323  11
   7 -11   1 541.679 494.783   8
   7 -11   1 263.743 242.478   1
   7 -11   1 313.935 344.622  11
   7 -11   2 11505.3 1021.26   8
   7 -11   2 9536.28 867.054   1
   7 -11   2 9964.36 966.377  11
   7 -11   3 3299.18 618.978   8
   7 -11   3 1949.17 477.142   1
   7 -11   3 2879.66 544.041  11
   7 -11   4 22600.3 1296.94   8
   7 -11   4 24274.1 1388.30   1
   7 -11   4 20259.2 1238.92  11
   7 -11   5 164.592 378.029   1
   7 -11   5 9631.38 1083.25  11
   7 -11   6 4237.50 614.631   1
   7 -11   7 1189.35 342.307   1
   7 -11   8 405.034 367.936   1
   7 -11   9 8364.71 836.290   1
   7 -11  10 1151.07 384.281   1
   7 -11  11 8863.01 712.226   1
   7 -11  12 1541.31 325.176   1
   7 -11  13 3657.53 365.741   1
   7 -10 -13 13442.4 749.560   6
   7 -10 -12 2385.83 382.528   6
   7 -10 -11 210.422 208.506   6
   7 -10 -10 13122.4 811.676   8
   7 -10 -10 10825.2 894.000   6
   7 -10  -9 17236.0 1008.38   8
   7 -10  -9 14155.1 1077.84   6
   7 -10  -8 2828.93 520.733   8
   7 -10  -8 3053.71 585.626   6
   7 -10  -8 2131.06 413.425  11
   7 -10  -7 14146.9 1112.24   8
   7 -10  -7 14790.0 1175.08   6
   7 -10  -7 11827.5 999.923  11
   7 -10  -6 1517.48 557.428   8
   7 -10  -6 2132.59 568.228   6
   7 -10  -6 920.361 408.678  11
   7 -10  -5 32570.1 1812.53   8
   7 -10  -5 32007.6 1748.88   6
   7 -10  -5 29719.9 1812.49  11
   7 -10  -4 64.2168 448.274   8
   7 -10  -4 351.749 405.858   6
   7 -10  -4 425.037 402.043  11
   7 -10  -3 22003.2 1543.29   8
   7 -10  -3 19524.4 1552.66  11
   7 -10  -2 3447.11 682.172   8
   7 -10  -2 3159.63 696.862  11
   7 -10  -1 3961.07 759.654   8
   7 -10  -1 3031.02 667.522  11
   7 -10   0 181.289 478.559   8
   7 -10   0 466.334 274.299   1
   7 -10   0 214.140 385.761  11
   7 -10   1 16409.0 1312.94   8
   7 -10   1 13252.2 1089.20   1
   7 -10   1 16284.7 1332.56  11
   7 -10   2 23771.0 1528.03   8
   7 -10   2 22330.9 1380.02   1
   7 -10   2 23067.3 1517.34  11
   7 -10   3 299.317 382.871   8
   7 -10   3 968.374 435.486   1
   7 -10   3 182.982 314.938  11
   7 -10   4 6203.94 797.566   8
   7 -10   4 4587.29 682.202  11
   7 -10   4 6181.52 853.329   1
   7 -10   5 474.998 393.881  11
   7 -10   5 390.833 368.573   8
   7 -10   5 1083.19 547.817   1
   7 -10   6 298.953 316.064   8
   7 -10   6 826.130 464.429   1
   7 -10   7-554.046 429.350   1
   7 -10   8 978.953 380.818   1
   7 -10   9 1114.93 425.763   1
   7 -10  10 3064.82 568.424   1
   7 -10  11 27.2497 285.426   1
   7 -10  12 1068.24 349.845   1
   7 -10  13 1033.55 290.742   1
   7 -10  14 243.985 186.632   1
   7  -9 -15 2182.16 286.296   6
   7  -9 -14 3521.84 424.594   6
   7  -9 -13 16368.7 996.440   6
   7  -9 -12 4129.21 586.546   6
   7  -9 -11 4920.21 644.332   6
   7  -9 -10 8269.89 748.797   8
   7  -9 -10 6873.15 796.859   6
   7  -9  -9-11.0696 316.633   6
   7  -9  -9 309.399 298.506   8
   7  -9  -8 7199.79 803.136   8
   7  -9  -8 7046.19 842.463   6
   7  -9  -8 6287.79 717.299  11
   7  -9  -7 1173.24 481.400   8
   7  -9  -7-23.4198 344.822  11
   7  -9  -7 886.982 414.921   6
   7  -9  -6 12669.7 1189.22   8
   7  -9  -6 12954.4 1179.63   6
   7  -9  -6 11593.8 1172.04  11
   7  -9  -5 3515.68 736.914   8
   7  -9  -5 4335.50 689.603   6
   7  -9  -5 2672.37 618.783  11
   7  -9  -4-266.067 551.681   8
   7  -9  -4 186.782 396.877   6
   7  -9  -4-240.254 357.968  11
   7  -9  -3 2505.75 591.152   8
   7  -9  -3 3608.69 684.650   6
   7  -9  -3 2341.15 513.027  11
   7  -9  -2 2392.90 722.575   8
   7  -9  -2 3138.65 610.927   6
   7  -9  -2 1371.88 504.217  11
   7  -9  -1 69924.4 2774.68   8
   7  -9  -1 68510.2 2581.73   6
   7  -9  -1 69880.9 2963.54  11
   7  -9   0 15704.0 1315.28   8
   7  -9   0 14269.5 1093.90   1
   7  -9   0 15858.8 1399.84  11
   7  -9   1 51491.7 2299.17   8
   7  -9   1 49198.7 2071.61   1
   7  -9   1 51339.0 2368.02  11
   7  -9   2 24527.0 1587.66   8
   7  -9   2 24309.9 1517.71   1
   7  -9   2 22742.1 1592.49  11
   7  -9   3 212.564 422.360   8
   7  -9   3 668.095 363.393   1
   7  -9   3-47.0258 406.602  11
   7  -9   4 12250.6 1077.02   8
   7  -9   4 13082.5 1204.00   1
   7  -9   4 12143.9 1129.67  11
   7  -9   5 1461.64 517.094   8
   7  -9   5 808.623 376.472  11
   7  -9   5 1304.87 524.495   1
   7  -9   6 5165.26 675.117   8
   7  -9   6 4735.78 708.928  11
   7  -9   6 5374.58 883.948   1
   7  -9   7 1279.03 477.278   1
   7  -9   7 13196.6 1400.72  11
   7  -9   8-159.375 552.242   1
   7  -9   9 457.128 438.242   1
   7  -9  10 10628.2 1106.13   1
   7  -9  11 7476.42 851.378   1
   7  -9  12 132.623 316.288   1
   7  -9  13 167.937 304.432   1
   7  -9  14 677.685 283.987   1
   7  -9  15 9.15268 186.470   1
   7  -9  16 11305.8 601.871   1
   7  -8 -16 537.275 179.952   6
   7  -8 -15 7002.01 560.693  10
   7  -8 -15 8594.77 652.643   6
   7  -8 -14 852.768 288.996  10
   7  -8 -14 857.175 310.319   6
   7  -8 -13 6557.78 692.857  10
   7  -8 -13 7848.48 791.563   6
   7  -8 -12 17144.7 1217.46   6
   7  -8 -11 865.398 320.735   8
   7  -8 -11 296.694 330.069   6
   7  -8 -10 11273.8 927.277   8
   7  -8 -10 10765.1 1032.00   6
   7  -8  -9-46.3907 313.690   8
   7  -8  -9 13.3020 330.934   6
   7  -8  -8 19541.8 1333.69   8
   7  -8  -8 19527.9 1458.31   6
   7  -8  -8 16241.7 1196.39  11
   7  -8  -7 1370.32 564.385   8
   7  -8  -7 659.443 369.424   6
   7  -8  -7 421.394 276.012  11
   7  -8  -6 2647.28 629.529   8
   7  -8  -6 2244.90 520.292   6
   7  -8  -6 2471.74 582.421  11
   7  -8  -5 8735.54 1025.91   8
   7  -8  -5 9737.42 989.084   6
   7  -8  -5 9222.32 1096.04  11
   7  -8  -4 1041.41 347.460   6
   7  -8  -4 851.161 538.971   8
   7  -8  -4 822.187 413.082  11
   7  -8  -3 7551.42 1008.99   8
   7  -8  -3 8028.32 908.715   6
   7  -8  -3 5850.51 900.664  11
   7  -8  -2 810.642 631.237   8
   7  -8  -2 525.394 394.242   6
   7  -8  -2 37.8245 512.907  11
   7  -8  -1 37628.8 2050.44   8
   7  -8  -1 36941.7 1900.49   6
   7  -8  -1 37156.1 2164.35  11
   7  -8   0 50318.1 2312.07   8
   7  -8   0 49220.1 2190.60   6
   7  -8   0 45245.4 1930.21   1
   7  -8   0 52046.1 2464.38  11
   7  -8   1 5321.22 850.607   8
   7  -8   1 4800.94 794.575  11
   7  -8   1 4041.59 651.556   1
   7  -8   2 3712.81 659.329   1
   7  -8   2 5388.49 803.226   8
   7  -8   2 4496.47 722.365  11
   7  -8   3 1.72752 339.581   1
   7  -8   3 880.314 478.814   8
   7  -8   3-165.075 362.050  11
   7  -8   4 1164.09 490.112   1
   7  -8   4 743.788 332.609   8
   7  -8   4 987.297 391.179  11
   7  -8   5-49.5912 403.028   1
   7  -8   5 6.56182 336.871   8
   7  -8   5 329.332 318.530  11
   7  -8   6 8185.48 853.959   8
   7  -8   6 6621.74 965.605   1
   7  -8   6 6278.42 847.836  11
   7  -8   7 16246.0 1440.18   1
   7  -8   7 19836.4 1518.63  11
   7  -8   8 16699.5 1496.69   1
   7  -8   9 9838.91 1161.55   1
   7  -8  10 30608.7 1900.65   1
   7  -8  11 11286.8 1144.09   1
   7  -8  12 5875.11 809.069   1
   7  -8  13 14575.8 1124.91   1
   7  -8  14 6838.34 758.074   1
   7  -8  15 2345.46 414.192   1
   7  -8  16 3132.95 424.912   1
   7  -8  17 11209.5 613.001   1
   7  -7 -17 15974.8 718.681   6
   7  -7 -17 16539.7 814.799  10
   7  -7 -16 650.303 240.239  10
   7  -7 -16 1164.74 257.465   6
   7  -7 -15 4572.13 594.732  10
   7  -7 -15 5257.97 589.731   6
   7  -7 -14 1481.22 388.236  10
   7  -7 -14 1810.13 399.711   6
   7  -7 -13 1215.09 450.350  10
   7  -7 -13 603.945 306.209   6
   7  -7 -12 5923.14 840.999  10
   7  -7 -12 5599.69 724.394   6
   7  -7 -11 936.116 441.857  10
   7  -7 -11 265.020 405.105   6
   7  -7 -11 996.770 320.712   8
   7  -7 -10-579.624 481.176  10
   7  -7 -10 368.648 374.125   8
   7  -7 -10 229.854 293.942   6
   7  -7  -9 6194.27 858.360  10
   7  -7  -9 7868.82 867.506   8
   7  -7  -9 8202.65 988.761   6
   7  -7  -8 14315.6 1187.34   8
   7  -7  -8 14273.3 1307.95   6
   7  -7  -7 1568.01 570.498   8
   7  -7  -7 2409.87 579.983   6
   7  -7  -7 1045.52 415.617  11
   7  -7  -6 1970.72 594.911   8
   7  -7  -6 1712.13 418.791   6
   7  -7  -6 1858.28 465.367  11
   7  -7  -5 282.171 305.236   6
   7  -7  -5 335.907 484.125   8
   7  -7  -5-22.0672 334.139  11
   7  -7  -4 9848.18 1088.42   8
   7  -7  -4 12265.1 1104.42   6
   7  -7  -4 11380.9 1223.55  11
   7  -7  -3 5701.59 849.314   8
   7  -7  -3 6612.99 804.507   6
  -7   7   3 3649.88 1471.15  13
   7  -7  -3 5700.36 843.513  11
   7  -7  -2 913.642 402.285   6
   7  -7  -2 1284.58 572.013   8
  -7   7   2-333.612 920.606  13
   7  -7  -2 992.821 358.362  11
   7  -7  -1 24637.9 1631.06   8
   7  -7  -1 23619.4 1498.63   6
   7  -7  -1 25419.6 1756.77  11
   7  -7   0 2011.54 411.118   1
   7  -7   0 2938.72 636.417   8
   7  -7   0 3116.74 606.279   6
   7  -7   0 2394.35 590.566  11
   7  -7   1 7717.81 923.225   8
   7  -7   1 4924.62 733.719   1
   7  -7   1 6716.01 838.058   6
   7  -7   1 6312.90 850.219  11
   7  -7   2 3093.57 591.856   8
   7  -7   2 3539.83 632.606   1
   7  -7   2 3483.49 647.743  11
   7  -7   3 3617.24 657.376   8
   7  -7   3 3752.69 669.090   1
   7  -7   3 3243.62 616.530  11
   7  -7   4 1123.37 455.147   8
   7  -7   4 1054.79 443.625   1
   7  -7   4 959.042 395.706  11
   7  -7   5-191.516 369.770   8
   7  -7   5 145.753 407.161   1
   7  -7   5-139.843 286.316  11
   7  -7   6 1044.67 545.688   1
   7  -7   6 312.139 254.705  11
   7  -7   7 1054.18 455.729   1
   7  -7   7 2579.53 655.047  11
   7  -7   8 48825.8 2426.21  11
   7  -7   8 27484.6 1873.87   1
   7  -7   9 585.701 459.552   1
   7  -7  10 14405.6 1387.67   1
   7  -7  11 15756.0 1381.21   1
   7  -7  12 468.044 462.718   1
   7  -7  13 5929.22 831.737   1
   7  -7  14 14476.7 1126.98   1
   7  -7  15 95.3098 316.873   1
   7  -7  16 12373.7 985.239   4
   7  -7  16 16894.3 1028.79   1
   7  -7  17 6618.29 629.837   4
   7  -7  17 9461.90 683.002   1
   7  -6 -18 2739.50 375.492  10
   7  -6 -17 7308.24 669.744  10
   7  -6 -17 6407.59 521.705   6
   7  -6 -16 10046.3 882.874  10
   7  -6 -16 8949.12 715.017   6
   7  -6 -15 6664.52 789.710  10
   7  -6 -15 6275.45 679.655   6
   7  -6 -14 2094.79 573.120  10
   7  -6 -14 1696.25 446.305   6
   7  -6 -13 601.194 399.900  10
   7  -6 -13 630.724 314.467   6
   7  -6 -12 1514.09 598.278  10
   7  -6 -12 106.025 275.037   6
   7  -6 -11 16426.1 1456.31  10
   7  -6 -11 16547.2 1129.03   8
   7  -6 -11 13966.1 1246.12   6
   7  -6 -10 26190.0 1473.15   8
   7  -6 -10 24825.7 1677.07   6
   7  -6  -9 8847.16 1094.89  10
   7  -6  -9 10216.8 991.356   8
   7  -6  -9 10054.2 1121.49   6
   7  -6  -8 29445.6 1696.10   8
   7  -6  -8 28707.1 1801.18   6
   7  -6  -8 26497.5 1784.20  10
   7  -6  -7 998.587 485.523  10
   7  -6  -7 567.159 464.267   8
   7  -6  -7 1075.54 481.932   6
   7  -6  -6 16443.7 1352.87   8
   7  -6  -6 15985.1 1296.35   6
  -7   6   6 14327.6 2912.41  13
   7  -6  -6 15893.5 1282.46  11
   7  -6  -5 21635.3 1574.93   8
  -7   6   5 18649.1 3321.26  13
   7  -6  -5 22979.1 1492.34   6
   7  -6  -5 22984.5 1610.19  11
   7  -6  -4 4152.29 698.566   8
   7  -6  -4 5592.34 751.395   6
   7  -6  -4 4910.25 763.259  11
   7  -6  -3 15232.9 1310.79   8
   7  -6  -3 17961.6 1286.15   6
   7  -6  -3 15216.5 1289.87  11
   7  -6  -2 43505.5 2124.93   8
   7  -6  -2 42365.3 1950.61   6
   7  -6  -2 42684.0 2235.07  11
   7  -6  -1 7133.93 836.822   8
   7  -6  -1 6580.58 796.316   6
  -7   6   1 7343.08 1554.01  12
   7  -6  -1 7645.88 931.965  11
  -7   6   0 25259.7 2893.47  12
   7  -6   0 25136.1 1566.54   8
   7  -6   0 23938.0 1489.16   6
   7  -6   0 23829.1 1643.24  11
   7  -6   1 12289.0 1084.72   8
   7  -6   1 12608.2 1092.34   6
  -7   6  -1 10781.0 1920.02  12
   7  -6   1 11217.1 962.620   1
   7  -6   1 11629.1 1154.68  11
   7  -6   2 698.510 317.946   8
   7  -6   2 805.396 406.515   6
  -7   6  -2 951.291 633.597  12
   7  -6   2 537.063 342.771  11
   7  -6   2 1009.50 429.291   1
  -7   6  -3 2531.76 1056.17  12
   7  -6   3 1423.70 462.802   8
   7  -6   3 1487.97 468.325   1
   7  -6   3 1510.71 452.023  11
   7  -6   4 5352.65 692.676   8
  -7   6  -4 4028.76 1291.12  12
   7  -6   4 5048.54 845.099   1
   7  -6   4 5089.85 724.591  11
   7  -6   5 505.570 495.061   1
  -7   6  -5 816.068 668.946  12
   7  -6   5 704.520 382.239   8
   7  -6   5-53.0044 266.923  11
   7  -6   6 1501.24 902.710   2
   7  -6   6 1233.17 618.328   1
   7  -6   6 995.759 379.458  11
  -7   6  -6 960.522 709.611  12
   7  -6   7 6603.35 1788.08   2
  -7   6  -7 4372.59 1396.11  12
   7  -6   7 7198.53 928.016  11
   7  -6   7 6291.97 970.765   1
   7  -6   8 2103.42 638.512   1
   7  -6   8 2250.65 1128.10   2
   7  -6   9 8520.99 1123.25   1
   7  -6  10 1576.45 538.471   1
   7  -6  11 412.788 445.397   1
   7  -6  12 29269.9 1786.61   1
   7  -6  13 4063.39 729.964   1
   7  -6  14 8785.88 1108.26   4
   7  -6  14 13075.6 1148.22   1
   7  -6  15 3002.94 664.578   4
   7  -6  15 3642.25 632.821   1
   7  -6  16 13169.0 1144.53   4
   7  -6  16 15160.5 1043.28   1
   7  -6  17 14131.8 919.285   1
   7  -6  17 11725.7 1021.93   4
   7  -6  18 3353.97 510.245   4
   7  -6  19 4253.80 505.626   4
   7  -5 -19 8118.19 591.442  10
   7  -5 -18 1416.02 325.696  10
   7  -5 -18 1023.06 195.621   6
   7  -5 -17 12032.3 946.976  10
   7  -5 -17 10246.2 708.018   6
   7  -5 -16 1079.28 383.068  10
   7  -5 -16 759.909 267.814   6
   7  -5 -15 13765.2 1206.01  10
   7  -5 -15 12638.3 994.669   6
   7  -5 -14 3606.58 766.187  10
   7  -5 -14 3229.87 583.343   6
   7  -5 -13 2838.93 757.243  10
   7  -5 -13 2193.10 543.668   6
   7  -5 -12 2670.05 752.902  10
   7  -5 -12 1751.59 488.594   6
   7  -5 -11 12050.1 1348.62  10
   7  -5 -11 11834.8 975.986   8
   7  -5 -11 9273.26 1028.37   6
   7  -5 -10-151.848 415.673  10
   7  -5 -10-145.349 330.703   8
   7  -5 -10-130.613 308.308   6
   7  -5  -9 2687.40 604.001  10
   7  -5  -9 3386.13 594.550   8
   7  -5  -9 4781.62 783.006   6
   7  -5  -8 4642.35 811.191  10
   7  -5  -8 4738.17 752.917   8
   7  -5  -8 5432.02 793.241   6
   7  -5  -7 177.639 277.672  10
   7  -5  -7 157.992 358.659   8
   7  -5  -7-49.2352 229.999   6
  -7   5   7-118.861 530.102  12
   7  -5  -6 149.164 303.364  10
   7  -5  -6 203.629 340.238   8
   7  -5  -6 362.297 322.816   6
  -7   5   6-339.683 631.975  12
   7  -5  -5 21712.1 1545.38   8
   7  -5  -5 22153.0 1416.90   6
  -7   5   5 22863.9 2852.33  12
   7  -5  -5 23939.7 1562.79  11
  -7   5   4 97774.3 5704.41  12
   7  -5  -4 89012.3 2761.18   6
   7  -5  -4 89296.8 3069.15  11
   7  -5  -3 17801.3 1402.56   8
   7  -5  -3 20439.7 1312.73   6
  -7   5   3 21892.7 2681.00  12
  -7   5   2 83075.6 5111.26  12
  -7   5   1 36935.7 3450.69  12
  -7   5   0 18663.5 2475.40  12
  -7   5  -1 21940.5 2781.29  12
  -7   5  -2 300.400 496.229  12
  -7   5  -3 5105.94 1378.64  12
  -7   5  -4 1144.40 731.845  12
   7  -5   5 3561.95 1070.04   2
  -7   5  -5 3617.88 1156.66  12
   7  -5   5 2282.46 479.003  11
   7  -5   6 930.986 905.194   2
  -7   5  -6 1404.25 864.540  12
   7  -5   6 733.796 439.242   1
   7  -5   6 1280.07 384.180  11
   7  -5   7 114.575 539.281   2
   7  -5   7-75.7204 427.529   1
   7  -5   8 2913.63 1067.26   2
   7  -5   8 3352.25 691.859   1
   7  -5   9 30312.3 1913.51   1
   7  -5   9 24358.0 3278.36   2
   7  -5  10 31894.3 3801.60   2
   7  -5  10 34770.0 2091.30   1
   7  -5  11 2155.51 630.333   1
   7  -5  12 13768.7 1287.47   1
   7  -5  13 27630.0 1723.80   1
   7  -5  14 1036.94 425.940   1
   7  -5  15 7611.65 864.033   1
   7  -5  16 1585.70 451.408   1
   7  -5  17 607.578 326.054   1
   7  -5  18 8203.30 875.269   4
   7  -5  18 8594.53 695.782   1
   7  -5  19 2694.34 489.009   4
   7  -5  20 1250.56 310.295   4
   7  -5  21 10565.8 627.663   4
   7  -4 -19 201.598 168.490  10
   7  -4 -18 588.543 289.353  10
   7  -4 -18 712.644 202.553   6
   7  -4 -17 2516.60 538.832  10
   7  -4 -17 2160.98 363.557   6
   7  -4 -16 484.998 386.593  10
   7  -4 -16 879.363 293.460   6
   7  -4 -15 9313.21 1103.80  10
   7  -4 -15 8703.15 859.555   6
   7  -4 -14 3806.73 833.306  10
   7  -4 -14 2990.85 583.301   6
   7  -4 -13 32839.6 2127.55  10
   7  -4 -13 28651.1 1746.83   6
   7  -4 -12 959.185 641.743  10
   7  -4 -12 156.809 264.022   6
   7  -4 -11 36183.7 2325.46  10
   7  -4 -11 38982.1 1739.57   8
   7  -4 -11 32717.6 1873.96   6
   7  -4 -10 10253.9 960.706   8
   7  -4 -10 8708.46 994.581   6
   7  -4  -9 6763.04 999.832  10
   7  -4  -9 9009.60 980.390   8
   7  -4  -9 7693.43 919.144   6
  -7   4   9 6558.46 2060.79  13
  -7   4   9 7005.63 1894.68  12
   7  -4  -8 6741.55 1013.21  10
   7  -4  -8 7984.82 933.571   8
  -7   4   8 7523.43 1840.87  12
   7  -4  -8 7807.28 925.557   6
   7  -4  -7 4757.79 823.620  10
   7  -4  -7 5247.16 779.318   8
  -7   4   7 5701.57 1540.08  12
   7  -4  -7 5080.10 746.012   6
   7  -4  -6 333.432 310.807  10
   7  -4  -6 752.370 314.448   6
   7  -4  -6 651.600 400.455   8
  -7   4   6 706.313 670.357  12
  -7   4   5 4844.08 1352.47  12
  -7   4   4 7913.46 1556.56  12
  -7   4   3 26.3496 412.545  12
  -7   4   2 34125.0 3234.83  12
  -7   4   1 14955.9 2166.66  12
  -7   4   0 1633.65 748.727  12
  -7   4  -1 23551.6 2789.61  12
  -7   4  -2 27034.6 3005.25  12
  -7   4  -3 1027.61 643.179  12
  -7   4  -4 27359.6 3066.49  12
   7  -4   4 27514.6 2958.02   2
   7  -4   5 1183.91 804.927   2
  -7   4  -5 514.500 546.975  12
   7  -4   6 18768.8 2512.84   2
   7  -4   7 52710.5 4285.00   2
   7  -4   8 2434.90 978.109   1
   7  -4   8 1439.39 914.590   2
   7  -4   9 53294.3 2639.09   1
   7  -4   9 48766.8 4490.14   2
   7  -4  10 25423.2 1734.12   1
   7  -4  10 23180.3 3191.54   2
   7  -4  11-487.098 914.188   2
   7  -4  11 458.192 505.541   1
   7  -4  12 3602.63 714.882   9
   7  -4  12 4992.60 840.370   1
   7  -4  13 15724.4 1343.44   1
   7  -4  13 12330.7 1268.76   9
   7  -4  14 800.841 503.039   1
   7  -4  15 2245.29 505.681   1
   7  -4  16 3976.28 631.339   1
   7  -4  17 11818.2 952.232   1
   7  -4  18 1662.28 402.395   1
   7  -4  21 16958.2 973.184   4
   7  -4  22 6628.18 489.056   4
   7  -3 -20 3737.46 410.005  10
   7  -3 -19 3283.98 461.654  10
   7  -3 -18 262.499 262.087  10
   7  -3 -17 5064.10 730.779  10
   7  -3 -17 3296.36 428.885   6
   7  -3 -16 5613.46 836.956  10
   7  -3 -16 4166.65 545.293   6
   7  -3 -15 6760.89 961.151  10
   7  -3 -15 5834.87 697.529   6
   7  -3 -14 4267.93 830.470  10
   7  -3 -14 3667.20 634.635   6
   7  -3 -13 24231.7 1915.18  10
   7  -3 -13 21459.6 1504.15   6
   7  -3 -12 5290.93 994.493  10
   7  -3 -12 5438.27 771.505   6
   7  -3 -11-177.042 380.200  10
   7  -3 -11-308.069 400.573   6
   7  -3 -10 11097.7 1278.04  10
   7  -3 -10 13921.5 1160.11   8
   7  -3 -10 13020.2 1186.55   6
  -7   3  10 13327.4 2868.50  13
  -7   3  10 13241.9 2582.09  12
   7  -3  -9 19192.2 1661.47  10
   7  -3  -9 23031.1 1457.63   8
   7  -3  -9 22571.6 1496.26   6
   7  -3  -8 919.514 493.660  10
   7  -3  -8 645.803 366.534   6
   7  -3  -8 1469.96 490.707   8
  -7   3   8 1236.86 830.260  12
   7  -3  -7 15031.5 1369.45  10
   7  -3  -7 17306.5 1302.05   8
  -7   3   7 17544.6 2621.77  12
  -7   3   6 10164.4 1886.81  12
  -7   3   5 1011.29 534.068  12
  -7   3   4 14087.2 2077.33  12
  -7   3   3 5340.50 1247.42  12
  -7   3   2 57700.7 4119.52  12
  -7   3   1 2395.90 935.458  12
  -7   3   0-205.212 502.691  12
  -7   3  -1 1178.19 645.566  12
  -7   3  -2 4885.23 1313.36  12
  -7   3  -3 30899.6 3145.37  12
  -7   3  -4 16126.1 2295.35  12
   7  -3   4 16894.9 2275.96   2
   7  -3   5 57586.3 4144.41   2
   7  -3   6 5286.51 1327.51   2
   7  -3   7 96179.3 5603.41   2
   7  -3   8 36212.9 3537.78   2
   7  -3   9 18460.4 2661.82   2
   7  -3  10 35745.0 3913.91   2
   7  -3  11 12627.8 1251.32   9
   7  -3  11 15795.5 2708.46   2
   7  -3  12 709.749 367.327   9
   7  -3  12 1317.21 960.425   2
   7  -3  12 1871.96 573.657   1
   7  -3  13 1205.31 481.585   9
   7  -3  13 1767.14 522.263   1
   7  -3  14 673.626 438.080   9
   7  -3  14 489.532 373.782   1
   7  -3  15 3328.38 715.340   9
   7  -3  15 3901.57 696.986   1
   7  -3  16 584.541 376.279   1
   7  -3  17 454.520 315.079   1
   7  -3  17 487.479 284.317   7
   7  -3  18 2730.24 468.605   7
   7  -3  18 2561.09 452.566   1
   7  -3  19 5518.52 583.917   7
   7  -3  20-316.849 240.510   7
   7  -3  22 181.541 168.220   4
   7  -2 -20 10979.4 718.036  10
   7  -2 -19 2012.75 401.112  10
   7  -2 -18 1617.42 447.109  10
   7  -2 -17-170.023 278.645  10
   7  -2 -16 6952.20 942.910  10
   7  -2 -15 2862.32 677.175  10
   7  -2 -14 5195.61 917.363  10
   7  -2 -13 6048.72 1040.56  10
   7  -2 -12 23895.1 1891.42  10
   7  -2 -11 5080.28 899.804  10
   7  -2 -10 2843.35 670.213  10
   7  -2 -10 3870.68 614.359   8
  -7   2  10 3760.63 1349.93  12
   7  -2  -9 17390.3 1562.12  10
   7  -2  -9 21340.2 1360.55   8
  -7   2   9 23366.9 3234.20  12
   7  -2  -8 35495.1 2164.64  10
   7  -2  -8 38808.4 1832.33   8
  -7   2   8 38225.9 3968.34  12
  -7   2   7 303.378 384.169  12
  -7   2   6 53007.3 4182.23  12
  -7   2   5-120.839 431.698  12
  -7   2   4 69154.6 4465.67  12
  -7   2   3 1477.96 757.246  12
  -7   2   2 956.935 606.571  12
  -7   2   1 2652.92 934.771  12
  -7   2   0 3810.31 1054.61  12
  -7   2  -1 8206.70 1541.91  12
  -7   2  -2 38177.3 3343.56  12
   7  -2   3 649.007 633.399   2
  -7   2  -3 209.551 379.305  12
   7  -2   4 1450.61 743.685   2
  -7   2  -4 1091.85 652.266  12
   7  -2   5 13015.2 1942.79   2
   7  -2   6 2272.81 911.346   2
   7  -2   7 782.548 559.570   2
   7  -2   8 4361.42 1312.01   2
   7  -2   9 84174.4 5516.53   2
   7  -2  10 14934.0 2452.42   2
   7  -2  11 60315.0 2648.49   9
   7  -2  11 58692.1 5087.66   2
   7  -2  12 49190.3 2505.73   9
   7  -2  12 55604.3 5156.70   2
   7  -2  13-137.844 396.530   9
   7  -2  13 640.596 712.035   2
   7  -2  14 5324.12 952.557   9
   7  -2  15 11697.2 1334.96   9
   7  -2  15 13580.9 1164.88   1
   7  -2  15 12108.9 1011.03   7
   7  -2  16 1658.10 628.695   9
   7  -2  16 1257.77 425.743   7
   7  -2  16 955.173 431.993   1
   7  -2  17 1866.49 452.322   1
   7  -2  17 1721.42 450.632   7
   7  -2  18 26525.8 1369.36   7
   7  -2  19 490.630 261.920   7
   7  -2  20 882.145 263.545   7
  -7   2 -21 2186.99 435.582   5
   7  -2  21 2234.95 357.596   7
  -7   2 -22 1971.45 358.677   5
   7  -2  22 2487.57 325.989   7
   7  -2  23 185.185 139.253   4
   7  -1 -20 11179.2 730.290  10
   7  -1 -19-234.711 233.224  10
   7  -1 -18 14033.1 1095.37  10
   7  -1 -17 1823.88 487.399  10
   7  -1 -17 1140.11 299.823   5
   7  -1 -16 1243.72 496.993  10
   7  -1 -16 689.261 284.373   5
   7  -1 -15 24354.4 1752.86  10
   7  -1 -15 22163.3 1428.39   5
   7  -1 -14 9858.53 1199.75  10
   7  -1 -14 8268.82 915.629   5
   7  -1 -13 9484.68 1204.70  10
   7  -1 -13 7790.53 940.997   5
   7  -1 -12 38831.3 2358.64  10
   7  -1 -12 31780.2 1896.29   5
   7  -1 -11 10782.1 1297.48  10
  -7   1  11 5916.73 1890.04  13
  -7   1  11 9179.63 2345.45  12
   7  -1 -10 2401.03 580.242  10
   7  -1 -10 3934.01 633.497   8
  -7   1  10 3042.00 1267.12  12
   7  -1  -9 682.344 388.804  10
  -7   1   9 1161.15 923.009  12
   7  -1  -8 934.081 493.630  10
  -7   1   8 604.640 781.196  12
  -7   1   7 6579.91 1574.99  12
  -7   1   6 3337.16 1027.83  12
  -7   1   5 5760.57 1377.01  12
  -7   1   4 2613.26 973.146  12
  -7   1   3 13910.5 1953.69  12
  -7   1   2 6828.87 1359.73  12
  -7   1   1 680.677 375.825  12
  -7   1   0 81500.1 4655.95  12
  -7   1  -1 25858.2 2660.80  12
  -7   1  -2 76525.1 4611.30  12
   7  -1   3 7119.51 1417.57   2
  -7   1  -3 7606.40 1449.93  12
   7  -1   4 13588.7 1862.00   2
   7  -1   5 1281.22 640.976   2
   7  -1   6 13212.8 1931.33   2
   7  -1   7 40742.0 3453.51   2
   7  -1   8 8164.81 1613.02   2
   7  -1   9 60868.7 4525.08   2
   7  -1  10 64723.2 4895.94   2
   7  -1  11 8567.24 1959.81   2
   7  -1  12 64107.4 2828.53   9
   7  -1  12 71194.2 5685.98   2
   7  -1  13-178.238 377.200   9
   7  -1  13-232.721 752.564   2
   7  -1  13 77.3781 270.660   7
   7  -1  14 659.462 411.602   9
   7  -1  14 824.040 344.769   7
   7  -1  15 1291.21 554.931   9
   7  -1  15 1372.94 435.129   7
   7  -1  16 2642.11 757.183   9
   7  -1  16 2687.70 540.031   7
   7  -1  17 559.503 412.665   7
   7  -1  17 218.259 286.582   1
   7  -1  18 4.60733 304.837   7
   7  -1  19 5762.98 670.636   7
   7  -1  20 1910.29 406.438   7
   7  -1  21 2261.70 389.993   7
  -7   1 -22 357.480 222.440   5
   7  -1  22 386.902 210.194   7
  -7   1 -23 1479.79 286.354   5
   7  -1  23 1853.91 269.918   7
   7   0 -20 2400.16 343.521  10
   7   0 -19 3799.92 520.395  10
   7   0 -19 3000.00 390.464   5
   7   0 -18 5481.04 697.293  10
   7   0 -18 4206.54 535.183   5
   7   0 -17 602.661 313.736  10
   7   0 -17 186.585 200.946   5
   7   0 -16 13557.2 1245.75  10
   7   0 -16 11908.5 1051.63   5
   7   0 -15 48143.9 2404.85  10
   7   0 -15 41244.5 2082.67   5
   7   0 -14 67736.9 2935.67  10
   7   0 -14 60913.7 2636.95   5
   7   0 -13 927.003 593.469  10
   7   0 -13 223.598 277.564   5
   7   0 -12 7884.14 1146.80  10
   7   0 -12 5671.66 913.310   5
   7   0 -11 10266.3 1234.69  10
  -7   0  11 7164.40 2057.97  12
   7   0 -11 7815.71 1010.61   5
   7   0 -10 6133.18 999.322  10
  -7   0  10 7557.31 1969.95  12
   7   0 -10 7198.23 969.287   5
   7   0  -9 1653.58 534.691  10
  -7   0   9 1824.17 1004.73  12
  -7   0   8 9344.93 1976.18  12
  -7   0   7 17206.8 2487.83  12
  -7   0   6 360.288 399.794  12
  -7   0   5 816.024 582.903  12
  -7   0   4 1966.38 814.870  12
  -7   0   3 15580.6 2061.18  12
  -7   0   2 4291.05 1058.79  12
  -7   0   1 13732.8 1857.36  12
  -7   0   0 63472.0 3998.04  12
  -7   0  -1 3341.91 991.181  12
  -7   0  -2-51.9563 417.299  12
  -7   0  -3 21295.4 2393.15  12
   7   0   4 1116.94 612.484   2
   7   0   5 299.627 441.486   2
   7   0   6 62357.0 3958.11   2
   7   0   7 41655.7 3326.72   2
   7   0   8 7079.27 1456.58   2
   7   0   9 82937.4 5096.91   2
   7   0  10 12478.0 2098.61   2
   7   0  11 26485.6 3249.22   2
   7   0  12 8982.24 1067.93   9
   7   0  12 8446.77 2017.70   2
   7   0  13-64.9391 437.353   9
   7   0  13-51.4394 803.098   2
   7   0  13 270.504 298.105   7
   7   0  14 6089.94 972.701   9
   7   0  14 4368.08 1559.31   2
   7   0  14 6368.79 748.202   7
   7   0  15 1141.79 547.243   9
   7   0  15 666.494 339.622   7
   7   0  16 4465.40 942.498   9
   7   0  16 3162.02 598.289   7
   7   0  17 1933.53 671.775   9
   7   0  17 2346.56 543.147   7
   7   0  18 13467.6 1048.98   7
   7   0  19 512.562 399.618   7
   7   0  20 19851.0 1184.56   7
   7   0  21 20349.7 1122.21   7
   7   0  22-22.4970 210.442   7
   7   0  23 7946.31 565.160   7
  -7   0 -23 7562.45 651.194   5
   7   1 -20 1791.63 258.598   5
   7   1 -19 1465.91 344.376  10
   7   1 -19 1529.31 336.260   5
   7   1 -18 6235.61 713.085  10
   7   1 -18 4912.49 608.546   5
   7   1 -17 977.549 361.795  10
   7   1 -17 632.329 297.724   5
   7   1 -16 34036.6 1902.46  10
   7   1 -16 31767.5 1794.24   5
   7   1 -15 9111.73 1091.29  10
   7   1 -15 7672.12 1024.16   5
   7   1 -14 4478.88 802.328   5
   7   1 -14 6043.43 954.122  10
   7   1 -13 4336.93 877.683  10
   7   1 -13 4213.18 801.349   5
   7   1 -12 5875.08 1002.62  10
   7   1 -12 2916.44 702.624   5
   7   1 -11 528.162 493.588  10
   7   1 -11 364.591 348.516   5
  -7  -1  11 212.216 620.446  12
   7   1 -10 17192.8 1576.44  10
  -7  -1  10 23675.8 3538.07  12
   7   1 -10 21964.4 1639.44   5
   7   1  -9 17098.2 1546.17  10
  -7  -1   9 22453.5 3213.49  12
   7   1  -9 19063.7 1490.74   5
  -7  -1   8 5696.87 1662.56  12
  -7  -1   7 7582.28 1737.87  12
  -7  -1   6 14365.9 2160.31  12
  -7  -1   5 22304.2 2547.88  12
  -7  -1   4 23318.3 2516.37  12
  -7  -1   3 1207.85 676.814  12
  -7  -1   2 118.996 340.408  12
  -7  -1   1 18553.9 2142.94  12
  -7  -1   0 693.774 497.034  12
  -7  -1  -1 35873.5 2982.13  12
  -7  -1  -2 825.319 470.160  12
  -7  -1  -3 127.872 363.427  12
  -7  -1  -4 88517.4 4677.74  12
   7   1   4 92668.0 4648.38   2
   7   1   5 58478.5 3720.75   2
   7   1   6 24799.7 2455.56   2
   7   1   7 18357.0 2154.36   2
   7   1   8 1063.16 515.408   2
   7   1   9 68476.3 4538.65  13
   7   1   9 73276.6 4656.88   2
   7   1  10-117.663 483.651   2
   7   1  10 359.746 518.665  13
   7   1  11 9703.95 1878.93   2
   7   1  11 7865.90 1660.45  13
   7   1  12 612.457 428.220   9
   7   1  12 712.100 983.731   2
   7   1  13 791.338 378.069   9
   7   1  13 484.175 538.356   2
   7   1  13 730.871 357.325   7
   7   1  14 873.777 415.445   9
   7   1  14 1587.85 1075.26   2
   7   1  14 2470.77 511.736   7
   7   1  15 7364.52 1072.54   9
   7   1  15 9424.99 913.041   7
   7   1  16 4702.14 945.144   9
   7   1  16 3526.65 600.612   7
   7   1  17 15078.2 1528.35   9
   7   1  17 16655.1 1190.56   7
   7   1  18 32597.6 1632.93   7
   7   1  19 6334.72 775.357   7
   7   1  20 741.414 406.476   7
   7   1  21 14687.9 986.486   7
   7   1  22 14486.2 885.965   7
  -7  -1 -23 1957.15 428.166   5
   7   1  23 1028.64 262.022   7
  -7  -1 -24 7799.58 544.154   5
   7   2 -20 4.63657 118.363   5
   7   2 -19 938.524 299.190   5
   7   2 -18 4098.01 558.140  10
   7   2 -18 4289.03 578.544   5
   7   2 -17 1147.79 343.266  10
   7   2 -17 1056.36 389.735   5
   7   2 -16 270.736 355.465  10
   7   2 -16-157.355 309.754   5
   7   2 -15 118.668 277.891  10
   7   2 -15 815.723 393.742   5
   7   2 -14 2506.97 639.822  10
   7   2 -14 2383.71 595.106   5
   7   2 -13 19294.2 1604.76  10
   7   2 -13 18872.3 1604.00   5
   7   2 -12 51902.4 2649.70  10
   7   2 -12 48159.9 2561.22   5
   7   2 -11 668.494 420.354  10
   7   2 -11 435.946 320.670   5
  -7  -2  11 550.241 594.781  12
   7   2 -10 26152.0 1884.34  10
  -7  -2  10 27656.4 3848.67  12
   7   2 -10 30698.6 1961.24   5
   7   2  -9 20873.0 1636.83  10
  -7  -2   9 25671.0 3461.79  12
   7   2  -9 26446.9 1757.38   5
  -7  -2   8 12296.6 2329.11  12
  -7  -2   7 14443.6 2363.27  12
  -7  -2   6 9963.06 1882.67  12
  -7  -2   5 14529.9 2107.13  12
  -7  -2   4-218.247 497.153  12
  -7  -2   3 276.620 431.300  12
  -7  -2   2 11506.3 1639.73  12
  -7  -2   1 43439.3 3184.59  12
  -7  -2   0 12628.5 1716.89  12
  -7  -2  -1 8038.22 1387.19  12
  -7  -2  -2 7091.32 1286.82  12
  -7  -2  -3 79821.8 4426.75  12
  -7  -2  -4 10065.0 1581.28  12
   7   2   5 28051.7 2652.39  13
   7   2   5 31408.5 2653.82   2
   7   2   6 1690.62 745.921   2
   7   2   6 1789.91 770.631  13
   7   2   7 8031.79 1525.63  13
   7   2   7 7825.32 1381.16   2
   7   2   8 1110.93 595.675   2
   7   2   8 1526.18 824.020  13
   7   2   9 833.575 583.380   2
   7   2   9 1019.57 758.576  13
   7   2  10 1264.06 702.210  13
   7   2  10 3355.04 1097.32   2
   7   2  11 8940.94 1809.98  13
   7   2  11 13156.9 2181.37   2
   7   2  12 1430.44 808.330  13
   7   2  12 1251.53 485.395   9
   7   2  12 318.829 575.895   2
   7   2  13 5540.73 894.944   9
   7   2  13 4021.50 1263.54   2
   7   2  13 4911.45 675.530   7
   7   2  14 6542.90 963.433   9
   7   2  14 9103.73 947.548   7
   7   2  15 8860.83 1154.95   9
   7   2  15 10925.1 1020.77   7
   7   2  16 2610.19 694.643   9
   7   2  16 2417.81 536.701   7
   7   2  17 4370.05 889.531   9
   7   2  17 3997.31 658.321   7
   7   2  18 12478.7 1052.75   7
   7   2  19 3525.65 606.135   7
   7   2  20 1704.29 477.147   7
   7   2  21 466.552 266.774   7
   7   2  22 10453.4 787.107   7
  -7  -2 -23 5346.85 596.952   5
   7   2  23 5655.76 524.513   7
  -7  -2 -24 1640.94 298.784   5
   7   2  24 1652.95 247.039   7
   7   3 -20 1755.42 290.863   5
   7   3 -19 2208.13 392.173   5
   7   3 -18 11391.6 921.108   5
   7   3 -17-121.573 235.810   5
   7   3 -16 18124.6 1268.68  10
   7   3 -16 17363.3 1374.06   5
   7   3 -15 1542.99 434.354  10
   7   3 -15 1687.10 515.055   5
   7   3 -14 307.066 345.786  10
   7   3 -14 17.2928 324.060   5
   7   3 -13 397.909 384.669  10
   7   3 -13-13.7205 302.065   5
   7   3 -12 89342.3 3335.67  10
   7   3 -12 81515.5 3353.42   5
   7   3 -11 4741.26 796.776  10
   7   3 -11 3328.01 666.700   5
  -7  -3  11 3796.94 1534.16  12
   7   3 -10 30151.0 1971.44  10
  -7  -3  10 34380.4 4277.04  12
   7   3 -10 36961.9 2188.24   5
   7   3  -9 4085.07 716.131  10
  -7  -3   9 3136.26 1296.14  12
   7   3  -9 4807.27 801.107   5
  -7  -3   8 2227.91 1106.94  12
  -7  -3   7 2855.13 1103.98  12
  -7  -3   6 1319.55 642.795  12
  -7  -3   5 1333.44 679.247  12
  -7  -3   4 19081.5 2273.48  12
  -7  -3   3 201307. 7040.83  12
  -7  -3   2 4382.47 1023.88  12
  -7  -3   1 194524. 6533.80  12
  -7  -3   0 52793.0 3425.93  12
  -7  -3  -1 15715.3 1846.80  12
  -7  -3  -2 11239.7 1586.12  12
  -7  -3  -3 308.354 384.281  12
   7   3   4 151.981 372.213  13
  -7  -3  -4-28.5181 268.781  12
   7   3   5 8042.14 1441.02  13
  -7  -3  -5 8369.65 1446.39  12
   7   3   6-101.606 300.425   2
   7   3   6 622.532 568.611  13
   7   3   7 715.404 607.660   2
   7   3   7 287.769 529.203  13
   7   3   8 207.410 446.457   2
   7   3   8 1263.89 733.951  13
   7   3   9 51756.4 4286.22  13
   7   3   9 55338.2 3831.84   2
   7   3  10 2867.35 1086.80  13
   7   3  10 2564.12 946.145   2
   7   3  11 23299.8 3024.21  13
   7   3  11 30741.3 3153.03   2
   7   3  12 21538.5 1590.23   9
   7   3  12 15077.0 1166.55   7
   7   3  12 19762.0 2846.86  13
   7   3  12 19759.3 2701.41   2
   7   3  13 1655.12 619.768   9
   7   3  13 1841.64 912.435   2
   7   3  13 981.828 373.311   7
   7   3  13 947.477 850.221  13
   7   3  14 5400.88 888.715   9
   7   3  14 6711.44 850.734   7
   7   3  15 4620.06 914.583   9
   7   3  15 7572.02 872.027   7
   7   3  16 16403.1 1564.81   9
   7   3  16 18527.9 1364.38   7
   7   3  17 953.177 576.752   9
   7   3  17-270.084 335.783   7
   7   3  18 271.283 378.893   7
   7   3  19 6961.33 812.722   7
   7   3  20 1158.09 406.734   7
   7   3  21 751.498 403.939   7
   7   3  22 7640.24 702.682   7
   7   3  23 13073.9 775.566   7
  -7  -3 -23 9354.27 587.335   6
  -7  -3 -24 181.295 136.317   5
   7   3  24-137.614 154.389   7
   7   4 -20 4319.08 432.206   5
   7   4 -19 7143.59 667.712   5
   7   4 -18 506.377 301.394   5
   7   4 -17 8337.25 894.215   5
   7   4 -16 1143.84 445.301   5
   7   4 -15 13393.1 1287.02   5
   7   4 -14 12053.9 1281.72   5
   7   4 -13 1886.75 514.630  10
   7   4 -13 2092.76 589.217   5
   7   4 -12 18818.0 1545.62  10
   7   4 -12 17083.3 1568.90   5
   7   4 -11-182.931 289.939  10
   7   4 -11-311.595 427.363   5
   7   4 -10 3074.01 580.461  10
   7   4 -10 4737.19 816.190   5
  -7  -4  10 5014.91 1672.13  12
   7   4  -9 4540.68 730.706  10
  -7  -4   9 3493.71 1355.46  12
   7   4  -9 6258.92 911.713   5
  -7  -4   8 3960.96 1448.54  12
   7   4  -8 4762.03 798.230   5
  -7  -4   7 6868.70 1689.43  12
  -7  -4   6 3953.59 1228.79  12
  -7  -4   5 50147.6 3934.25  12
  -7  -4   4 47.4654 298.322  12
  -7  -4   3 161245. 6280.43  12
  -7  -4   2 29881.8 2593.61  12
  -7  -4   1 95967.5 4469.48  12
  -7  -4   0 161140. 5713.70  12
  -7  -4  -1 2268.50 651.057  12
   7   4   2 35630.6 3004.11  13
  -7  -4  -2 35978.9 2690.29  12
   7   4   3 15493.1 2017.27  13
  -7  -4  -3 15399.5 1801.61  12
   7   4   4 4185.75 1085.73  13
  -7  -4  -4 4818.49 984.131  12
   7   4   5 10320.6 1736.93  13
  -7  -4  -5 8798.49 1443.59  12
   7   4   6 5779.73 1347.08  13
  -7  -4  -6 5668.46 1170.04  12
   7   4   7 5852.87 1191.47   2
   7   4   7 7072.73 1561.26  13
   7   4   8 28418.0 3186.72  13
   7   4   8 28357.5 2534.01   2
   7   4   9 799.067 588.976  13
   7   4   9 295.189 388.846   2
   7   4  10 101.936 399.963  13
   7   4  11 8356.07 1906.78  13
   7   4  12 1052.25 776.022  13
   7   4  12 1234.99 514.331   9
   7   4  12 114.223 301.387   7
   7   4  13 4311.03 887.499   9
   7   4  13 3683.46 674.012   7
   7   4  13 3599.00 1255.41  13
   7   4  14 21077.4 1716.12   9
   7   4  14 26388.6 1651.74   7
   7   4  14 24229.0 3219.27  13
   7   4  15 5450.57 989.867   9
   7   4  15 8296.42 985.609   7
   7   4  16 780.062 524.483   9
   7   4  16 1400.69 556.000   7
   7   4  17 19564.8 1681.00   9
   7   4  17 21691.6 1481.56   7
   7   4  18 25111.1 1539.16   7
   7   4  19 9724.44 963.681   7
   7   4  20 31088.8 1518.27   7
   7   4  21 4463.81 601.477   7
  -7  -4 -22 902.292 232.063   6
   7   4  22 1232.52 335.505   7
   7   4  23 3666.37 419.656   7
   7   5 -20 5135.17 440.197   5
   7   5 -19 14019.6 872.185   5
   7   5 -18 318.077 266.758   5
   7   5 -17 5989.82 795.974   5
   7   5 -16 55.7642 335.638   5
   7   5 -15 256.129 324.734   5
   7   5 -14 13108.4 1386.38   5
   7   5 -13 641.080 421.151   5
   7   5 -12 5030.63 918.182   5
   7   5 -11-610.896 478.177   5
   7   5 -10 626.664 336.952   5
  -7  -5  10 629.643 638.318  12
  -7  -5   9 23803.6 3381.97  12
   7   5  -9 31045.0 2001.77   5
   7   5  -8 4098.64 741.539   5
  -7  -5   8 2594.27 1030.14  12
   7   5  -7 3051.07 635.284   5
  -7  -5   7 945.575 564.977  12
  -7  -5   6 2747.99 923.448  12
  -7  -5   5 9163.04 1719.03  12
  -7  -5   4 27129.5 2738.81  12
  -7  -5   3 7423.74 1354.23  12
  -7  -5   2 8059.50 1337.87  12
  -7  -5   1 5199.72 1048.63  12
  -7  -5   0 1335.49 546.502  12
  -7  -5  -1 43218.3 2764.95  12
   7   5   2 37645.0 3166.95  13
  -7  -5  -2 38429.9 2603.37  12
   7   5   3 40254.4 3286.88  13
  -7  -5  -3 38213.6 2618.46  12
   7   5   4 36962.7 3200.42  13
  -7  -5  -4 35859.4 2583.35  12
   7   5   5 18106.3 2344.38  13
  -7  -5  -5 16566.4 1797.94  12
   7   5   6 19706.5 2542.95  13
   7   5   7 603.984 576.936  13
   7   5   8 54737.5 4509.51  13
   7   5   9 8940.11 1947.63  13
   7   5  10 23163.8 3182.08  13
   7   5  11 15172.8 1307.20   9
   7   5  11 17630.4 1284.28   7
   7   5  11 16069.2 1247.35   5
   7   5  12 17746.6 1508.76   9
   7   5  12 17119.2 1322.40   7
   7   5  12 15696.5 2757.67  13
   7   5  13 1153.52 426.403   9
   7   5  13 800.095 319.051   7
   7   5  13 2394.07 1311.21  13
   7   5  14 8006.14 1059.31   9
   7   5  14 8791.35 967.692   7
   7   5  15 640.705 487.261   9
   7   5  15 580.577 431.877   7
   7   5  16 1090.65 587.586   9
   7   5  16 1362.81 497.834   7
   7   5  17 2954.72 610.106   7
   7   5  18 11858.1 1040.78   7
   7   5  19 3055.14 583.315   7
   7   5  20 7790.53 801.208   7
   7   5  21 16595.7 1023.06   7
   7   5  22 949.541 318.196   7
   7   5  23 4002.24 405.607   7
   7   6 -19 8381.74 629.718   5
   7   6 -18 110.484 174.142   5
   7   6 -17 904.608 326.054   5
   7   6 -16 911.128 419.197   5
   7   6 -15 4064.17 713.081   5
   7   6 -14 384.417 329.524   5
   7   6 -13 12735.2 1288.80   5
   7   6 -12 7356.57 1032.57   5
   7   6 -11 3653.82 722.460   5
   7   6 -10 45465.1 2426.53   5
   7   6  -9 773.397 538.019   5
   7   6  -8 4717.31 853.032   5
   7   6  -7 10379.6 1110.46   5
   7   6  -6 8483.57 937.829   5
   7   6   1 6618.57 1403.03  13
   7   6   2 38507.3 3317.05  13
   7   6   3 320.649 403.349  13
   7   6   4 8246.08 1569.76  13
   7   6   5 3567.18 1112.77  13
   7   6   6 10273.6 1924.04  13
   7   6   7 1101.81 642.467  13
   7   6   8 2233.35 1035.42  13
   7   6   9 35362.1 3921.69  13
  -7  -6 -10 21613.5 1527.48   4
   7   6  10 19140.7 2942.41  13
   7   6  10 20997.7 1418.33   5
   7   6  11 1752.53 545.130   9
  -7  -6 -11 1357.27 447.717   4
   7   6  11 2202.71 603.698   7
   7   6  11 668.809 502.588  13
   7   6  12 7643.15 1002.53   9
   7   6  12 9697.28 1036.91   7
   7   6  12 7891.89 1967.10  13
   7   6  13 2851.51 598.066   9
   7   6  13 3197.17 639.944   7
   7   6  13 3453.31 1241.78  13
   7   6  14 5735.05 916.394   9
   7   6  14 3573.26 603.423   7
   7   6  15 250.779 352.971   9
   7   6  15-28.0146 375.677   7
   7   6  16 6610.98 991.309   9
   7   6  16 8934.80 1027.79   7
   7   6  17 1312.97 538.209   7
   7   6  18 1058.76 470.944   7
   7   6  19 684.311 426.830   7
   7   6  20 4428.80 592.103   7
   7   6  21 4104.86 525.559   7
   7   6  22 8917.85 647.402   7
   7   6  23 532.782 194.230   7
   7   7 -18 159.279 154.549   5
   7   7 -17 231.985 205.533   5
   7   7 -16 290.442 260.491   5
   7   7 -15 3765.09 645.828   5
   7   7 -14 1183.44 489.653   5
   7   7 -13 3075.75 685.550   5
   7   7 -12 1561.14 512.680   5
   7   7 -11-655.102 648.383   5
   7   7 -10 10544.9 1150.80   5
   7   7  -9 9171.80 1084.25   5
   7   7  -8 14315.2 1322.28   5
   7   7  -7 20970.3 1548.37   5
   7   7  -6 311.995 246.319   5
   7   7  -5 3885.87 647.446   5
   7   7  -4 98039.6 2986.51   5
   7   7   1 8654.08 1605.65  13
   7   7   2 9716.34 1736.88  13
   7   7   3 361.051 364.043  13
   7   7   4 35307.1 3366.59  13
   7   7   5 5748.75 1400.08  13
   7   7   6 12253.3 2150.26  13
   7   7   7 9279.23 1948.27  13
  -7  -7  -8 33353.6 1815.03   4
   7   7   8 35282.7 3875.91  13
   7   7   9 2505.69 536.049   5
  -7  -7  -9 2142.05 514.314   4
   7   7   9 2945.28 1075.93  13
  -7  -7 -10 49666.8 2351.48   4
   7   7  10 43954.4 4652.10  13
   7   7  10 48648.2 2129.93   5
  -7  -7 -11 23590.7 1692.00   4
   7   7  11 24336.0 1560.09   7
   7   7  12 4968.19 826.471   7
   7   7  12 3385.81 1355.80  13
   7   7  13 12284.8 1159.99   7
   7   7  14 1689.37 445.849   7
   7   7  15 5956.53 813.872   7
   7   7  16 3014.73 643.412   7
   7   7  17 6655.79 818.351   7
   7   7  18-182.788 351.759   7
   7   7  19 4704.29 625.802   7
   7   7  20 76.3276 247.005   7
   7   7  21-158.387 227.109   7
   7   7  22 574.574 224.169   7
   7   8 -17 5300.31 506.063   5
   7   8 -16 4405.66 537.435   5
   7   8 -15 9541.67 878.851   5
   7   8 -14 11252.7 1032.12   5
   7   8 -13 35848.8 1901.97   5
   7   8 -12 307.049 307.098   5
   7   8 -11 4771.50 770.962   5
   7   8 -10-232.435 446.982   5
   7   8  -9 8261.66 1015.23   5
   7   8  -8 4431.87 755.209   5
  -7  -8   8 4292.93 702.267   4
   7   8  -7 2790.85 581.365   5
  -7  -8   7 3007.92 643.476   4
  -7  -8   6 33930.0 1874.78   4
   7   8  -6 32701.9 1854.22   5
   7   8  -5 3065.42 611.946   5
  -7  -8   5 2822.59 553.922   4
  -7  -8   4 7110.38 847.447   4
   7   8  -4 7083.79 829.230   5
  -7  -8   3 51679.0 2141.13   4
   7   8  -3 54478.2 2203.71   5
  -7  -8   2 6773.85 769.257   4
   7   8  -2 7293.77 783.319   5
   7   8   1 3357.77 1079.44  13
   7   8   2 7768.28 1591.27  13
   7   8   3-550.919 618.812  13
   7   8   4 3090.87 975.047  13
   7   8   5 1493.08 834.596  13
  -7  -8  -5 1908.93 454.285   4
   7   8   6 1205.17 328.236   5
   7   8   6 1118.64 714.087  13
  -7  -8  -6 1191.89 368.017   4
  -7  -8  -7 4631.18 707.497   4
   7   8   7 4837.21 1459.85  13
   7   8   7 4876.66 641.279   5
   7   8   8 6051.79 728.109   5
  -7  -8  -8 5750.42 813.710   4
   7   8   8 5803.02 1700.09  13
   7   8   9-34.4874 216.350   5
  -7  -8  -9 142.874 257.688   4
  -7  -8 -10 24614.6 1690.61   4
   7   8  10 22166.7 3398.55  13
   7   8  10 24800.5 1565.05   5
  -7  -8 -11 36753.4 2121.55   4
  -7  -8 -12 1389.40 495.689   4
   7   8  12 2332.70 611.762   7
   7   8  13 2505.08 677.505   7
   7   8  14 37123.0 1925.00   7
   7   8  15 19551.1 1380.53   7
   7   8  16 26164.9 1590.45   7
   7   8  17 31576.1 1617.11   7
   7   8  18 317.638 349.411   7
   7   8  19 26412.1 1299.37   7
   7   8  20 667.284 293.850   7
   7   8  21 11321.4 676.937   7
   7   8  22 92.3288 137.042   7
   7   9 -16 372.402 170.887   5
   7   9 -15 21797.6 1128.40   5
   7   9 -14 935.484 340.137   5
   7   9 -13 21778.1 1371.63   5
   7   9 -12 13766.9 1180.46   5
   7   9 -11-162.709 318.723   5
  -7  -9  11-346.510 251.952   4
  -7  -9  10 1485.59 419.781   4
   7   9 -10-127.830 373.171   5
  -7  -9   9 5157.63 780.164   4
   7   9  -9 5388.21 845.073   5
  -7  -9   8 9919.37 1096.73   4
   7   9  -8 11030.4 1142.54   5
   7   9  -7 3533.98 660.833   5
  -7  -9   7 3857.93 692.951   4
   7   9  -6 839.154 377.113   5
  -7  -9   6 1190.09 459.140   4
   7   9  -5 245.433 317.365   5
  -7  -9   5 148.652 304.460   4
   7   9  -4 2276.61 497.383   5
  -7  -9   4 2739.56 596.662   4
  -7  -9   3 13336.5 1145.23   4
   7   9  -3 13926.9 1121.52   5
   7   9  -2 3554.48 578.383   5
  -7  -9   2 3042.76 558.202   4
   7   9  -1 151.277 236.113   5
  -7  -9   1 77.3212 238.092   4
  -7  -9   0 10875.0 979.880   4
   7   9   0 11572.6 972.573   5
   7   9   1 2893.40 462.797   5
  -7  -9  -1 2618.87 508.632   4
  -7  -9  -2 10414.1 987.387   4
   7   9   2 7992.69 1669.00  13
   7   9   2 11139.8 928.380   5
   7   9   3 1662.23 385.191   5
   7   9   3 1805.94 906.059  13
  -7  -9  -3 1532.74 452.801   4
  -7  -9  -4 5867.88 728.836   4
   7   9   4 5331.05 1445.64  13
   7   9   4 6853.53 724.963   5
  -7  -9  -5 23891.4 1490.41   4
   7   9   5 21985.4 2916.57  13
   7   9   6 24.9795 240.250   5
   7   9   6 236.882 744.149  13
  -7  -9  -6 119.805 224.845   4
  -7  -9  -7 24443.3 1595.21   4
   7   9   7 25494.6 3385.14  13
   7   9   7 23814.8 1398.70   5
  -7  -9  -8 24384.9 1623.40   4
   7   9   8 22187.4 3285.18  13
   7   9   8 22694.2 1407.47   5
  -7  -9  -9 5210.98 855.307   4
   7   9   9 5256.93 682.508   5
  -7  -9 -10 820.414 432.407   4
  -7  -9 -11 51060.3 2494.10   4
  -7  -9 -12 5971.60 896.546   4
   7   9  12 7026.76 910.157   7
   7   9  13 568.133 487.118   7
   7   9  14 410.959 528.475   7
   7   9  15 10222.0 963.463   7
   7   9  16 515.750 469.429   7
   7   9  17 20232.4 1228.02   7
   7   9  18 278.059 306.493   7
   7   9  19 13504.6 855.711   7
   7   9  20 6365.73 525.412   7
   7   9  21 253.820 159.311   7
   7  10 -14 90.2374 176.713   5
   7  10 -13 8612.48 765.613   5
   7  10 -12-12.4622 197.424   5
  -7 -10  12 872.360 271.779   4
  -7 -10  11 22877.5 1343.60   4
   7  10 -11 16918.6 1227.47   5
  -7 -10  10 10539.0 972.195   4
   7  10 -10 6426.34 808.115   5
  -7 -10   9 6559.95 812.656   4
   7  10  -9 8215.51 952.646   5
  -7 -10   8 20969.0 1516.66   4
   7  10  -8 25899.1 1630.23   5
   7  10  -7 1598.42 453.471   5
  -7 -10   7 1901.33 532.234   4
  -7 -10   6 18856.2 1479.85   4
   7  10  -6 18601.3 1369.63   5
   7  10  -5 685.493 420.349   5
  -7 -10   5 1012.72 389.474   4
   7  10  -4 4610.51 657.972   5
  -7 -10   4 4228.73 661.782   4
  -7 -10   3 2023.22 473.983   4
  -7 -10   2 7082.49 836.931   4
  -7 -10   1 176.094 223.911   4
  -7 -10   0 231.099 227.357   4
  -7 -10  -1 5493.60 732.813   4
  -7 -10  -2 45.4237 245.712   4
  -7 -10  -3 4674.91 689.882   4
   7  10   4 1882.67 934.759  13
  -7 -10  -4 1917.69 484.937   4
   7  10   5 435.123 490.799  13
  -7 -10  -5 1204.21 408.893   4
  -7 -10  -6 14510.2 1243.28   4
  -7 -10  -7 220.063 281.504   4
  -7 -10  -8 3302.48 685.455   4
  -7 -10  -9 26660.9 1732.50   4
  -7 -10 -10 1179.06 460.815   4
  -7 -10 -11 136.909 303.275   4
   7  10  11 1695.22 663.602   7
  -7 -10 -12 11259.7 1180.97   4
   7  10  12 14214.5 1236.86   7
   7  10  13-6.98216 351.756   7
   7  10  14 403.750 478.217   7
   7  10  15-836.898 478.449   7
   7  10  16 1692.57 515.592   7
   7  10  17-106.268 312.825   7
   7  10  18 375.820 234.643   7
  -7 -10 -18 1087.25 217.082  11
   7  10  19 592.703 223.675   7
   7  10  20 42.3861 126.446   7
  -7 -11  12 9537.79 703.787   4
  -7 -11  11 6739.57 702.273   4
  -7 -11  10 29741.2 1523.42   4
  -7 -11   9-270.512 315.880   4
  -7 -11   8 6653.90 805.998   4
  -7 -11   7 9041.46 976.413   4
  -7 -11   6 1758.03 417.650   4
  -7 -11   5 30369.5 1790.08   4
  -7 -11   4 1513.13 429.503   4
  -7 -11   3 5344.85 763.687   4
  -7 -11   2 16601.9 1284.12   4
  -7 -11   1 8212.55 908.427   4
  -7 -11   0 30843.8 1733.25   4
  -7 -11  -1 159.745 258.868   4
  -7 -11  -2-78.8884 259.643   4
  -7 -11  -3 5818.04 804.048   4
  -7 -11  -4 2471.27 571.233   4
  -7 -11  -5 31773.3 1777.06   4
  -7 -11  -6 378.546 282.680   4
  -7 -11  -7 22240.7 1537.47   4
  -7 -11  -8 5003.56 760.951   4
  -7 -11  -9 45521.6 2208.53   4
  -7 -11 -10 33336.9 1936.69   4
   7  11  11 1647.40 656.754   7
  -7 -11 -11-69.0015 334.115   4
  -7 -11 -12 2439.22 566.205   4
   7  11  12 4160.05 680.829   7
   7  11  13 1102.21 410.439   7
   7  11  14-773.264 484.398   7
   7  11  15 1166.86 402.936   7
   7  11  16 5335.06 607.245   7
   7  11  17 370.465 258.278   7
  -7 -11 -17 22.9835 198.825  11
   7  11  18 338.065 263.984   7
  -7 -11 -18-47.8043 125.497  11
  -7 -12  12 3298.85 343.983   4
  -7 -12  11 442.719 202.731   4
  -7 -12  10 7774.18 707.817   4
  -7 -12   9 10488.8 887.070   4
  -7 -12   8 1288.92 335.504   4
  -7 -12   7 6302.08 755.451   4
  -7 -12   6 23770.4 1505.94   4
  -7 -12   5 1455.35 438.801   4
  -7 -12   4 20022.7 1412.74   4
  -7 -12   3 8354.02 925.593   4
  -7 -12   2 16823.6 1305.78   4
  -7 -12   1 846.969 366.863   4
  -7 -12   0 2969.70 578.690   4
  -7 -12  -1 3049.23 626.337   4
  -7 -12  -2 24045.7 1497.27   4
  -7 -12  -3 991.311 377.613   4
  -7 -12  -4 20595.5 1400.14   4
  -7 -12  -5 25024.8 1551.82   4
  -7 -12  -6 4323.38 660.671   4
  -7 -12  -7 46935.5 2175.64   4
  -7 -12  -8 5081.11 770.626   4
  -7 -12  -9 440.514 359.347   4
  -7 -12 -10 11645.0 1103.40   4
   7  12  11 4808.15 703.347   7
  -7 -12 -11 3082.34 604.546   4
   7  12  12 4365.37 675.885   7
   7  12  13 2576.55 417.854   7
   7  12  14 11392.0 866.880   7
   7  12  15 445.948 300.376   7
  -7 -12 -15-242.153 278.867  11
   7  12  16 5636.24 518.915   7
  -7 -12 -16 4807.27 524.202  11
   7  12  17 48.2603 146.619   7
  -7 -12 -17-8.39562 128.362  11
  -7 -13  10 5036.09 474.680   4
  -7 -13   9 2245.84 374.963   4
  -7 -13   8 3003.84 445.644   4
  -7 -13   7-290.567 312.224   4
  -7 -13   6-57.6776 257.132   4
  -7 -13   5 717.299 316.223   4
  -7 -13   4 2768.02 562.896   4
  -7 -13   3 399.401 316.474   4
  -7 -13   2 12390.0 1073.64   4
  -7 -13   1 2371.77 529.262   4
  -7 -13   0 5572.49 745.504   4
  -7 -13  -1 403.031 318.111   4
  -7 -13  -2 10143.2 982.662   4
  -7 -13  -3 30608.5 1622.74   4
  -7 -13  -3 25672.5 1543.11  11
  -7 -13  -4 25720.2 1513.14   4
  -7 -13  -4 24255.3 1556.57  11
  -7 -13  -5 23972.5 1447.70   4
  -7 -13  -5 22765.0 1538.75  11
  -7 -13  -6 16646.2 1219.46   4
  -7 -13  -7 30355.8 1625.06   4
  -7 -13  -8 420.782 324.506   4
  -7 -13  -9 2246.86 531.573   4
   7  13  10 2325.92 522.303   7
  -7 -13 -10 1619.11 435.172   4
   7  13  11 3355.54 542.026   7
  -7 -13 -11 3156.39 579.690  11
   7  13  12 10609.2 805.112   7
  -7 -13 -12 14115.5 1094.71  11
   7  13  13-254.358 309.324   7
  -7 -13 -13 440.058 287.676  11
   7  13  14 9737.77 696.640   7
  -7 -13 -14 8494.45 719.973  11
   7  13  15 327.092 178.009   7
  -7 -13 -15 265.070 187.774  11
  -7 -13 -16 4446.04 424.807  11
  -7 -14   9 2052.41 271.875   4
  -7 -14   8 25.1905 143.304   4
  -7 -14   7 234.971 152.459   4
  -7 -14   6-231.806 213.534   4
  -7 -14   5 35.6319 198.848   4
  -7 -14   4 1514.65 430.958   4
  -7 -14   3 1302.74 429.768   4
  -7 -14   2 2669.45 510.132   4
  -7 -14   1 381.804 357.985   4
  -7 -14   0 11537.0 955.843   4
  -7 -14  -1 4583.93 634.001   4
  -7 -14  -2 8871.07 832.882   4
  -7 -14  -3 5643.41 668.418   4
  -7 -14  -3 5888.87 615.906  11
  -7 -14  -4 3188.23 535.647   4
  -7 -14  -4 2948.06 518.937  11
  -7 -14  -5 11292.0 945.970   4
  -7 -14  -5 12290.0 1010.08  11
  -7 -14  -6 637.217 336.834   4
  -7 -14  -6 65.0608 268.068  11
  -7 -14  -7 4399.93 599.948   4
  -7 -14  -7 2482.11 503.259  11
  -7 -14  -8 2083.81 438.633   4
  -7 -14  -8 1178.91 393.224  11
  -7 -14  -9-67.1295 204.668   4
   7  14   9 780.702 338.672   7
  -7 -14  -9 264.275 357.422  11
   7  14  10 96.9708 243.799   7
  -7 -14 -10 215.740 299.173  11
   7  14  11 4394.03 443.455   7
  -7 -14 -11 7160.93 726.114  11
   7  14  12 1030.08 222.652   7
  -7 -14 -12 1749.83 396.292  11
   7  14  13 2765.13 316.392   7
  -7 -14 -13 2707.29 421.284  11
  -7 -14 -14 1296.26 266.879  11
  -7 -15   6 1050.30 217.052   4
  -7 -15   5 2514.47 344.089   4
  -7 -15   4 131.835 151.322   4
  -7 -15   3 3892.60 486.015   4
  -7 -15   2 1886.46 379.132   4
  -7 -15   1 1656.08 338.693   4
  -7 -15   0 590.930 266.969   4
  -7 -15  -1 6934.99 653.880   4
  -7 -15  -2 2252.09 399.226   4
  -7 -15  -3 7717.16 683.802   4
  -7 -15  -4 3235.35 475.938   4
  -7 -15  -4 2951.56 405.055  11
  -7 -15  -5 4904.96 556.260   4
  -7 -15  -5 4258.00 516.797  11
  -7 -15  -6 1479.37 339.565   4
  -7 -15  -6 1297.75 307.434  11
   7  15   7 37490.8 1262.63   7
  -7 -15  -7 36036.4 1496.77  11
   7  15   8 2206.87 348.924   7
  -7 -15  -8 1682.98 327.070   4
  -7 -15  -8 1478.17 344.491  11
   7  15   9 24361.9 934.537   7
  -7 -15  -9 28854.5 1303.01  11
   7  15  10 1283.80 202.395   7
  -7 -15 -10 3295.76 439.725  11
  -7 -15 -11 9104.73 657.679  11
  -7 -15 -12 1605.16 267.053  11
  -7 -16   3 7937.60 508.781   4
  -7 -16   2 8140.42 550.157   4
  -7 -16   1 296.789 147.311   4
  -7 -16   0 5116.26 467.764   4
  -7 -16  -1 7050.47 555.293   4
  -7 -16  -2 3935.62 424.696   4
  -7 -16  -3 444.231 187.527   4
  -7 -16  -4 6066.36 508.880   4
  -7 -16  -5 4589.11 438.046   4
  -7 -16  -6 97.4613 109.438   4
   8 -12  -4 1044.18 301.007   8
   8 -12  -4 19413.3 1040.78  11
   8 -12  -3 584.084 239.571   8
   8 -12  -3 15657.3 1005.12  11
   8 -12  -2 2626.67 435.708   8
   8 -12  -2 17059.6 1061.50  11
   8 -12  -1 18365.6 1063.25   8
   8 -12  -1 30997.1 1402.94  11
   8 -12   0 9240.43 781.990   8
   8 -12   0 30559.5 1413.54  11
   8 -12   3-358.252 204.324   1
   8 -12   4 1707.75 315.105   1
   8 -12   5 5639.05 513.701   1
   8 -12   6 249.072 181.045   1
   8 -12   7 11691.6 697.755   1
   8 -12   8 5720.23 482.653   1
   8 -11  -8 2628.82 345.412   8
   8 -11  -7 272.990 241.003   8
   8 -11  -6 429.448 281.691   8
   8 -11  -6 4412.48 593.866  11
   8 -11  -5 185.909 279.884   8
   8 -11  -5 876.824 321.441  11
   8 -11  -4 13219.8 1001.61   8
   8 -11  -4 11816.7 898.698  11
   8 -11  -3 2980.65 539.086   8
   8 -11  -3 1656.04 407.470  11
   8 -11  -2 11286.6 1020.24   8
   8 -11  -2 8545.04 827.475  11
   8 -11  -1 10260.1 951.149   8
   8 -11  -1 8370.73 864.697  11
   8 -11   0 642.600 450.474   8
   8 -11   0 1308.87 461.223  11
   8 -11   1 416.275 360.243   8
   8 -11   1 3295.91 680.538  11
   8 -11   2 1036.93 420.575   8
   8 -11   2 426.025 256.052   1
   8 -11   3 2174.98 473.137   8
   8 -11   3 1547.40 340.616   1
   8 -11   4 1176.59 381.241   8
   8 -11   4 730.781 324.164   1
   8 -11   5 7236.36 697.366   1
   8 -11   6 5375.69 613.129   1
   8 -11   7 1288.98 343.837   1
   8 -11   8 15573.3 998.717   1
   8 -11   9 398.373 272.535   1
   8 -11  10 26609.3 1139.40   1
   8 -11  11 8671.98 596.284   1
   8 -10 -10 8953.86 691.371   6
   8 -10  -9 414.890 242.955   8
   8 -10  -9-506.138 310.899   6
   8 -10  -8 13072.3 855.757   8
   8 -10  -8 10120.1 834.516   6
   8 -10  -7 3255.02 524.469   8
   8 -10  -7 3192.94 544.439   6
   8 -10  -7 2988.87 457.018  11
   8 -10  -6 2529.92 452.957  11
   8 -10  -6 3620.13 610.981   8
   8 -10  -5 3843.43 700.079   8
   8 -10  -5 2790.60 502.182  11
   8 -10  -4 28845.6 1630.88   8
   8 -10  -4 25782.0 1541.81  11
   8 -10  -3 9689.16 970.422   8
   8 -10  -3 9854.91 1013.81  11
   8 -10  -2 6613.44 871.150   8
   8 -10  -2 5082.92 747.862  11
   8 -10  -1 14708.3 1252.98   8
   8 -10  -1 11491.0 1127.38  11
   8 -10   0-45.9365 425.030   8
   8 -10   0 317.659 356.688  11
   8 -10   1 2859.98 638.946   8
   8 -10   1 2348.91 406.858   1
   8 -10   1 2996.54 589.251  11
   8 -10   2 1252.99 474.430   8
   8 -10   2 1558.46 389.278   1
   8 -10   2 1021.13 455.401  11
   8 -10   3 9532.48 929.769   8
   8 -10   3 8664.82 802.561   1
   8 -10   3 10368.3 998.864  11
   8 -10   4 22204.6 1315.19   8
   8 -10   4 22807.7 1385.46   1
   8 -10   5 236.417 317.813   8
   8 -10   5 1075.90 451.805   1
   8 -10   6 5260.56 637.717   8
   8 -10   6 6619.69 825.950   1
   8 -10   7 136.779 395.627   1
   8 -10   8-306.963 392.081   1
   8 -10   9-378.467 370.316   1
   8 -10  10 766.151 309.704   1
   8 -10  11 2946.02 462.527   1
   8 -10  12 128.176 202.907   1
   8 -10  13 24.2554 187.799   1
   8  -9 -13 137.315 132.980   6
   8  -9 -12 1283.94 299.523   6
   8  -9 -11 5999.02 616.430   6
   8  -9 -10 3156.48 426.682   8
   8  -9 -10 2888.10 455.118   6
   8  -9  -9 162.911 271.288   8
   8  -9  -9 112.046 282.364   6
   8  -9  -8 9935.07 859.281   8
   8  -9  -8 9427.62 910.415   6
   8  -9  -7-138.858 354.119   8
   8  -9  -7 609.381 406.339   6
   8  -9  -7-184.172 258.278  11
   8  -9  -6 6101.52 806.980   8
   8  -9  -6 6275.12 820.534   6
   8  -9  -6 4166.25 612.977  11
   8  -9  -5 14463.0 1252.23   8
   8  -9  -5 14098.8 1151.12   6
   8  -9  -5 10968.3 1087.24  11
   8  -9  -4 37.0307 398.943   8
   8  -9  -4 896.280 512.735   6
   8  -9  -4 424.107 402.342  11
   8  -9  -3 5284.72 793.829   8
   8  -9  -3 5003.98 808.013  11
   8  -9  -2 5769.40 882.737   8
   8  -9  -2 5051.54 828.708  11
   8  -9  -1 20599.8 1493.08   8
   8  -9  -1 18532.8 1502.80  11
   8  -9   0 6503.68 885.273   8
   8  -9   0 5541.48 832.215  11
   8  -9   1 69398.6 2585.99   8
   8  -9   1 65945.9 2665.32  11
   8  -9   2 13437.4 1167.38   8
   8  -9   2 12711.7 1036.35   1
   8  -9   2 12181.6 1139.16  11
   8  -9   3 24673.0 1489.13   8
   8  -9   3 22087.7 1441.50   1
   8  -9   3 20095.0 1431.37  11
   8  -9   4 13581.9 1094.90   8
   8  -9   4 13755.6 1151.22   1
   8  -9   4 11608.6 1096.01  11
   8  -9   5 4572.77 682.264   8
   8  -9   5 5275.38 798.782   1
   8  -9   6 3504.70 564.418   8
   8  -9   6 4403.94 733.781   1
   8  -9   7 6946.13 896.882   1
   8  -9   8-654.865 471.389   1
   8  -9   9 1580.74 508.024   1
   8  -9  10 9931.28 970.800   1
   8  -9  11 6552.31 791.843   1
   8  -9  12 11393.0 926.737   1
   8  -9  13 16113.9 983.403   1
   8  -9  14 420.870 246.323   1
   8  -9  15 5304.47 458.912   1
   8  -8 -14 4229.14 414.626   6
   8  -8 -13 33162.8 1313.31   6
   8  -8 -12 866.172 300.486   6
   8  -8 -11 29290.9 1211.98   8
   8  -8 -11 29801.3 1511.00   6
   8  -8 -10 789.337 351.050   8
   8  -8 -10 233.842 280.325   6
   8  -8  -9 24706.3 1342.95   8
   8  -8  -9 20289.6 1382.10   6
   8  -8  -8 5820.08 812.843   8
   8  -8  -8 6182.47 792.371   6
   8  -8  -7 821.661 449.894   8
   8  -8  -7 588.729 395.500   6
   8  -8  -7-32.6581 304.834  11
   8  -8  -6 2312.03 676.896   8
   8  -8  -6 2931.77 601.190   6
   8  -8  -6 1971.64 475.309  11
   8  -8  -5 1812.13 608.898   8
   8  -8  -5 2275.27 564.304   6
   8  -8  -5 1378.88 441.022  11
   8  -8  -4 8682.54 1029.11   8
   8  -8  -4 11457.3 1070.41   6
   8  -8  -4 9549.69 1116.69  11
   8  -8  -3 7103.71 995.162   8
   8  -8  -3 8764.63 945.530   6
   8  -8  -3 5741.20 885.905  11
   8  -8  -2 17051.0 1484.68   8
   8  -8  -2 15797.3 1251.65   6
   8  -8  -2 12643.2 1280.39  11
   8  -8  -1 51923.6 2415.52   8
   8  -8  -1 45975.8 2420.74  11
   8  -8   0 1832.83 621.670   8
   8  -8   0 1236.36 545.744  11
   8  -8   1 29814.5 1801.98   8
   8  -8   1 26478.9 1512.65   1
   8  -8   1 27815.9 1805.03  11
   8  -8   2 20537.3 1432.95   8
   8  -8   2 19033.1 1291.02   1
   8  -8   2 18976.8 1464.32  11
   8  -8   3 12383.3 1087.67   8
   8  -8   3 12881.6 1140.66   1
   8  -8   3 13182.8 1168.10  11
   8  -8   4 22556.4 1419.72   8
   8  -8   4 23719.4 1580.41   1
   8  -8   4 18997.0 1377.45  11
   8  -8   5 579.691 415.092   1
   8  -8   5 691.267 355.059   8
   8  -8   6 10079.2 950.295   8
   8  -8   6 13030.6 1235.31   1
   8  -8   7 1285.41 435.332   1
   8  -8   8-310.353 472.187   1
   8  -8   9 7859.90 1024.56   1
   8  -8  10 39312.5 2024.23   1
   8  -8  11 2973.93 617.670   1
   8  -8  12 7178.96 828.549   1
   8  -8  13 8487.78 858.936   1
   8  -8  14 7242.97 728.157   1
   8  -8  15 694.968 270.793   1
   8  -8  16 7318.50 545.444   1
   8  -7 -15 2018.68 316.380  10
   8  -7 -15 2613.00 325.854   6
   8  -7 -14 5.63790 211.401  10
   8  -7 -14 455.516 201.574   6
   8  -7 -13 7903.55 780.705  10
   8  -7 -13 8353.67 768.865   6
   8  -7 -12 1868.14 445.056  10
   8  -7 -12 2143.27 470.362   6
   8  -7 -11 4097.77 656.891  10
   8  -7 -11 4486.98 555.927   8
   8  -7 -11 5388.54 713.714   6
   8  -7 -10 2894.25 550.555  10
   8  -7 -10 3046.02 537.965   6
   8  -7 -10 4302.83 602.194   8
   8  -7  -9 2168.66 525.129   8
   8  -7  -9 1437.57 419.217   6
   8  -7  -8 2481.04 579.981   8
   8  -7  -8 2904.06 566.202   6
   8  -7  -7 10270.1 1059.39   8
   8  -7  -7 9572.22 1003.80   6
   8  -7  -6 2979.93 579.396   6
   8  -7  -6 2888.92 663.518   8
   8  -7  -6 1812.24 488.607  11
   8  -7  -5 25328.1 1693.26   8
   8  -7  -5 25658.1 1588.24   6
   8  -7  -5 23245.2 1611.26  11
   8  -7  -4 4214.02 790.791   8
   8  -7  -4 4218.75 671.474   6
   8  -7  -4 4132.64 767.900  11
   8  -7  -3 4017.57 784.304   8
   8  -7  -3 4008.70 648.927   6
   8  -7  -3 3390.43 724.368  11
   8  -7  -2 27867.7 1808.66   8
   8  -7  -2 30038.2 1676.29   6
   8  -7  -2 24744.3 1796.48  11
   8  -7  -1 2727.83 709.369   8
   8  -7  -1 2391.66 545.986   6
   8  -7  -1 1651.99 600.996  11
   8  -7   0 2011.54 681.933   8
   8  -7   0 2704.11 628.891   6
   8  -7   0 2040.14 610.552  11
   8  -7   1 10532.2 1104.67   8
   8  -7   1 9398.72 902.559   1
   8  -7   1 10450.1 1114.37  11
   8  -7   2 134.497 343.258   1
   8  -7   2 186.774 393.466   8
   8  -7   2-28.3444 347.736  11
   8  -7   3 5559.28 789.557   8
   8  -7   3 4977.11 736.283   1
   8  -7   3 4472.94 722.446  11
   8  -7   4 340.750 421.637   8
   8  -7   4-17.9022 430.692   1
   8  -7   4 377.188 283.201  11
   8  -7   5 109.525 304.593   8
   8  -7   5 187.283 385.867   1
   8  -7   5 919.094 419.305  11
   8  -7   6 3568.72 599.565   8
   8  -7   6 2782.75 611.409   1
   8  -7   7 12093.4 1258.24   1
   8  -7   8 6687.93 922.482   1
   8  -7   9 10413.8 1204.51   1
   8  -7  10 64276.8 2758.53   1
   8  -7  11 1181.09 675.518   1
   8  -7  12 20164.0 1430.98   1
   8  -7  13 10311.2 1029.74   1
   8  -7  14 3059.01 594.822   1
   8  -7  15 789.341 339.632   1
   8  -7  16 5004.56 543.796   1
   8  -7  17 2405.56 337.771   1
   8  -6 -16 1429.31 312.048  10
   8  -6 -16 1188.28 211.280   6
   8  -6 -15 483.876 255.056  10
   8  -6 -15-259.172 149.006   6
   8  -6 -14 2054.25 460.932  10
   8  -6 -14 2102.45 395.446   6
   8  -6 -13-179.804 276.788  10
   8  -6 -13 644.720 337.220   6
   8  -6 -12 985.268 428.868  10
   8  -6 -12 841.718 318.919   6
   8  -6 -11 501.155 310.992  10
   8  -6 -11 82.9054 370.131   6
   8  -6 -11 899.330 371.557   8
   8  -6 -10 2039.98 589.676  10
   8  -6 -10 2576.09 530.757   8
   8  -6 -10 1639.61 406.801   6
   8  -6  -9 49657.3 2432.99  10
   8  -6  -9 56420.0 2165.01   8
   8  -6  -9 52020.7 2356.00   6
   8  -6  -8 35952.7 2039.25  10
   8  -6  -8 38358.4 1883.01   8
   8  -6  -8 31842.7 1833.15   6
   8  -6  -7 15013.3 1260.85   8
   8  -6  -7 13327.7 1178.68   6
   8  -6  -6 31158.6 1856.89   8
   8  -6  -6 28290.7 1689.36   6
   8  -6  -6 26773.8 1616.82  11
   8  -6  -5 463.772 266.228   6
   8  -6  -5 1247.50 627.716   8
   8  -6  -5 466.307 308.798  11
   8  -6  -4 3489.02 729.245   8
   8  -6  -4 3040.93 555.612   6
   8  -6  -4 3437.08 710.684  11
   8  -6  -3 376.192 476.561   8
   8  -6  -3 1210.94 420.894   6
   8  -6  -3 568.584 351.039  11
   8  -6  -2 885.991 412.977   8
   8  -6  -2 1132.35 415.355   6
   8  -6  -2 683.059 394.641  11
   8  -6  -1 7814.42 959.596   8
   8  -6  -1 7484.09 823.696   6
   8  -6  -1 6746.95 953.432  11
   8  -6   0 8976.27 989.550   8
   8  -6   0 9132.76 917.146   6
   8  -6   0 8953.48 1056.48  11
   8  -6   1 1969.52 545.505   8
   8  -6   1 1799.43 445.774   1
   8  -6   1 1363.77 432.006  11
   8  -6   2-567.143 438.683   8
   8  -6   2-30.1310 292.420   1
  -8   6  -2-319.511 689.157  12
   8  -6   2-307.424 341.074  11
   8  -6   3 23347.6 1451.37   8
  -8   6  -3 22642.5 3015.13  12
   8  -6   3 22670.5 1560.04  11
   8  -6   3 23451.2 1532.44   1
   8  -6   4 2466.94 491.391   8
  -8   6  -4 3413.00 1218.28  12
   8  -6   4 3457.17 730.723   1
   8  -6   4 2232.62 533.736  11
   8  -6   5 461.535 431.028   1
   8  -6   5 209.944 321.827   8
   8  -6   5 713.197 435.387  11
   8  -6   6 9074.79 1307.84  11
   8  -6   6-164.087 491.699   1
   8  -6   7 172.047 384.009   1
   8  -6   8 5667.06 908.949   1
   8  -6   9 3315.55 731.809   1
   8  -6  10 9384.15 1164.77   1
   8  -6  11 17787.9 1444.00   1
   8  -6  12 2066.25 609.007   1
   8  -6  13 440.846 372.856   1
   8  -6  14 11090.9 1025.36   1
   8  -6  15 1624.81 459.178   1
   8  -6  16 7764.56 736.441   1
   8  -6  17 26.8953 201.506   1
   8  -6  18 8659.13 578.384   1
   8  -5 -17 2550.42 397.837  10
   8  -5 -16 13293.9 940.306  10
   8  -5 -16 10788.5 645.716   6
   8  -5 -15 1607.84 440.771  10
   8  -5 -15 2055.14 367.742   6
   8  -5 -14 19266.5 1396.01  10
   8  -5 -14 17265.5 1089.10   6
   8  -5 -13 1372.95 563.368  10
   8  -5 -13 997.661 343.736   6
   8  -5 -12 2687.44 726.307  10
   8  -5 -12 1871.05 478.705   6
   8  -5 -11 22343.6 1728.13  10
   8  -5 -11 23606.6 1337.11   8
   8  -5 -11 19290.2 1391.96   6
   8  -5 -10 6236.68 890.873  10
   8  -5 -10 8367.75 868.811   8
   8  -5 -10 6663.42 867.499   6
   8  -5  -9 11208.4 1245.87  10
   8  -5  -9 12799.3 1093.36   8
   8  -5  -9 13280.8 1205.42   6
   8  -5  -8 57158.2 2689.45  10
   8  -5  -8 60840.5 2413.06   8
   8  -5  -8 61481.8 2508.71   6
   8  -5  -7 639.891 408.671  10
   8  -5  -7 833.651 479.787   8
   8  -5  -7 846.332 444.954   6
   8  -5  -6 27516.2 1745.06  10
   8  -5  -6 29829.0 1820.60   8
   8  -5  -6 28075.6 1631.70   6
   8  -5  -5 13650.8 1277.74   8
   8  -5  -5 12877.2 1095.44   6
  -8   5   5 13972.4 2420.83  12
   8  -5  -5 12455.5 1130.06  11
   8  -5  -4-558.469 527.719   8
   8  -5  -4 94.9403 244.744   6
  -8   5   4 247.826 401.849  12
   8  -5  -4-433.815 417.943  11
   8  -5  -3 7106.28 964.509   8
   8  -5  -3 9451.21 899.753   6
  -8   5   3 10224.6 1999.45  12
   8  -5  -3 8299.24 967.587  11
   8  -5  -2 38823.4 2091.94   8
   8  -5  -2 36370.1 1761.32   6
  -8   5   2 38678.1 3772.26  12
   8  -5  -2 31802.7 1902.76  11
   8  -5  -1-238.047 381.609   8
   8  -5  -1 247.809 227.348   6
  -8   5   1-98.0598 692.884  12
   8  -5  -1 460.796 366.731  11
   8  -5   0 7416.42 893.366   8
   8  -5   0 7192.82 814.137   6
  -8   5   0 8137.89 1794.04  12
   8  -5   0 8377.50 966.278  11
   8  -5   1 9395.87 924.231   8
   8  -5   1 9863.01 962.883   6
  -8   5  -1 9558.18 1956.63  12
   8  -5   1 10156.0 1073.18  11
   8  -5   2 5878.70 768.455   8
  -8   5  -2 4869.01 1439.45  12
   8  -5   2 5589.90 782.736  11
   8  -5   2 5251.47 711.639   1
   8  -5   3 8983.03 861.858   8
  -8   5  -3 9271.66 1952.37  12
   8  -5   3 8050.60 965.984  11
   8  -5   3 8913.00 953.552   1
   8  -5   4 2685.07 509.918   8
  -8   5  -4 2491.55 1128.02  12
   8  -5   4 2361.50 561.406   1
   8  -5   4 1684.62 439.361  11
   8  -5   5-336.566 334.708   8
   8  -5   5 270.342 421.377   1
  -8   5  -5 38.1547 605.907  12
   8  -5   6 634.948 401.279   1
  -8   5  -6 580.566 703.913  12
  -8   5  -7 349.444 492.274  12
   8  -5   7 1025.97 1074.25   2
   8  -5   7 466.910 418.058   1
   8  -5   8 4254.81 778.477   1
  -8   5  -8 2637.06 1159.65  12
   8  -5   9 3548.93 812.856   1
   8  -5  10 7496.13 1072.34   1
   8  -5  11 726.114 530.062   1
   8  -5  12 9215.12 1093.64   1
   8  -5  13 19380.5 1483.63   1
   8  -5  14 9988.08 1041.39   1
   8  -5  15 9422.85 947.179   1
   8  -5  16 2588.68 565.358   4
   8  -5  16 3689.69 558.898   1
   8  -5  17 1803.79 440.112   4
   8  -5  17 2309.86 442.085   1
   8  -5  18 1607.82 348.446   4
   8  -5  18 2179.29 379.856   1
   8  -5  19 2477.86 358.310   4
   8  -4 -18 256.097 178.593  10
   8  -4 -17 2211.93 429.439  10
   8  -4 -16 341.667 300.908  10
   8  -4 -15 2645.20 562.236  10
   8  -4 -15 2080.75 373.919   6
   8  -4 -14 16472.9 1374.65  10
   8  -4 -14 14113.4 1016.64   6
   8  -4 -13 4039.55 754.417  10
   8  -4 -13 3492.91 552.331   6
   8  -4 -12 16280.3 1607.03  10
   8  -4 -12 13142.3 1128.92   6
   8  -4 -11 63192.8 2925.52  10
   8  -4 -11 60831.6 2154.61   8
   8  -4 -10-258.103 469.189  10
   8  -4 -10 419.536 345.070   8
   8  -4 -10 356.546 275.365   6
   8  -4  -9 31806.7 2073.22  10
   8  -4  -9 33319.1 1768.37   8
   8  -4  -9 32647.7 1816.84   6
   8  -4  -8 794.676 402.999  10
   8  -4  -8 2302.70 597.796   8
   8  -4  -8 1843.75 503.653   6
   8  -4  -7 12849.0 1286.45  10
   8  -4  -7 14660.4 1241.08   8
   8  -4  -7 13090.7 1121.73   6
  -8   4   7 13541.1 2421.70  12
   8  -4  -6 1843.67 478.890   6
   8  -4  -6 2347.67 610.772  10
   8  -4  -6 2527.27 642.103   8
  -8   4   6 2425.04 1105.39  12
   8  -4  -5 129.397 269.439  10
  -8   4   5 267.050 473.745  12
   8  -4  -5 150.675 352.824   8
   8  -4  -5 513.185 292.568   6
   8  -4  -4 16809.4 1290.68  10
   8  -4  -4 15963.6 1330.36   8
   8  -4  -4 17197.2 1201.35   6
  -8   4   4 19525.3 2678.16  12
   8  -4  -4 16853.0 1284.50  11
   8  -4  -3 4471.56 779.338   8
   8  -4  -3 6023.96 705.535   6
   8  -4  -3 4605.74 718.437  11
   8  -4  -2 117173. 3513.22   8
   8  -4  -2 118752. 3048.99   6
   8  -4  -1 4347.56 775.815   8
  -8   4   1 3696.94 1232.81  12
   8  -4  -1 2951.61 592.405  11
   8  -4   0 44052.4 2031.41   8
  -8   4   0 41152.1 3921.62  12
   8  -4   0 42452.2 2095.54  11
  -8   4  -1 56309.0 4602.62  12
   8  -4   1 51184.2 2264.58  11
  -8   4  -2 2143.34 941.331  12
   8  -4   2 1609.09 444.355  11
  -8   4  -3 16010.7 2556.92  12
   8  -4   3 12127.4 1104.40  11
  -8   4  -4 1314.33 837.318  12
   8  -4   4 1777.58 522.552  11
   8  -4   5 6455.41 915.977   1
  -8   4  -5 7787.67 1817.40  12
  -8   4  -6 14161.6 2470.87  12
   8  -4   6 15054.0 2416.01   2
  -8   4  -7 835.554 593.437  12
   8  -4   7 589.806 385.607   1
   8  -4   7 1999.83 970.715   2
   8  -4   8 6893.11 972.321   1
   8  -4   8 6980.27 1748.02   2
   8  -4   9 9821.87 1215.51   1
   8  -4   9 9503.35 2131.24   2
   8  -4  10 905.246 586.107   1
   8  -4  11 932.570 612.647   1
   8  -4  12 11377.3 1248.90   1
   8  -4  12 8492.47 1059.14   9
   8  -4  13 17029.7 1392.39   1
   8  -4  13 13041.1 1267.03   9
   8  -4  14 370.361 326.484   9
   8  -4  14 516.073 415.620   1
   8  -4  15 6210.55 821.374   1
   8  -4  16-130.283 355.211   1
   8  -4  17 2171.31 461.588   1
   8  -4  18 5582.20 589.041   1
   8  -4  19 636.749 269.852   4
   8  -4  20 7249.30 624.360   4
   8  -3 -19 349.361 172.649  10
   8  -3 -18 6674.80 637.435  10
   8  -3 -17 2277.86 465.186  10
   8  -3 -16 521.763 348.386  10
   8  -3 -15 6558.66 899.272  10
   8  -3 -14 12122.0 1204.32  10
   8  -3 -13 39194.1 2288.90  10
   8  -3 -12 807.942 606.301  10
   8  -3 -11 44499.4 2527.77  10
   8  -3 -11 42113.6 1848.25   8
   8  -3 -10 15947.2 1530.13  10
   8  -3 -10 19701.8 1333.18   8
   8  -3 -10 16517.2 1271.11   6
   8  -3  -9 4502.41 826.677  10
   8  -3  -9 5470.24 744.310   8
   8  -3  -8 16629.7 1563.44  10
   8  -3  -8 17104.4 1324.15   8
  -8   3   8 17510.6 2878.29  12
   8  -3  -7 2188.08 620.217  10
   8  -3  -7 2623.31 623.691   8
  -8   3   7 2782.56 1161.98  12
   8  -3  -6 304.957 307.497  10
   8  -3  -6 271.302 361.473   8
  -8   3   6 802.743 407.575  12
   8  -3  -5 9757.12 1068.07  10
   8  -3  -5 9587.37 1049.77   8
  -8   3   5 11816.1 2110.76  12
  -8   3   4 4150.09 1354.50  12
   8  -3  -4 3007.14 643.439   8
   8  -3  -3 3761.53 642.197   8
  -8   3   3 5689.81 1515.96  12
  -8   3   2 31171.9 3313.27  12
  -8   3   1 4499.68 1255.85  12
  -8   3   0 39033.7 3747.90  12
  -8   3  -1 12526.3 2143.72  12
  -8   3  -2 3494.34 1096.73  12
  -8   3  -3 1950.86 961.568  12
  -8   3  -4 59141.9 4689.78  12
   8  -3   5 5916.93 1473.77   2
  -8   3  -5 5484.22 1433.14  12
  -8   3  -6 97403.6 6129.32  12
   8  -3   6 97599.4 5846.33   2
   8  -3   7 58912.3 4718.40   2
   8  -3   8 14196.1 2344.94   2
   8  -3   9 56713.2 2397.34   9
   8  -3   9 57826.2 4876.49   2
   8  -3  10 362.246 331.540   9
   8  -3  10 348.252 824.228   2
   8  -3  11 135.191 327.171   9
   8  -3  11 1622.44 892.056   2
   8  -3  11 759.796 554.581   1
   8  -3  12 1682.75 494.875   9
   8  -3  12 3287.85 751.898   1
   8  -3  13 5693.75 893.075   1
   8  -3  13 4298.43 814.671   9
   8  -3  14 1101.85 534.972   9
   8  -3  14 1113.43 473.442   1
   8  -3  15 2059.15 637.591   9
   8  -3  15 3145.42 637.898   1
   8  -3  16 2531.84 529.855   1
   8  -3  17 2215.01 482.532   1
   8  -3  18 21029.6 1173.44   1
   8  -3  21 10974.8 734.685   4
   8  -2 -19 3085.75 397.916  10
   8  -2 -18 3030.32 464.306  10
   8  -2 -17 20.4986 249.773  10
   8  -2 -16 674.293 371.434  10
   8  -2 -15 1943.50 569.729  10
   8  -2 -14 2930.48 723.082  10
   8  -2 -13 5565.71 1001.04  10
   8  -2 -12 7122.55 1119.79  10
   8  -2 -11 1032.15 591.122  10
   8  -2 -11 688.022 388.834   8
   8  -2 -10 13818.6 1469.50  10
   8  -2 -10 15523.4 1184.54   8
   8  -2  -9 7880.50 1098.30  10
   8  -2  -9 8958.91 966.921   8
   8  -2  -8 1341.43 468.034  10
   8  -2  -8 1289.99 431.445   8
  -8   2   8 1700.90 966.791  12
   8  -2  -7 1252.88 538.128  10
   8  -2  -7 1546.72 534.300   8
  -8   2   7 3062.66 1240.87  12
   8  -2  -6 9702.58 1115.93  10
   8  -2  -6 10697.7 1080.17   8
  -8   2   6 11168.7 2109.32  12
   8  -2  -5 1213.65 523.137   8
  -8   2   5 1328.36 738.410  12
  -8   2   4 1891.75 955.555  12
  -8   2   3 19964.2 2606.41  12
  -8   2   2 4661.29 1265.00  12
  -8   2   1 2064.26 879.251  12
  -8   2   0 542.177 487.063  12
  -8   2  -1 178.936 476.129  12
  -8   2  -2 14731.0 2292.70  12
  -8   2  -3 511.560 492.720  12
  -8   2  -4 930.987 770.530  12
  -8   2  -5 32173.6 3380.34  12
   8  -2   5 33284.3 3291.33   2
   8  -2   6 244.967 464.830   2
   8  -2   7 5181.44 1363.30   2
   8  -2   8 787.653 646.139   2
   8  -2   9 148.291 238.806   9
   8  -2   9 47.4690 502.248   2
   8  -2  10 10519.2 1105.64   9
   8  -2  10 11016.8 2215.37   2
   8  -2  11 28725.2 1883.59   9
   8  -2  11 26278.4 3510.63   2
   8  -2  12 3882.67 755.500   9
   8  -2  12 3842.88 1423.40   2
   8  -2  13 6926.69 987.328   9
   8  -2  14 759.239 486.909   9
   8  -2  14 1396.61 515.537   1
   8  -2  15 22389.5 1824.11   9
   8  -2  15 26793.7 1632.92   1
   8  -2  16 1026.65 516.495   9
   8  -2  16 1442.61 462.524   1
   8  -2  17 5168.30 718.593   1
   8  -2  18 9728.93 842.068   1
   8  -2  19 1462.44 309.493   7
  -8   2 -20 319.108 203.709   5
   8  -2  20 243.746 192.434   7
   8  -1 -19 15312.2 865.742  10
   8  -1 -18 8518.00 756.181  10
   8  -1 -17 394.460 363.672  10
   8  -1 -16 1442.48 488.998  10
   8  -1 -15 1932.37 608.566  10
   8  -1 -14 1563.62 607.432  10
   8  -1 -13 6694.65 1054.14  10
   8  -1 -12 33816.0 2268.17  10
   8  -1 -11 332.588 428.758  10
   8  -1 -11 879.666 343.309   8
   8  -1 -10 7565.22 1104.29  10
   8  -1 -10 8285.09 864.824   8
   8  -1  -9 10527.3 1269.17  10
   8  -1  -9 10718.5 1047.45   8
  -8   1   9 12295.1 2475.67  12
   8  -1  -8 20087.1 1693.61  10
   8  -1  -8 18718.8 1309.69   8
  -8   1   8 22848.2 3235.58  12
   8  -1  -7 2079.36 581.284  10
  -8   1   7 2476.30 1058.70  12
   8  -1  -6 6000.47 872.594  10
  -8   1   6 6285.87 1579.86  12
  -8   1   5 6719.31 1565.02  12
  -8   1   4 17701.0 2508.95  12
  -8   1   3 3844.99 1191.22  12
  -8   1   2 2349.42 922.001  12
  -8   1   1 7392.87 1530.08  12
  -8   1   0 35866.4 3397.18  12
  -8   1  -1 1290.73 737.021  12
  -8   1  -2 51464.5 4106.62  12
  -8   1  -3 2973.36 1028.88  12
  -8   1  -4 622.904 530.162  12
  -8   1  -5 13452.9 2133.44  12
   8  -1   5 14683.6 2133.76   2
   8  -1   6 6620.88 1518.87   2
   8  -1   7 9517.65 1843.66   2
   8  -1   8 966.007 768.902   2
   8  -1   9 84606.4 5584.66   2
   8  -1  10 779.219 383.699   9
   8  -1  10 899.996 829.370   2
   8  -1  11 107932. 3548.95   9
   8  -1  11 101127. 6649.40   2
   8  -1  12 636.187 455.278   9
   8  -1  12-474.860 831.251   2
   8  -1  13 14263.2 1432.95   9
   8  -1  14 1014.44 441.936   9
   8  -1  15 6622.67 1220.56   9
   8  -1  16 1644.87 657.651   9
   8  -1  16 1302.11 386.618   7
   8  -1  16 1835.54 537.387   1
   8  -1  17 3418.28 609.903   1
   8  -1  17 2594.15 473.074   7
   8  -1  18 198.538 295.032   1
   8  -1  18 313.426 251.937   7
   8  -1  19 1979.47 398.032   7
   8  -1  20 559.185 226.960   7
   8  -1  21 514.647 215.222   7
  -8   1 -22 1155.60 264.300   5
   8  -1  22 867.851 196.618   7
   8   0 -19 364.045 192.936  10
   8   0 -18 2286.15 416.437  10
   8   0 -17 7893.56 816.599  10
   8   0 -17 6317.39 604.132   5
   8   0 -16 1139.63 441.932  10
   8   0 -16 1083.48 353.155   5
   8   0 -15 33912.0 1928.11  10
   8   0 -15 29830.5 1592.42   5
   8   0 -14 14251.9 1368.14  10
   8   0 -14 12283.6 1131.74   5
   8   0 -13 12193.7 1312.54  10
   8   0 -13 9613.79 1070.86   5
   8   0 -12 45921.1 2550.62  10
   8   0 -12 37034.2 2032.91   5
   8   0 -11 18692.0 1683.39  10
   8   0 -11 16807.5 1198.08   8
   8   0 -10 824.579 403.555  10
   8   0 -10 857.058 336.680   5
   8   0  -9 10656.8 1241.97  10
  -8   0   9 12669.1 2562.56  12
   8   0  -9 11180.5 1113.25   5
   8   0  -8 13285.8 1371.53  10
  -8   0   8 12338.0 2345.07  12
   8   0  -8 11041.6 1080.28   5
   8   0  -7 6947.25 991.011  10
  -8   0   7 7357.63 1805.14  12
  -8   0   6 7231.64 1696.19  12
  -8   0   5 1607.64 669.989  12
  -8   0   4 6243.58 1501.04  12
  -8   0   3 30126.7 3112.12  12
  -8   0   2 873.903 679.794  12
  -8   0   1 41084.4 3562.74  12
  -8   0   0 69444.3 4629.21  12
  -8   0  -1 10053.6 1793.31  12
  -8   0  -2 37376.2 3466.78  12
  -8   0  -3 23555.9 2723.45  12
  -8   0  -4 3373.85 1038.37  12
   8   0   5 5528.61 1406.07   2
  -8   0  -5 3805.66 1148.51  12
   8   0   6 34903.9 3219.87   2
   8   0   7 3511.92 1087.67   2
   8   0   8 22551.4 2791.35   2
   8   0   9 97256.4 5872.68   2
   8   0  10 421.947 348.591   9
   8   0  10 375.305 675.569   2
   8   0  11 20529.6 1523.39   9
   8   0  11 19635.8 2878.64   2
   8   0  12 11193.4 1258.98   9
   8   0  12 10316.9 2243.63   2
   8   0  13 3095.27 715.456   9
   8   0  13 3781.54 1442.72   2
   8   0  14 3395.15 741.354   9
   8   0  14 4121.23 614.465   7
   8   0  15 1668.36 573.440   9
   8   0  15 1848.45 434.232   7
   8   0  16 879.517 634.892   9
   8   0  16-151.458 295.656   7
   8   0  17 7994.67 1150.82   9
   8   0  17 7782.84 779.358   7
   8   0  18 12527.8 1009.98   1
   8   0  18 11450.8 928.731   7
   8   0  19 1750.97 401.404   7
   8   0  20 30209.4 1309.62   7
   8   0  21 369.454 205.034   7
  -8   0 -22 5689.03 615.521   5
   8   0  22 5223.36 480.477   7
   8   1 -19 8938.16 609.577  10
   8   1 -18 7985.59 721.652  10
   8   1 -18 6122.35 574.867   5
   8   1 -17 681.718 304.502  10
   8   1 -17 446.529 202.777   5
   8   1 -16 13419.9 1135.11  10
   8   1 -16 12917.5 1031.17   5
   8   1 -15 6123.06 837.115  10
   8   1 -15 5800.45 804.407   5
   8   1 -14 25545.8 1767.98  10
   8   1 -14 22538.6 1567.55   5
   8   1 -13 1516.03 586.383  10
   8   1 -13 401.075 274.176   5
   8   1 -12 9479.69 1213.92  10
   8   1 -12 6816.60 911.255   5
   8   1 -11 2872.31 773.018  10
   8   1 -11 1265.49 435.411   5
   8   1 -10 2431.62 588.664  10
   8   1 -10 2812.33 630.783   5
   8   1  -9-369.818 432.825  10
   8   1  -9 277.093 327.759   5
  -8  -1   9 330.412 909.803  12
   8   1  -8 13652.9 1356.41  10
  -8  -1   8 14637.0 2610.16  12
   8   1  -8 13992.8 1229.94   5
   8   1  -7 2817.15 668.380  10
  -8  -1   7 2353.13 1090.53  12
  -8  -1   6 9060.38 1870.60  12
  -8  -1   5 10.9987 522.723  12
  -8  -1   4 18395.9 2479.98  12
  -8  -1   3 6478.10 1445.41  12
  -8  -1   2 2661.55 951.191  12
  -8  -1   1 3892.60 1112.63  12
  -8  -1   0 49721.7 3863.37  12
  -8  -1  -1 31313.2 3070.28  12
  -8  -1  -2 671.771 487.448  12
  -8  -1  -3 30244.4 3039.78  12
  -8  -1  -4 48073.0 3811.13  12
   8   1   5 6225.43 1336.40   2
  -8  -1  -5 6533.73 1449.06  12
   8   1   6 28345.9 2914.46   2
   8   1   7 2457.53 875.419   2
   8   1   8 43419.5 3704.72   2
   8   1   9 36756.8 3564.93   2
   8   1  10 6992.96 869.020   9
   8   1  10 7529.31 1695.94   2
   8   1  11 36768.7 2019.27   9
   8   1  11 38323.9 3907.52   2
   8   1  12-142.309 340.643   9
   8   1  12-63.6686 665.020   2
   8   1  12 197.764 313.794   7
   8   1  13 948.413 471.627   9
   8   1  13 1146.20 916.786   2
   8   1  13 989.708 379.148   7
   8   1  14 103.153 349.722   9
   8   1  14 505.821 337.431   7
   8   1  15 10414.9 1248.54   9
   8   1  15 14166.9 1081.61   7
   8   1  16 9909.09 1266.03   9
   8   1  16 9553.81 897.085   7
   8   1  17 4240.44 881.680   9
   8   1  17 3144.53 565.059   7
   8   1  18 28968.6 1464.85   7
   8   1  19 3152.17 544.168   7
   8   1  20 32074.5 1414.04   7
   8   1  21 15933.3 936.364   7
   8   1  22-158.114 203.557   7
  -8  -1 -23 4227.26 457.523   5
   8   1  23 3387.21 339.153   7
   8   2 -19 1661.14 251.010   5
   8   2 -18 14238.6 907.962   5
   8   2 -18 15233.6 906.736  10
   8   2 -17 508.462 265.965  10
   8   2 -17 391.356 258.167   5
   8   2 -16 11259.3 1022.85  10
   8   2 -16 8817.74 963.353   5
   8   2 -15 1020.84 434.795  10
   8   2 -15 1668.97 511.078   5
   8   2 -14 596.001 342.157  10
   8   2 -14 663.458 292.682   5
   8   2 -13 2551.12 631.906  10
   8   2 -13 1795.07 551.608   5
   8   2 -12 1108.83 489.138  10
   8   2 -12 591.545 341.303   5
   8   2 -11 3295.87 722.275  10
   8   2 -11 2307.27 541.861   5
   8   2 -10 2936.35 663.149  10
   8   2 -10 3886.19 745.394   5
   8   2  -9 2768.83 654.827  10
   8   2  -9 3295.17 675.403   5
  -8  -2   9 2709.54 1213.88  12
   8   2  -8 19357.8 1631.59  10
  -8  -2   8 19496.0 3040.56  12
   8   2  -8 20737.2 1535.93   5
   8   2  -7 300.113 380.563  10
   8   2  -7 457.884 397.677   5
  -8  -2   7 84.1908 557.590  12
  -8  -2   6 18992.5 2705.48  12
  -8  -2   5 731.970 765.247  12
  -8  -2   4 67746.5 4664.85  12
  -8  -2   3 2068.49 938.313  12
  -8  -2   2 1908.23 805.529  12
  -8  -2   1 4408.20 1158.13  12
  -8  -2   0 872.434 523.663  12
  -8  -2  -1 21307.9 2484.07  12
  -8  -2  -2 26113.1 2785.16  12
  -8  -2  -3 310.311 437.752  12
  -8  -2  -4 25358.0 2747.97  12
  -8  -2  -5 2031.10 865.909  12
  -8  -2  -6 14693.5 2176.29  12
   8   2   6 17696.6 2219.12   2
   8   2   7 3047.37 963.562   2
   8   2   8 14362.4 2065.95   2
   8   2   9 8983.27 1758.32   2
   8   2  10 761.727 388.670   9
   8   2  10 807.146 566.170   2
   8   2  11 32090.9 1874.67   9
   8   2  11 32321.3 3493.40   2
   8   2  12-191.216 306.321   9
   8   2  12 404.046 764.018   2
   8   2  12 207.491 319.646   7
   8   2  13 15708.7 1483.58   9
   8   2  13 14976.2 1142.59   7
   8   2  13 13359.6 2448.35   2
   8   2  14 478.295 374.106   9
   8   2  14 275.740 300.632   7
   8   2  15 8913.17 1187.09   9
   8   2  15 12165.0 1030.26   7
   8   2  16 415.759 418.316   9
   8   2  16 839.051 438.760   7
   8   2  17 10393.8 1309.82   9
   8   2  17 12537.2 1019.85   7
   8   2  18 20685.7 1272.66   7
   8   2  19 1398.28 422.619   7
   8   2  20 735.747 385.828   7
   8   2  21 3590.77 489.856   7
   8   2  22 4504.84 479.417   7
  -8  -2 -23 1204.92 276.198   5
   8   2  23 1053.05 209.476   7
   8   3 -19 7353.00 541.735   5
   8   3 -18 9777.94 748.123   5
   8   3 -17 1276.40 353.999   5
   8   3 -16 292.543 232.857  10
   8   3 -16 604.246 310.967   5
   8   3 -15 737.214 348.215  10
   8   3 -15 1091.04 437.617   5
   8   3 -14 272.376 303.591  10
   8   3 -14 671.983 351.394   5
   8   3 -13 543.711 366.720  10
   8   3 -13 64.6974 321.316   5
   8   3 -12 6816.55 942.079  10
   8   3 -12 7070.25 962.524   5
   8   3 -11 584.880 422.243  10
   8   3 -11-202.740 438.410   5
   8   3 -10 28614.0 1979.45  10
   8   3 -10 31211.6 2009.79   5
   8   3  -9 15259.7 1453.99  10
  -8  -3   9 14012.1 2764.99  12
   8   3  -9 18074.4 1523.97   5
   8   3  -8 12399.2 1297.51  10
  -8  -3   8 13664.9 2621.97  12
   8   3  -8 14573.5 1324.92   5
   8   3  -7 7794.53 1063.17  10
  -8  -3   7 8283.45 1931.69  12
   8   3  -7 7751.45 927.235   5
  -8  -3   6-66.6038 606.048  12
  -8  -3   5 1759.19 874.689  12
  -8  -3   4 15784.6 2295.81  12
  -8  -3   3 1598.16 777.093  12
  -8  -3   2 20551.6 2423.06  12
  -8  -3   1 83692.4 4753.37  12
  -8  -3   0 58.9082 331.436  12
  -8  -3  -1 56303.1 3869.98  12
  -8  -3  -2 23695.3 2529.43  12
  -8  -3  -3 6536.25 1369.87  12
  -8  -3  -4 637.774 402.309  12
  -8  -3  -5 478.331 511.884  12
   8   3   6 6437.34 1529.98  13
  -8  -3  -6 5616.23 1425.51  12
   8   3   7 13384.5 2194.17  13
  -8  -3  -7 12088.9 1964.05  12
   8   3   7 15446.0 2094.94   2
   8   3   8 17008.0 2563.27  13
   8   3   8 16475.5 2194.68   2
   8   3   9 2627.54 928.076   2
   8   3   9 2973.27 1243.46  13
   8   3  10 15629.1 1233.48   9
   8   3  10 13365.6 2344.50  13
   8   3  10 18065.9 2433.15   2
   8   3  10 14127.4 1225.46   5
   8   3  11 19979.7 1453.31   9
   8   3  11 14220.7 1073.51   7
   8   3  11 16711.2 2707.33  13
   8   3  11 20593.6 2703.90   2
   8   3  12 584.714 335.049   9
   8   3  12 903.685 753.630  13
   8   3  12 683.938 627.164   2
   8   3  12 463.200 311.459   7
   8   3  13 3821.61 800.537   9
   8   3  13 4005.76 702.604   7
   8   3  13 3120.93 1335.34  13
   8   3  14 1870.79 534.459   9
   8   3  14 2427.20 547.160   7
   8   3  15 27085.1 2011.33   9
   8   3  15 39137.6 1885.76   7
   8   3  16 2260.26 666.049   9
   8   3  16 2342.62 578.222   7
   8   3  17 5590.51 1003.01   9
   8   3  17 5175.41 741.031   7
   8   3  18 2968.06 552.461   7
   8   3  19 216.770 384.230   7
   8   3  20 773.493 354.558   7
   8   3  21 1261.90 339.788   7
   8   3  22 2821.88 405.906   7
   8   3  23 3994.25 390.728   7
   8   4 -19 716.338 207.370   5
   8   4 -18 7103.54 635.094   5
   8   4 -17 414.104 270.287   5
   8   4 -16 11063.8 984.093   5
   8   4 -15 4178.64 718.409   5
   8   4 -14 63.9172 289.201  10
   8   4 -14 549.074 371.062   5
   8   4 -13 14122.5 1272.13  10
   8   4 -13 13529.8 1302.89   5
   8   4 -12 42.7107 305.509  10
   8   4 -12-924.287 556.239   5
   8   4 -11 8551.62 1059.67  10
   8   4 -11 6752.39 930.539   5
   8   4 -10 422.537 294.201  10
   8   4 -10 2050.62 558.388   5
   8   4  -9-519.705 493.384  10
   8   4  -9 495.395 451.229   5
  -8  -4   9 81.3243 822.207  12
   8   4  -8 4727.08 837.562  10
   8   4  -8 4714.72 808.406   5
   8   4  -7 328.341 354.037  10
   8   4  -7 16.2945 248.486   5
  -8  -4   7 701.338 704.671  12
   8   4  -6 27386.5 1805.69  10
  -8  -4   6 25192.5 3153.20  12
   8   4  -6 26063.1 1643.48   5
  -8  -4   5 20364.7 2694.37  12
  -8  -4   4 59502.0 4372.70  12
  -8  -4   3 191715. 7464.90  12
  -8  -4   2 35783.6 3124.87  12
  -8  -4   1 344572. 9396.99  12
  -8  -4   0 30076.6 2723.90  12
  -8  -4  -1 27389.7 2599.12  12
  -8  -4  -2 25412.9 2507.63  12
  -8  -4  -3 264.080 387.553  12
  -8  -4  -4 405.499 456.583  12
   8   4   5 10438.1 1872.12  13
  -8  -4  -5 9643.18 1596.96  12
   8   4   6 2440.28 1010.39  13
  -8  -4  -6 1792.77 760.133  12
   8   4   7 758.394 852.232  13
  -8  -4  -7 508.633 428.013  12
   8   4   8 13069.3 2320.77  13
  -8  -4  -8 10079.1 1787.77  12
   8   4   9 6822.70 1744.59  13
   8   4   9 8012.03 1544.31   2
   8   4  10 9015.05 933.527   9
   8   4  10 9388.54 924.166   7
   8   4  10 8712.16 1964.19  13
   8   4  10 9100.10 991.551   5
   8   4  11 43586.4 2141.68   9
   8   4  11 38770.3 1867.67   7
   8   4  11 43532.2 2085.26   5
   8   4  12 3971.36 754.632   9
   8   4  12 1813.55 476.569   7
   8   4  12 2591.77 1099.53  13
   8   4  13 1899.85 598.946   9
   8   4  13 1674.68 486.468   7
   8   4  13 1126.75 697.356  13
   8   4  14 5916.96 962.890   9
   8   4  14 8693.60 957.794   7
   8   4  15 1586.77 548.952   9
   8   4  15 1948.51 534.283   7
   8   4  16 17549.4 1616.21   9
   8   4  16 19364.8 1375.70   7
   8   4  17 1089.06 530.425   9
   8   4  17 971.721 469.025   7
   8   4  18 615.930 407.088   7
   8   4  19 6371.43 761.875   7
   8   4  20 2871.77 495.838   7
   8   4  21 481.874 308.442   7
   8   4  22 1291.90 321.301   7
   8   4  23 127.414 154.978   7
   8   5 -19 1957.05 275.929   5
   8   5 -18 6121.03 574.567   5
   8   5 -17 7787.17 732.463   5
   8   5 -16 253.023 238.413   5
   8   5 -15 3230.16 656.134   5
   8   5 -14 2664.35 650.442   5
   8   5 -13 5999.51 945.062   5
   8   5 -12 21258.8 1718.40   5
   8   5 -11 1296.32 423.704   5
   8   5 -10 11462.8 1267.59   5
   8   5 -10 9906.38 1145.23  10
   8   5  -9 158.611 290.377  10
   8   5  -9-130.069 478.736   5
   8   5  -8 802.962 471.116  10
   8   5  -8-79.2602 418.967   5
  -8  -5   8-115.382 580.146  12
   8   5  -7 1213.41 494.990  10
   8   5  -7 895.970 408.417   5
  -8  -5   7 677.859 529.636  12
  -8  -5   6 17876.2 2694.50  12
   8   5  -6 21750.1 1524.07   5
   8   5  -6 21784.5 1635.98  10
   8   5  -5 4541.44 770.496  10
   8   5  -5 3304.06 584.609   5
  -8  -5   5 3526.68 1255.53  12
  -8  -5   4 343.263 433.959  12
  -8  -5   3 50459.8 3817.41  12
  -8  -5   2 4158.57 1072.24  12
  -8  -5   1 45134.4 3315.39  12
  -8  -5   0 30834.0 2667.48  12
  -8  -5  -1 1039.90 556.675  12
  -8  -5  -2 3403.37 868.629  12
  -8  -5  -3 34916.1 2784.92  12
   8   5   4 9867.41 1815.35  13
   8   5   5 46204.0 3911.53  13
   8   5   6 2604.61 1081.31  13
   8   5   7 47495.6 4267.43  13
   8   5   8 57102.3 4863.36  13
   8   5   9 10220.8 982.733   9
  -8  -5  -9 9258.91 964.565   4
   8   5   9 11432.3 2264.59  13
   8   5   9 10849.3 1009.21   5
   8   5  10 21353.5 1467.16   9
   8   5  10 23340.0 1466.98   7
   8   5  10 20748.9 3120.77  13
   8   5  10 21288.9 1431.11   5
   8   5  11 2981.49 636.428   9
   8   5  11 2989.89 612.780   7
   8   5  11 1752.24 1001.12  13
   8   5  11 2683.69 556.384   5
   8   5  12 5653.82 916.821   9
   8   5  12 5021.88 755.052   7
   8   5  12 4634.89 1576.48  13
   8   5  13 10860.5 1208.71   9
   8   5  13 7706.00 853.905   7
   8   5  14 3534.94 747.300   9
   8   5  14 6553.75 871.126   7
   8   5  15 24435.6 1896.04   9
   8   5  15 30250.6 1801.46   7
   8   5  16 428.650 464.220   9
   8   5  16-124.953 396.709   7
   8   5  17 12703.1 1312.74   9
   8   5  17 15230.3 1241.06   7
   8   5  18 12910.1 1054.51   7
   8   5  19 6708.85 760.730   7
   8   5  20 13934.7 972.286   7
   8   5  21 3336.04 490.027   7
   8   5  22 7308.04 598.071   7
   8   5  23 6906.56 472.547   7
   8   6 -18 71.8994 124.647   5
   8   6 -17 586.090 267.503   5
   8   6 -16 236.165 212.329   5
   8   6 -15 653.721 380.981   5
   8   6 -14 426.304 460.444   5
   8   6 -13 5038.27 866.200   5
   8   6 -12 4642.85 879.808   5
   8   6 -11 19358.2 1599.42   5
   8   6 -10 3037.21 657.949   5
   8   6  -9 15226.2 1433.74   5
   8   6  -8 30612.7 1958.82   5
   8   6  -7-222.170 355.706   5
   8   6  -6 462.879 251.560   5
   8   6  -5 119.656 228.561   5
   8   6  -4 21296.3 1427.37   5
   8   6  -3 957.227 363.127   5
   8   6   3 9948.04 1809.94  13
   8   6   4 25576.1 2948.15  13
   8   6   5 12756.9 2119.23  13
   8   6   6 55912.1 4561.89  13
   8   6   7 6596.02 1694.21  13
  -8  -6  -8 66551.1 2459.93   4
   8   6   8 66554.9 5342.51  13
   8   6   8 64734.7 2361.08   5
   8   6   9 179.781 261.947   5
   8   6   9-221.550 263.664   9
  -8  -6  -9 87.6735 289.144   4
   8   6   9 295.390 590.654  13
   8   6  10 5662.27 790.248   9
  -8  -6 -10 4971.07 754.550   4
   8   6  10 6055.13 1803.61  13
   8   6  10 4894.49 749.915   5
   8   6  11 5306.76 804.047   9
   8   6  11 6784.62 877.911   7
   8   6  11 5228.69 772.326   5
   8   6  12 42038.2 2259.00   9
   8   6  12 44452.2 2115.65   7
   8   6  13 9660.39 1164.07   9
   8   6  13 10901.8 1101.89   7
   8   6  14 7755.09 1067.30   9
   8   6  14 8977.73 987.125   7
   8   6  15 527.458 467.697   9
   8   6  15 79.8072 376.835   7
   8   6  16 658.866 494.216   9
   8   6  16 784.374 491.884   7
   8   6  17 537.241 385.716   7
   8   6  18 31.5018 350.630   7
   8   6  19 255.619 327.498   7
   8   6  20 4350.33 579.927   7
   8   6  21 7459.42 647.203   7
   8   6  22 680.306 254.585   7
   8   7 -17 718.807 212.771   5
   8   7 -16 294.730 181.514   5
   8   7 -15 10765.1 924.226   5
   8   7 -14 546.176 363.228   5
   8   7 -13 24822.9 1610.91   5
   8   7 -12 8811.94 1069.33   5
   8   7 -11 33511.7 2061.10   5
   8   7 -10 8493.24 997.201   5
   8   7  -9 420.459 299.974   5
   8   7  -8 11550.4 1211.17   5
   8   7  -7 2342.75 583.575   5
   8   7  -6 793.200 354.290   5
   8   7  -5 19927.3 1452.60   5
   8   7  -4 462.549 316.290   5
   8   7  -3 494.586 304.945   5
   8   7  -2 6383.08 764.950   5
   8   7  -1 5014.92 680.440   5
   8   7   0 4062.34 638.839   5
   8   7   3 6964.58 1564.18  13
   8   7   4 60.7402 467.444  13
   8   7   5 1523.59 411.236   5
  -8  -7  -5 1584.94 398.443   4
   8   7   5 1007.95 742.105  13
   8   7   6 218.027 260.697   5
  -8  -7  -6 381.593 265.961   4
   8   7   6 528.963 689.907  13
   8   7   7 2550.52 511.901   5
  -8  -7  -7 2634.49 501.579   4
   8   7   7 3478.84 1280.90  13
   8   7   8 3040.52 546.812   5
  -8  -7  -8 2616.88 528.130   4
   8   7   8 4014.70 1338.87  13
  -8  -7  -9 16717.1 1323.33   4
   8   7   9 15280.7 2763.52  13
   8   7   9 15500.9 1219.79   5
  -8  -7 -10 46320.0 2252.70   4
   8   7  10 40411.4 4549.15  13
   8   7  10 41975.0 2093.12   5
  -8  -7 -11 4942.84 817.355   4
   8   7  11 7782.89 957.694   7
   8   7  12 19881.6 1465.08   7
   8   7  13 12531.2 1196.31   7
   8   7  14 3454.65 570.793   7
   8   7  15-140.781 436.261   7
   8   7  16 10440.3 1039.87   7
   8   7  17-492.372 537.772   7
   8   7  18 1093.05 378.103   7
   8   7  19 989.558 369.704   7
   8   7  20 5033.53 580.575   7
   8   7  21 1358.30 301.965   7
   8   7  22 1006.73 235.690   7
   8   8 -16 452.071 187.986   5
   8   8 -15 3871.75 508.893   5
   8   8 -14 8187.49 813.900   5
   8   8 -13 12987.7 1116.20   5
   8   8 -12 1929.87 538.801   5
   8   8 -11 12374.1 1199.76   5
   8   8 -10 1990.26 468.408   5
   8   8  -9 459.170 305.728   5
   8   8  -8 341.511 404.849   5
   8   8  -7 22072.2 1620.32   5
   8   8  -6 35511.4 1992.51   5
   8   8  -5 9376.52 1022.53   5
  -8  -8   4 150242. 3691.70   4
   8   8  -4 155802. 3957.07   5
   8   8  -3 1144.03 403.298   5
  -8  -8   3 868.281 331.256   4
  -8  -8   2 14602.6 1120.96   4
   8   8  -2 15524.1 1218.27   5
  -8  -8   1 8330.89 828.375   4
   8   8  -1 9390.47 934.079   5
   8   8   0 674.390 353.332   5
  -8  -8   0 545.967 256.801   4
  -8  -8  -1 22590.5 1359.16   4
   8   8   1 24527.2 1471.18   5
  -8  -8  -2 12659.5 1021.78   4
   8   8   2 14552.4 1123.30   5
   8   8   3 14.9757 331.838   5
   8   8   3 1201.78 809.455  13
  -8  -8  -3 778.705 329.417   4
   8   8   4 1123.38 349.908   5
   8   8   4 710.039 511.824  13
  -8  -8  -4 866.361 300.108   4
   8   8   5-93.3123 220.264   5
   8   8   5-856.355 689.015  13
  -8  -8  -5-188.972 272.592   4
   8   8   6 343.371 253.447   5
  -8  -8  -6 77.0928 217.579   4
   8   8   6 325.380 706.865  13
   8   8   7 164.845 244.630   5
  -8  -8  -7 247.638 259.930   4
   8   8   7 987.594 887.585  13
  -8  -8  -8 11939.4 1110.40   4
   8   8   8 11557.8 2378.95  13
   8   8   8 11261.2 1028.85   5
   8   8   9 302.547 257.032   5
  -8  -8  -9-136.831 318.618   4
   8   8   9-377.768 575.230  13
  -8  -8 -10 67135.2 2787.66   4
   8   8  10 62869.7 2508.53   5
  -8  -8 -11 22303.9 1677.15   4
   8   8  11 25894.3 1628.16   7
   8   8  12 14741.8 1293.66   7
   8   8  13 16346.6 1347.56   7
   8   8  14 6874.22 821.736   7
   8   8  15 1813.07 462.921   7
   8   8  16 9894.85 1020.11   7
   8   8  17-238.005 415.310   7
   8   8  18 11230.0 916.155   7
   8   8  19 2325.83 432.445   7
   8   8  20 3162.87 431.220   7
   8   8  21 1549.10 271.682   7
   8   9 -15 4612.31 461.217   5
   8   9 -14 13107.8 888.165   5
   8   9 -13 38835.0 1680.95   5
   8   9 -12 1397.49 399.408   5
   8   9 -11 12415.7 1112.09   5
   8   9 -10-464.870 407.166   5
   8   9  -9 12568.9 1211.57   5
   8   9  -8 8934.24 1034.13   5
  -8  -9   7 11485.6 1077.76   4
   8   9  -7 13183.3 1274.18   5
  -8  -9   6 11706.7 1104.21   4
   8   9  -6 14836.8 1293.40   5
  -8  -9   5 25896.3 1624.12   4
   8   9  -5 26093.5 1675.99   5
  -8  -9   4 10785.1 1023.51   4
   8   9  -4 11368.9 1097.77   5
   8   9  -3 2132.81 517.953   5
  -8  -9   3 1687.48 412.842   4
  -8  -9   2 20956.2 1396.31   4
   8   9  -2 21368.9 1428.06   5
  -8  -9   1 8028.91 852.847   4
   8   9  -1 8282.97 867.349   5
   8   9   0 76.8949 225.999   5
  -8  -9   0 91.8292 234.642   4
  -8  -9  -1 5930.58 728.740   4
   8   9   1 6198.78 718.629   5
  -8  -9  -2 6861.01 777.367   4
   8   9   2 6841.92 777.319   5
   8   9   3 518.620 251.233   5
   8   9   3 295.342 402.333  13
  -8  -9  -3 896.029 372.534   4
  -8  -9  -4 9392.69 931.978   4
   8   9   4 8705.35 1875.93  13
   8   9   4 9397.89 904.156   5
   8   9   5 4131.63 586.426   5
   8   9   5 4350.01 1232.64  13
  -8  -9  -5 4653.16 670.264   4
   8   9   6-41.8910 257.425   5
  -8  -9  -6 185.776 247.418   4
   8   9   6-152.252 738.111  13
  -8  -9  -7 6400.93 852.426   4
   8   9   7 6816.50 811.197   5
  -8  -9  -8 16397.3 1345.59   4
   8   9   8 17287.3 1231.55   5
   8   9   9 199.133 298.727   5
  -8  -9  -9 330.592 375.480   4
  -8  -9 -10 15336.1 1423.32   4
  -8  -9 -11 25995.1 1781.80   4
   8   9  11 27966.6 1705.36   7
   8   9  12 1091.12 588.590   7
   8   9  13 7424.77 944.695   7
   8   9  14 12519.5 1085.06   7
   8   9  15 7885.48 844.124   7
   8   9  16 9914.76 977.184   7
   8   9  17 8499.50 809.192   7
   8   9  18 9710.20 786.685   7
   8   9  19 12848.3 800.363   7
   8   9  20 123.584 164.471   7
   8  10 -14 91.1017 122.002   5
   8  10 -13 2152.39 372.276   5
   8  10 -12 3134.99 493.508   5
   8  10 -11 2429.83 470.789   5
   8  10 -10 700.767 270.975   5
  -8 -10   9 19675.1 1246.22   4
   8  10  -9 14991.0 1252.59   5
  -8 -10   8 10728.1 981.047   4
   8  10  -8 14223.9 1210.87   5
   8  10  -7 2766.91 661.121   5
  -8 -10   7 1438.73 383.337   4
   8  10  -6 2060.13 591.294   5
  -8 -10   6 255.945 232.880   4
  -8 -10   5 24344.7 1564.31   4
   8  10  -5 26210.1 1601.78   5
   8  10  -4-264.286 290.276   5
  -8 -10   4-28.4590 231.574   4
   8  10  -3 1850.93 454.598   5
  -8 -10   3 2169.48 483.779   4
   8  10  -2 1712.75 424.612   5
  -8 -10   2 1602.43 421.030   4
   8  10  -1 1815.28 423.786   5
  -8 -10   1 1133.10 401.951   4
  -8 -10   0 11131.7 1013.95   4
   8  10   0 12041.2 1020.73   5
   8  10   1 893.736 316.032   5
  -8 -10  -1 1568.46 458.292   4
   8  10   2 4163.92 602.929   5
  -8 -10  -2 4355.44 645.622   4
   8  10   3 3772.02 567.821   5
  -8 -10  -3 3313.60 601.148   4
   8  10   4-137.570 312.396   5
  -8 -10  -4 16.2517 237.982   4
   8  10   5 1141.70 326.190   5
  -8 -10  -5 957.812 373.950   4
   8  10   6 702.068 339.690   5
  -8 -10  -6 146.148 252.403   4
   8  10   7 2418.79 476.481   5
  -8 -10  -7 2593.17 559.778   4
  -8 -10  -8 26565.0 1702.60   4
   8  10   8 24689.3 1448.09   5
  -8 -10  -9 2938.37 636.631   4
  -8 -10 -10 9355.33 1084.25   4
  -8 -10 -11 7940.40 1017.55   4
   8  10  11 8904.99 1056.02   7
   8  10  12 1091.61 595.742   7
   8  10  13 96.0184 404.921   7
   8  10  14 250.337 465.552   7
   8  10  15-246.970 403.041   7
   8  10  16 3388.66 573.844   7
   8  10  17-120.003 273.030   7
   8  10  18 1535.90 338.046   7
  -8 -10 -18 711.977 211.973  11
   8  10  19 4586.79 427.271   7
  -8 -11  10 14936.5 908.511   4
   8  11 -10 12183.6 880.712   5
  -8 -11   9 21287.6 1203.52   4
   8  11  -9 14005.8 1018.12   5
  -8 -11   8 19296.1 1230.36   4
   8  11  -8 17734.4 1169.09   5
   8  11  -7 1009.45 293.653   5
  -8 -11   7-67.6066 283.775   4
  -8 -11   6 9156.88 941.706   4
   8  11  -6 11290.1 985.825   5
  -8 -11   5 481.569 245.748   4
  -8 -11   4 76.8781 294.429   4
  -8 -11   3 83.5952 282.082   4
  -8 -11   2 1997.81 471.490   4
  -8 -11   1 730.145 330.878   4
  -8 -11   0 9436.65 926.178   4
  -8 -11  -1 1112.99 388.449   4
  -8 -11  -2 7002.82 832.093   4
  -8 -11  -3 623.814 391.934   4
  -8 -11  -4 260.725 277.304   4
  -8 -11  -5 4168.86 659.026   4
  -8 -11  -6 16911.8 1300.54   4
  -8 -11  -7 21004.4 1486.27   4
  -8 -11  -8 5525.10 806.030   4
  -8 -11  -9 52008.3 2382.46   4
  -8 -11 -10 1020.69 422.330   4
  -8 -11 -11 17499.9 1418.79   4
   8  11  11 19496.3 1359.73   7
   8  11  12 969.430 497.935   7
   8  11  13 2978.19 529.213   7
   8  11  14-978.010 520.184   7
   8  11  15 632.111 348.178   7
   8  11  16 372.406 242.269   7
   8  11  17 386.862 209.822   7
  -8 -11 -17 297.985 188.489  11
   8  11  18 140.760 154.534   7
  -8 -12  10 16608.5 820.370   4
  -8 -12   9 335.561 166.403   4
  -8 -12   8 7948.40 723.803   4
  -8 -12   7 4267.56 575.896   4
  -8 -12   6 4239.64 600.479   4
  -8 -12   5 1296.20 377.648   4
  -8 -12   4 5237.39 724.759   4
  -8 -12   3 9371.86 934.338   4
  -8 -12   2 26833.2 1552.25   4
  -8 -12   1 6948.11 815.937   4
  -8 -12   0 36017.1 1815.14   4
  -8 -12  -1 1439.06 412.161   4
  -8 -12  -2 452.039 328.853   4
  -8 -12  -3 5409.32 759.256   4
  -8 -12  -4 42816.4 1969.91   4
  -8 -12  -5 11722.8 1044.09   4
  -8 -12  -6 2983.46 576.222   4
  -8 -12  -7 31934.6 1735.07   4
  -8 -12  -8 9168.05 986.291   4
  -8 -12  -9 19788.7 1396.35   4
  -8 -12 -10 7574.35 877.278   4
   8  12  10 9957.81 953.435   7
  -8 -12 -11 282.426 310.041   4
   8  12  11 1035.73 475.673   7
   8  12  12 6924.97 764.112   7
   8  12  13 754.621 325.834   7
   8  12  14 1840.68 394.677   7
   8  12  15 953.796 329.400   7
  -8 -12 -15-78.0675 255.154  11
   8  12  16 274.408 207.697   7
  -8 -12 -16-110.069 179.577  11
   8  12  17 443.630 155.458   7
  -8 -12 -17 26.4695 123.441  11
  -8 -13   9 2049.86 285.033   4
  -8 -13   8 615.849 219.823   4
  -8 -13   7 329.093 183.647   4
  -8 -13   6 303.082 190.720   4
  -8 -13   5 2796.79 463.364   4
  -8 -13   4 8494.70 822.191   4
  -8 -13   3 5296.02 705.875   4
  -8 -13   2 17490.4 1199.42   4
  -8 -13   1 3419.33 585.630   4
  -8 -13   0 9194.20 877.623   4
  -8 -13  -1 26139.6 1463.27   4
  -8 -13  -2 5703.76 696.733   4
  -8 -13  -3 2376.12 483.893   4
  -8 -13  -3 1971.11 363.940  11
  -8 -13  -4 18805.0 1252.11   4
  -8 -13  -4 17911.7 1218.73  11
  -8 -13  -5 9853.28 915.830   4
  -8 -13  -6 24587.0 1448.95   4
  -8 -13  -7 8404.44 871.104   4
  -8 -13  -8 7877.97 831.629   4
   8  13   9 1645.46 532.397   7
  -8 -13  -9 1034.17 367.857   4
   8  13  10 1533.96 476.494   7
  -8 -13 -10-25.0721 288.468   4
   8  13  11 6805.33 679.763   7
   8  13  12 2856.97 393.954   7
  -8 -13 -12 3580.98 563.592  11
   8  13  13 2764.70 369.257   7
  -8 -13 -13 4914.68 608.877  11
   8  13  14 5748.36 531.537   7
  -8 -13 -14 5310.61 557.519  11
   8  13  15 6524.12 465.217   7
  -8 -13 -15 4940.69 482.099  11
  -8 -14   7 788.815 198.830   4
  -8 -14   6 618.462 186.406   4
  -8 -14   5 632.445 195.239   4
  -8 -14   4 718.246 248.345   4
  -8 -14   3 699.208 338.744   4
  -8 -14   2 7000.32 727.025   4
  -8 -14   1 11905.3 938.423   4
  -8 -14   0 14183.6 990.036   4
  -8 -14  -1 6784.94 715.180   4
  -8 -14  -2 38386.9 1628.70   4
  -8 -14  -3 1048.67 320.059   4
  -8 -14  -4 6071.97 683.377   4
  -8 -14  -4 4615.83 577.336  11
  -8 -14  -5 6799.99 699.439   4
  -8 -14  -5 5975.06 661.107  11
  -8 -14  -6 3822.79 546.452   4
  -8 -14  -6 2804.08 496.557  11
  -8 -14  -7 4953.10 593.399   4
  -8 -14  -7 3654.03 553.802  11
   8  14   8 1941.28 437.840   7
  -8 -14  -8 1111.16 317.616   4
  -8 -14  -8 826.996 321.807  11
   8  14   9 3128.89 472.517   7
  -8 -14  -9 2200.12 406.318   4
  -8 -14  -9 2639.39 496.074  11
   8  14  10 780.281 256.152   7
  -8 -14 -10 1090.81 375.050  11
   8  14  11-318.926 274.770   7
  -8 -14 -11 581.645 275.857  11
   8  14  12-112.393 178.511   7
  -8 -14 -12 196.436 234.066  11
   8  14  13 7810.51 481.199   7
  -8 -14 -13 7960.79 627.474  11
  -8 -15   5 1126.46 213.621   4
  -8 -15   4 690.559 173.927   4
  -8 -15   3-292.342 209.893   4
  -8 -15   2-96.8514 197.835   4
  -8 -15   1 1139.05 254.278   4
  -8 -15   0 2224.01 358.476   4
  -8 -15  -1 7990.68 655.997   4
  -8 -15  -2 4861.18 523.029   4
  -8 -15  -3 28443.7 1239.73   4
  -8 -15  -4 1737.70 349.071   4
  -8 -15  -5 5531.84 568.603   4
  -8 -15  -5 3769.69 415.525  11
  -8 -15  -6 5374.86 539.931   4
   8  15   6 5154.66 508.841   7
  -8 -15  -6 4103.80 464.164  11
   8  15   7 1048.14 289.771   7
  -8 -15  -7 468.958 204.205   4
  -8 -15  -7 657.512 231.391  11
  -8 -15  -8 7551.80 598.919   4
   8  15   8 6944.72 518.824   7
  -8 -15  -8 6171.42 559.959  11
   8  15   9 1612.48 233.864   7
  -8 -15  -9 2309.05 346.179  11
  -8 -15 -10 8085.29 595.099  11
  -8 -15 -11 6556.39 496.522  11
  -8 -16   0 130.126 110.220   4
  -8 -16  -1 1875.67 279.020   4
  -8 -16  -2 4145.18 401.968   4
  -8 -16  -3 2629.36 335.656   4
  -8 -16  -4 12691.4 683.824   4
  -8 -16  -5 1247.62 215.184   4
   9 -11  -6 926.351 239.646   8
   9 -11  -5-86.3314 201.225   8
   9 -11  -4 1200.41 324.580   8
   9 -11  -3 194.185 252.298   8
   9 -11  -2 4907.74 565.013   8
   9 -11  -1 20052.7 1121.33   8
   9 -11   0 835.602 365.534   8
   9 -11   1 3806.95 524.372   8
   9 -11   2 1732.25 401.490   8
   9 -11   3 569.226 188.284   1
   9 -11   4 2489.91 342.646   1
   9 -11   5 5459.88 519.999   1
   9 -11   6 270.601 181.987   1
   9 -11   7 9567.27 657.534   1
   9 -11   8 3891.01 426.245   1
   9 -11   9 12572.0 680.256   1
   9 -10  -8 254.362 174.771   8
   9 -10  -7 4388.30 491.828   8
   9 -10  -6 7443.68 675.302   8
   9 -10  -5 2121.09 447.907   8
   9 -10  -4 34140.2 1525.83  11
   9 -10  -4 13482.5 1018.27   8
   9 -10  -3 21.1555 366.951   8
   9 -10  -3 16004.6 1244.80  11
   9 -10  -2 9400.97 889.792   8
   9 -10  -2 22600.8 1404.94  11
   9 -10  -1 3985.98 649.155   8
   9 -10  -1 20083.6 1362.02  11
   9 -10   0 1055.15 446.762   8
   9 -10   0 24599.6 1653.56  11
   9 -10   1 13.9865 354.466   8
   9 -10   1 34787.8 1876.32  11
   9 -10   2 382.739 385.623   8
   9 -10   3 2183.03 458.352   8
   9 -10   3 1565.77 331.190   1
   9 -10   4 10923.2 861.448   8
   9 -10   4 10577.5 807.842   1
   9 -10   5 2100.10 400.098   8
   9 -10   5 1404.36 329.138   1
   9 -10   6 5105.01 614.347   1
   9 -10   7 12706.4 926.619   1
   9 -10   8 2696.10 440.948   1
   9 -10   9 4673.43 577.740   1
   9 -10  10 8612.13 706.454   1
   9 -10  11 1577.50 310.475   1
   9 -10  12 216.459 174.356   1
   9  -9 -10 333.497 183.339   8
   9  -9  -9 5601.39 525.242   8
   9  -9  -8 17051.9 972.781   8
   9  -9  -7 1336.03 384.696   8
   9  -9  -6 7852.29 821.292   8
   9  -9  -6 25813.1 1331.20  11
   9  -9  -5 8725.14 919.945   8
   9  -9  -5 17857.4 1183.29  11
   9  -9  -4 3850.76 680.694   8
   9  -9  -4 6747.87 894.036  11
   9  -9  -3 6097.14 766.395   8
   9  -9  -3 8791.69 996.101  11
   9  -9  -2-1393.16 642.803   8
   9  -9  -2 549.595 474.483  11
   9  -9  -1 1734.06 509.139   8
   9  -9  -1 2940.99 787.713  11
   9  -9   0 11627.8 1079.41   8
   9  -9   0 12783.6 1234.27  11
   9  -9   1 22530.3 1433.76   8
   9  -9   1 27417.7 1734.09  11
   9  -9   2 2552.03 595.045   8
   9  -9   2 1584.35 375.672   1
   9  -9   3 25113.6 1432.34   8
   9  -9   3 24400.5 1340.10   1
   9  -9   4-41.7132 307.533   8
   9  -9   4 50.1516 291.754   1
   9  -9   5 5358.00 679.886   8
   9  -9   5 6812.84 764.803   1
   9  -9   6 315.886 251.281   8
   9  -9   6 513.669 359.368   1
   9  -9   7 7800.61 869.164   1
   9  -9   8 120.876 276.487   1
   9  -9   9 491.808 359.207   1
   9  -9  10 4548.04 629.208   1
   9  -9  11 2200.22 443.232   1
   9  -9  12 30545.1 1305.12   1
   9  -9  13 3566.32 447.681   1
   9  -9  14 12489.8 659.617   1
   9  -8 -12 10792.2 648.756   6
   9  -8 -11 25286.7 1136.65   6
   9  -8 -10 2111.98 350.080   8
   9  -8 -10 2299.55 409.302   6
   9  -8  -9 18986.9 1061.18   8
   9  -8  -9 16923.2 1087.13   6
   9  -8  -8 138.202 278.887   8
   9  -8  -8 169.284 236.057   6
   9  -8  -7-71.9087 363.146   8
   9  -8  -7 370.741 344.518   6
   9  -8  -6 646.971 363.985   8
   9  -8  -6 1083.60 417.161   6
   9  -8  -5 5858.04 816.882   8
   9  -8  -5 7064.92 834.224   6
   9  -8  -5 6102.34 787.168  11
   9  -8  -4 12913.3 1148.35   8
   9  -8  -4 13049.4 1150.78  11
   9  -8  -3 3959.47 703.239   8
   9  -8  -3 2736.11 573.702  11
   9  -8  -2 30077.7 1809.04   8
   9  -8  -2 20865.2 1543.16  11
   9  -8  -1 5952.81 966.219   8
   9  -8  -1 3835.76 757.986  11
   9  -8   0 22511.5 1579.84   8
   9  -8   0 19507.7 1533.50  11
   9  -8   1 35130.6 1854.96   8
   9  -8   1 30692.0 1819.64  11
   9  -8   2-199.755 366.483   8
   9  -8   2 109.764 262.753   1
   9  -8   3 36942.6 1802.07   8
   9  -8   3 37004.5 1725.44   1
   9  -8   4 4671.11 662.857   8
   9  -8   4 5888.31 766.476   1
   9  -8   5 12427.0 1017.82   8
   9  -8   5 14837.2 1210.55   1
   9  -8   6 546.752 395.011   1
   9  -8   6 332.167 262.294   8
   9  -8   7 8275.50 925.725   1
   9  -8   8-443.758 414.761   1
   9  -8   9 188.765 370.923   1
   9  -8  10 12611.6 1120.96   1
   9  -8  11 716.320 433.289   1
   9  -8  12 25514.3 1379.80   1
   9  -8  13 9221.81 790.144   1
   9  -8  14 126.206 235.546   1
   9  -8  15 11145.8 682.512   1
   9  -7 -13 7498.38 532.146   6
   9  -7 -12 6878.46 611.241   6
   9  -7 -11 14850.8 838.714   8
   9  -7 -11 15732.4 1014.92   6
   9  -7 -10 2116.99 403.105   8
   9  -7 -10 1541.71 399.618   6
   9  -7  -9 3360.48 571.484   8
   9  -7  -9 2193.02 438.719   6
   9  -7  -8 21944.0 1301.62   8
   9  -7  -8 20229.1 1328.50   6
   9  -7  -7 1520.16 549.986   8
   9  -7  -7 1476.33 446.865   6
   9  -7  -6 2131.80 588.306   8
   9  -7  -6 1994.38 499.552   6
   9  -7  -5 6849.37 907.152   8
   9  -7  -5 7600.81 873.645   6
   9  -7  -5 6756.57 830.562  11
   9  -7  -4 1255.36 588.196   8
   9  -7  -4 1932.78 491.611   6
   9  -7  -4 1091.63 417.283  11
   9  -7  -3 1761.77 588.356   8
   9  -7  -3 3411.97 645.243   6
   9  -7  -3 1924.57 509.729  11
   9  -7  -2 3403.51 742.378   8
   9  -7  -2 3763.96 655.433   6
   9  -7  -1 1048.92 498.065   8
   9  -7  -1 823.220 396.558  11
   9  -7   0 5730.25 920.993   8
   9  -7   0 5045.18 862.845  11
   9  -7   1 4575.73 763.394   8
   9  -7   1 4562.62 852.037  11
   9  -7   2-287.625 384.515   1
   9  -7   2 77.0443 398.679   8
   9  -7   3 2404.41 522.505   1
   9  -7   3 2717.46 608.171   8
   9  -7   4 4950.07 699.302   8
   9  -7   4 4192.65 705.827   1
   9  -7   5 1376.86 438.989   8
   9  -7   5 775.286 360.728   1
   9  -7   6 10529.7 1121.31   1
   9  -7   7 1691.32 504.828   1
   9  -7   8 286.762 371.320   1
   9  -7   9 33664.5 1917.82   1
   9  -7  10 26166.7 1723.68   1
   9  -7  11 9137.90 1033.11   1
   9  -7  12 19582.7 1348.56   1
   9  -7  13 2619.88 529.000   1
   9  -7  14 468.809 331.341   1
   9  -7  15 26.6414 232.054   1
   9  -7  16 1911.44 311.029   1
   9  -6 -15 1578.89 275.616  10
   9  -6 -14 980.464 286.001  10
   9  -6 -13 1658.25 383.029  10
   9  -6 -13 2091.70 326.620   6
   9  -6 -12-208.842 283.744  10
   9  -6 -12-27.8434 177.428   6
   9  -6 -11-26.3741 289.874  10
   9  -6 -11 568.436 266.960   8
   9  -6 -11 989.622 356.345   6
   9  -6 -10-497.180 361.652  10
   9  -6 -10 424.699 311.523   8
   9  -6 -10-279.850 258.251   6
   9  -6  -9 32466.2 1848.52  10
   9  -6  -9 29878.5 1627.89   6
   9  -6  -8 2500.22 593.190  10
   9  -6  -8 2030.71 556.532   8
   9  -6  -8 1649.16 438.148   6
   9  -6  -7 78837.2 2718.99   8
   9  -6  -7 79657.5 2745.30   6
   9  -6  -6 23888.6 1572.41   8
   9  -6  -6 22954.9 1479.30   6
   9  -6  -5 24054.0 1630.38   8
   9  -6  -5 24490.6 1524.20   6
   9  -6  -5 19783.8 1410.70  11
   9  -6  -4 29.1052 390.438   8
   9  -6  -4 543.077 374.427   6
   9  -6  -4 106.471 266.353  11
   9  -6  -3 4816.84 733.471   8
   9  -6  -3 6707.22 806.250   6
   9  -6  -3 5292.88 808.842  11
   9  -6  -2 4496.06 775.598   8
   9  -6  -2 4747.37 683.554   6
   9  -6  -2 3325.75 696.388  11
   9  -6  -1 7498.93 995.200   8
   9  -6  -1 7303.10 836.357   6
   9  -6  -1 5015.10 853.120  11
   9  -6   0 8726.61 1010.23   8
   9  -6   0 6642.24 945.871  11
   9  -6   1 3115.27 654.759   8
   9  -6   1 3587.59 751.257  11
   9  -6   2 21.8214 337.300   8
   9  -6   2 127.372 337.771   1
   9  -6   2 867.446 595.061  11
   9  -6   3 463.346 315.829   8
   9  -6   3-209.256 360.457   1
   9  -6   4 229.183 345.752   8
   9  -6   4 772.478 439.500   1
   9  -6   5 1550.45 425.048   8
   9  -6   5 1554.36 569.533   1
   9  -6   6 681.455 477.781   1
   9  -6   7 13330.5 1344.34   1
   9  -6   8 17628.6 1487.43   1
   9  -6   9 13936.3 1317.96   1
   9  -6  10 88126.3 3133.12   1
   9  -6  11 85.1483 442.086   1
   9  -6  12 12407.4 1142.47   1
   9  -6  13 6713.49 782.584   1
   9  -6  14 1375.90 498.379   1
   9  -6  15 71.5382 279.501   1
   9  -6  16 144.201 228.474   1
   9  -6  17 237.232 176.124   1
   9  -5 -16 381.518 178.103  10
   9  -5 -15 194.215 184.144  10
   9  -5 -14 1210.02 361.989  10
   9  -5 -13 7474.83 852.563  10
   9  -5 -13 6691.19 608.734   6
   9  -5 -12 2588.90 574.439  10
   9  -5 -12 2602.15 442.114   6
   9  -5 -11 13775.0 1286.18  10
   9  -5 -11 13063.6 945.409   8
   9  -5 -11 14588.8 1078.60   6
   9  -5 -10 826.113 373.155  10
   9  -5 -10 1332.36 398.658   8
   9  -5 -10 1100.48 290.570   6
   9  -5  -9 35454.6 2101.82  10
   9  -5  -9 41900.8 1874.29   8
   9  -5  -9 36807.8 1840.58   6
   9  -5  -8 11675.2 1207.53  10
   9  -5  -8 11840.4 1070.32   8
   9  -5  -8 12080.1 1072.76   6
   9  -5  -7 31374.2 1924.07  10
   9  -5  -7 31775.9 1780.91   8
   9  -5  -7 29883.4 1675.30   6
   9  -5  -6 23041.4 1608.36  10
   9  -5  -6 24564.3 1634.72   8
   9  -5  -6 24406.1 1517.69   6
   9  -5  -5 639.967 553.109   8
   9  -5  -5 353.845 240.867   6
   9  -5  -4 2272.79 613.252   8
   9  -5  -4 2580.78 502.035   6
   9  -5  -4 2946.85 628.713  11
   9  -5  -3 2081.23 462.970   8
   9  -5  -3 3800.60 594.758   6
   9  -5  -3 2916.22 616.577  11
   9  -5  -2-329.498 643.803   8
   9  -5  -2 806.522 341.389   6
   9  -5  -2-33.4862 337.826  11
   9  -5  -1-251.522 604.307   8
   9  -5  -1 210.049 215.704   6
   9  -5  -1 406.687 357.812  11
   9  -5   0 19395.6 1409.88   8
  -9   5   0 18961.9 2811.15  12
   9  -5   0 15210.9 1412.84  11
   9  -5   1 2851.35 616.601   8
  -9   5  -1 2160.75 898.314  12
   9  -5   1 3990.48 777.941  11
   9  -5   2 15768.6 1257.31   8
  -9   5  -2 14529.7 2510.19  12
   9  -5   2 17789.8 1423.46  11
   9  -5   2 12098.2 1106.22   1
   9  -5   3 2970.57 633.251   8
   9  -5   3 3014.29 607.623   1
   9  -5   4 2466.89 591.480   1
   9  -5   4 2645.71 555.724   8
   9  -5   5-18.2772 347.720   1
   9  -5   5 277.420 303.471   8
   9  -5   6-155.006 344.243   1
   9  -5   7 317.019 402.631   1
   9  -5   8 1846.08 544.367   1
   9  -5   9 734.348 512.690   1
   9  -5  10 3827.56 849.913   1
   9  -5  11 25262.9 1757.91   1
   9  -5  12 7514.97 1002.18   1
   9  -5  13 1370.95 518.069   1
   9  -5  14 19542.4 1316.81   1
   9  -5  15 3339.66 563.057   1
   9  -5  16 4426.63 586.177   1
   9  -5  17 388.175 230.628   1
   9  -5  18 3760.03 408.004   1
   9  -4 -17 8397.17 604.370  10
   9  -4 -16 1119.29 303.123  10
   9  -4 -15 835.107 316.256  10
   9  -4 -14 314.757 336.229  10
   9  -4 -13 1320.05 434.886  10
   9  -4 -12 5084.41 831.368  10
   9  -4 -12 4857.25 582.623   8
   9  -4 -11 7941.84 1054.31  10
   9  -4 -11 9539.63 845.876   8
   9  -4 -10 6645.19 956.535  10
   9  -4 -10 6563.78 784.262   8
   9  -4 -10 5013.56 672.895   6
   9  -4  -9 55728.0 2763.82  10
   9  -4  -9 52851.7 2178.26   6
   9  -4  -8 14727.7 1411.49  10
   9  -4  -8 14949.4 1231.38   8
   9  -4  -8 14900.0 1170.94   6
   9  -4  -7 6523.98 990.456  10
   9  -4  -7 6667.05 899.328   8
   9  -4  -7 6312.96 752.392   6
   9  -4  -6 241.339 361.276  10
   9  -4  -6 596.551 397.018   8
   9  -4  -6-9.90061 262.742   6
   9  -4  -5 3382.69 652.997  10
   9  -4  -5 4341.03 760.896   8
   9  -4  -5 4243.26 628.236   6
   9  -4  -4 894.239 459.155  10
   9  -4  -4 997.443 489.380   8
   9  -4  -4 937.332 345.689   6
   9  -4  -3 17681.9 1437.88   8
   9  -4  -3 19984.2 1301.72   6
  -9   4   3 19798.9 2944.54  12
   9  -4  -3 20711.3 1477.34  11
   9  -4  -2 21058.6 1609.29   8
   9  -4  -2 22459.4 1335.45   6
  -9   4   2 24091.7 3154.16  12
   9  -4  -2 18978.1 1462.55  11
   9  -4  -1 23380.1 1629.27   8
   9  -4  -1 21711.2 1316.71   6
  -9   4   1 23392.8 3107.21  12
   9  -4  -1 17699.9 1468.54  11
   9  -4   0 12547.6 1187.98   8
   9  -4   0 11562.8 970.615   6
  -9   4   0 12078.3 2249.71  12
   9  -4   0 11165.4 1224.55  11
   9  -4   1 917.536 490.040   8
  -9   4  -1 392.563 513.535  12
   9  -4   2 32085.2 1795.82   8
  -9   4  -2 34287.0 3833.65  12
   9  -4   2 41774.8 2186.05  11
   9  -4   3 27927.1 1559.06   8
  -9   4  -3 29262.2 3625.40  12
   9  -4   3 29142.6 1608.90   1
   9  -4   4 636.396 277.489   8
  -9   4  -4 605.462 538.100  12
   9  -4   4 799.815 459.312   1
   9  -4   5 1430.67 491.174   1
  -9   4  -5 535.914 612.397  12
   9  -4   6 6516.67 975.597   1
  -9   4  -6 5572.72 1627.39  12
   9  -4   7 1299.09 508.775   1
   9  -4   8 7818.99 1090.41   1
   9  -4   9 2302.78 704.314   1
   9  -4  10 696.165 540.060   1
   9  -4  11 552.161 442.116   1
   9  -4  12 17649.7 1458.55   1
   9  -4  13 307.447 317.127   9
   9  -4  13 27.6707 441.387   1
   9  -4  14 812.962 393.491   1
   9  -4  15 4021.74 675.435   1
   9  -4  16 375.928 300.714   1
   9  -4  17 3900.80 528.748   1
   9  -4  18 288.905 224.479   1
   9  -4  19 1083.41 220.027   1
   9  -3 -17 2770.26 400.016  10
   9  -3 -16 5003.60 595.412  10
   9  -3 -15 2032.55 485.228  10
   9  -3 -14 21475.0 1490.79  10
   9  -3 -13 677.175 408.913  10
   9  -3 -12 24825.9 1775.08  10
   9  -3 -12 20855.5 1176.45   8
   9  -3 -11 15574.3 1481.44  10
   9  -3 -11 14733.0 1088.54   8
   9  -3 -10 2923.89 672.036  10
   9  -3 -10 3832.25 612.846   8
   9  -3  -9 7994.98 1079.15  10
   9  -3  -9 8919.41 936.180   8
   9  -3  -8 2465.21 700.134  10
   9  -3  -8 2672.23 575.022   8
   9  -3  -7 1662.02 610.818  10
   9  -3  -7 2021.10 551.726   8
   9  -3  -6 968.102 434.653  10
   9  -3  -6 1258.67 527.284   8
   9  -3  -5 962.499 430.694  10
   9  -3  -5 948.721 366.165   8
  -9   3   5 604.437 586.673  12
   9  -3  -4 7433.98 949.857  10
   9  -3  -4 7395.30 964.255   8
  -9   3   4 9963.58 2040.68  12
   9  -3  -3 140.186 332.813  10
  -9   3   3 488.658 707.829  12
   9  -3  -2 15961.1 1299.15  10
   9  -3  -2 16128.2 1378.43   8
  -9   3   2 16674.6 2574.09  12
   9  -3  -2 19499.8 1567.75  11
   9  -3  -1 12733.6 1193.58   8
  -9   3   1 14105.6 2393.20  12
   9  -3  -1 15794.8 1442.33  11
   9  -3   0 116663. 3461.28   8
  -9   3   0 130556. 7281.67  12
   9  -3   1 6504.22 843.162   8
  -9   3  -1 6209.98 1542.96  12
   9  -3   2 7004.17 829.851   8
  -9   3  -2 5329.81 1478.47  12
   9  -3   3 43511.5 1966.11   1
   9  -3   3 44538.5 1957.96   8
  -9   3  -3 47744.3 4506.07  12
   9  -3   4 3712.18 633.818   1
   9  -3   4 3081.41 528.947   8
  -9   3  -4 2857.74 1066.36  12
   9  -3   5 17937.3 1433.04   1
  -9   3  -5 19494.2 2931.21  12
   9  -3   6 31453.8 1956.32   1
  -9   3  -6 39668.1 4192.31  12
   9  -3   7-278.559 581.907   1
   9  -3   7 575.946 298.201   9
  -9   3  -7 550.192 541.371  12
   9  -3   8 17209.0 1309.96   9
   9  -3   8 14048.1 1374.04   1
  -9   3  -8 15489.4 2778.31  12
   9  -3   8 16629.8 2674.56   2
   9  -3   9 11627.6 1146.65   9
   9  -3   9 13061.6 1427.39   1
   9  -3  10 260.477 324.302   9
   9  -3  10 693.402 573.053   1
   9  -3  11 94.7643 356.076   9
   9  -3  11 1013.17 550.377   1
   9  -3  12 3020.91 624.975   9
   9  -3  12 5299.66 919.933   1
   9  -3  13 10630.4 1163.50   1
   9  -3  13 6639.12 982.671   9
   9  -3  14 1116.18 542.254   9
   9  -3  14 802.191 512.046   1
   9  -3  15 3667.65 700.713   9
   9  -3  15 3715.77 649.038   1
   9  -3  16 648.857 362.198   1
   9  -3  17 9252.07 823.924   1
   9  -3  18 241.338 223.701   1
   9  -3  19 8855.60 636.506   1
   9  -3  20 9739.90 620.842   4
   9  -2 -18 2199.28 318.398  10
   9  -2 -17 166.442 205.218  10
   9  -2 -16 2570.02 481.414  10
   9  -2 -15 1306.24 457.162  10
   9  -2 -14 2595.59 561.069  10
   9  -2 -13 4072.24 780.512  10
   9  -2 -12-113.986 378.898  10
   9  -2 -12 358.655 298.841   8
   9  -2 -11 956.424 534.312  10
   9  -2 -11 757.089 437.807   8
   9  -2 -10-246.713 508.310  10
   9  -2 -10 344.549 332.233   8
   9  -2  -9-238.016 452.606  10
   9  -2  -9 28.1078 336.240   8
   9  -2  -8 649.720 436.582  10
   9  -2  -8 1126.96 481.256   8
   9  -2  -7 620.941 468.655  10
   9  -2  -7 618.145 353.124   8
   9  -2  -6 167.264 424.099  10
   9  -2  -6 749.065 465.677   8
  -9   2   6-10.9049 433.992  12
   9  -2  -5 4190.71 773.186  10
   9  -2  -5 4642.92 810.449   8
  -9   2   5 4096.03 1324.39  12
   9  -2  -4 405.475 315.000  10
   9  -2  -4 909.527 428.269   8
  -9   2   4 1032.25 787.708  12
   9  -2  -3 16148.6 1339.94  10
   9  -2  -3 13108.2 1228.70   8
  -9   2   3 18138.7 2742.76  12
   9  -2  -2 1326.68 417.876  10
   9  -2  -2 482.727 421.228   8
  -9   2   2 843.916 652.515  12
   9  -2  -1 10459.0 1032.56   8
  -9   2   1 10649.9 2062.61  12
   9  -2   0 811.286 387.502   8
  -9   2   0 264.187 436.361  12
  -9   2  -1 5169.94 1512.23  12
  -9   2  -2 3574.40 1283.75  12
  -9   2  -3 342.621 687.560  12
  -9   2  -4 55653.2 4759.04  12
  -9   2  -5 28112.7 3392.49  12
   9  -2   6 34625.8 1742.56   9
  -9   2  -6 35554.9 3868.55  12
   9  -2   7 16661.0 1258.38   9
  -9   2  -7 16562.0 2704.26  12
   9  -2   7 19013.9 2779.82   2
   9  -2   8 19983.4 1403.63   9
  -9   2  -8 16149.9 2703.43  12
   9  -2   8 17775.7 2817.60   2
   9  -2   9 12891.2 1201.39   9
   9  -2   9 12926.9 2411.73   2
   9  -2  10 1195.52 449.794   9
   9  -2  11 4041.65 824.019   9
   9  -2  12 339.787 366.639   9
   9  -2  13 7276.21 1026.91   9
   9  -2  14 536.958 457.124   9
   9  -2  14 1195.27 487.817   1
   9  -2  15 3362.53 779.610   9
   9  -2  15 3569.80 674.599   1
   9  -2  16 648.057 450.854   9
   9  -2  16 84.8147 361.374   1
   9  -2  17 16149.6 1125.75   1
   9  -2  18 3003.66 492.036   1
   9  -2  19 2968.46 410.614   1
   9  -1 -18 4066.93 443.620  10
   9  -1 -17 7984.29 719.475  10
   9  -1 -16 1030.94 370.366  10
   9  -1 -15-166.563 297.964  10
   9  -1 -14 6248.12 897.771  10
   9  -1 -13 155.529 370.673  10
   9  -1 -12 21221.1 1737.32  10
   9  -1 -12 17521.7 1161.07   8
   9  -1 -11 698.451 436.474  10
   9  -1 -11 617.918 337.529   8
   9  -1 -10 16895.4 1597.43  10
   9  -1 -10 17772.1 1289.19   8
   9  -1  -9 3394.99 759.264  10
   9  -1  -9 3931.67 673.154   8
   9  -1  -8 1422.89 539.504  10
   9  -1  -8 1905.05 537.697   8
   9  -1  -7 10320.8 1282.77  10
   9  -1  -7 10731.1 1049.07   8
  -9   1   7 10293.5 2337.86  12
   9  -1  -6 836.272 505.522  10
   9  -1  -6 633.358 338.122   8
  -9   1   6 206.776 578.546  12
   9  -1  -5 1364.03 508.074  10
   9  -1  -5 1931.53 534.008   8
  -9   1   5 1082.02 610.466  12
   9  -1  -4 4310.03 714.626  10
  -9   1   4 4948.17 1444.97  12
   9  -1  -3 11388.1 1134.45  10
  -9   1   3 10855.0 2130.31  12
  -9   1   2 20930.7 2784.86  12
  -9   1   1 1180.03 865.974  12
  -9   1   0 1083.26 703.257  12
  -9   1  -1 16127.6 2517.11  12
  -9   1  -2 37296.8 3764.81  12
  -9   1  -3 21247.9 2876.18  12
  -9   1  -4 10329.3 2055.57  12
  -9   1  -5 24497.0 3116.12  12
  -9   1  -6 12625.5 2258.19  12
   9  -1   7-332.013 269.747   9
   9  -1   7-41.5130 671.111   2
  -9   1  -7 1419.14 1596.99  12
   9  -1   8 308.462 364.860   9
   9  -1   8 164.828 571.787   2
  -9   1  -8 592.589 656.346  12
   9  -1   9 2868.22 593.842   9
   9  -1   9 3035.30 1217.67   2
   9  -1  10 2327.33 566.005   9
   9  -1  10 2775.14 1310.26   2
   9  -1  11 12868.4 1331.11   9
   9  -1  12 33389.7 2106.27   9
   9  -1  13 30974.3 2083.89   9
   9  -1  14-143.126 487.229   9
   9  -1  15 27781.6 2040.64   9
   9  -1  16 902.331 534.616   9
   9  -1  16 448.014 371.534   1
   9  -1  17 16264.3 1208.55   1
   9  -1  17 14574.1 1402.17   9
   9  -1  18 281.487 279.937   1
   9  -1  19 2288.21 413.237   1
   9   0 -18 3748.06 429.426  10
   9   0 -17 105.931 209.889  10
   9   0 -16 1123.90 378.849  10
   9   0 -15 4452.54 702.586  10
   9   0 -14 2088.87 565.144  10
   9   0 -14 1905.11 423.905   5
   9   0 -13 11345.6 1259.13  10
   9   0 -13 9795.97 944.475   5
   9   0 -12 29607.5 1503.95   8
   9   0 -12 28394.5 1660.82   5
   9   0 -11 259.280 478.701  10
   9   0 -11 147.555 264.053   5
   9   0 -11 860.277 373.456   8
   9   0 -10 41414.3 2513.10  10
   9   0 -10 46291.2 2018.95   8
   9   0 -10 38441.5 2051.35   5
   9   0  -9 16160.6 1577.33  10
   9   0  -9 18090.6 1280.06   8
   9   0  -9 17585.1 1367.28   5
   9   0  -8 697.370 459.778  10
   9   0  -8 391.223 276.933   5
   9   0  -7 13912.5 1470.33  10
  -9   0   7 15139.7 2704.34  12
   9   0  -6 7581.42 1110.35  10
  -9   0   6 6841.34 1813.08  12
   9   0  -5 12989.4 1287.57  10
  -9   0   5 12440.9 2236.06  12
   9   0  -4 12938.6 1234.79  10
  -9   0   4 14331.4 2380.11  12
   9   0  -3 31137.9 1869.23  10
  -9   0   3 33682.1 3532.62  12
  -9   0   2 4562.99 1314.31  12
  -9   0   1 106843. 6214.34  12
  -9   0   0 7254.11 1633.69  12
  -9   0  -1 34680.4 3576.56  12
  -9   0  -2 76160.4 5297.65  12
  -9   0  -3 1127.76 649.609  12
  -9   0  -4-231.932 607.277  12
  -9   0  -5 18629.4 2663.58  12
  -9   0  -6 899.209 696.787  12
   9   0   7 1992.43 465.047   9
   9   0   7 2154.96 893.084   2
  -9   0  -7 2202.49 1149.66  12
   9   0   8 5497.25 754.745   9
   9   0   8 7412.17 1778.96   2
   9   0   9 17175.2 1326.79   9
   9   0   9 16957.4 2645.11   2
   9   0  10 174.166 344.709   9
   9   0  10-516.710 477.422   2
   9   0  11 63743.8 2748.72   9
   9   0  11 62882.7 5339.38   2
   9   0  12 555.987 508.318   9
   9   0  13 5378.49 903.752   9
   9   0  14 1366.83 486.285   9
   9   0  15 591.168 478.179   9
   9   0  16 2108.42 699.904   9
   9   0  17 488.954 492.482   9
   9   0  17 357.380 388.463   1
   9   0  17-11.2148 226.208   7
   9   0  18 851.213 396.499   1
   9   0  18 177.208 223.483   7
   9   0  19 3736.27 454.007   7
   9   0  19 4052.01 517.952   1
   9   0  20 3044.59 389.523   7
   9   0  21 921.713 205.287   7
   9   1 -18-217.512 176.179  10
   9   1 -17 4958.06 471.425   5
   9   1 -17 7219.61 681.975  10
   9   1 -16 123.766 234.726  10
   9   1 -16-450.334 209.736   5
   9   1 -15 15202.0 1198.07  10
   9   1 -15 13462.7 1000.49   5
   9   1 -14 16092.1 1329.48  10
   9   1 -14 14870.7 1160.93   5
   9   1 -13 9568.10 1157.46  10
   9   1 -13 8261.97 923.013   5
   9   1 -12 30035.0 2039.87  10
   9   1 -12 26394.1 1443.82   8
   9   1 -12 26239.0 1691.93   5
   9   1 -11 2675.90 636.975  10
   9   1 -11 2323.26 517.566   5
   9   1 -11 3141.89 557.435   8
   9   1 -10 20508.7 1741.26  10
   9   1 -10 19429.3 1515.91   5
   9   1  -9 4698.89 834.447  10
   9   1  -9 5412.09 793.415   5
   9   1  -8 535.150 574.019  10
   9   1  -8 738.845 380.789   5
   9   1  -7 6543.23 1029.43  10
  -9  -1   7 7188.76 1850.80  12
   9   1  -7 6853.98 838.670   5
   9   1  -6 4919.17 873.897  10
  -9  -1   6 3455.33 1197.05  12
   9   1  -6 3872.99 671.616   5
   9   1  -5 1770.50 551.157  10
   9   1  -5 1141.53 379.018   5
  -9  -1   5 2449.18 1115.68  12
   9   1  -4 5605.60 841.407  10
  -9  -1   4 5329.13 1465.17  12
  -9  -1   3 27772.2 3187.07  12
  -9  -1   2 6085.78 1490.41  12
  -9  -1   1 9385.34 1846.00  12
  -9  -1   0 47517.6 4095.33  12
  -9  -1  -1 9826.65 1889.87  12
  -9  -1  -2 45824.6 4037.87  12
  -9  -1  -3 20328.2 2692.28  12
  -9  -1  -4 46.7419 615.651  12
  -9  -1  -5 34606.1 3549.68  12
  -9  -1  -6 2718.64 1088.35  12
  -9  -1  -7 16906.2 2541.08  12
   9   1   7 18194.7 2500.58   2
   9   1   8 21597.6 1450.31   9
  -9  -1  -8 18186.8 2718.71  12
   9   1   8 21774.3 2827.88   2
   9   1   9 488.301 335.570   5
   9   1   9 658.218 307.249   9
   9   1   9 667.402 825.410   2
   9   1  10 12796.5 1214.05   9
   9   1  10 11264.9 2193.41   2
   9   1  11 2425.13 621.205   9
   9   1  11 4278.39 1494.91   2
   9   1  12 9234.75 1145.30   9
   9   1  12 10639.7 2257.16   2
   9   1  13 1694.72 594.517   9
   9   1  14 1219.21 535.445   9
   9   1  14 1006.96 327.066   7
   9   1  15 6178.34 994.699   9
   9   1  15 7703.62 764.981   7
   9   1  16 3560.02 829.243   9
   9   1  16 2855.77 505.532   7
   9   1  17 25134.7 1904.39   9
   9   1  17 25685.1 1314.98   7
   9   1  18 18183.8 1096.39   7
   9   1  19 16203.9 1007.29   1
   9   1  19 15452.9 941.759   7
   9   1  20 26366.5 1123.19   7
   9   1  21 364.760 196.091   7
   9   2 -17 4057.27 455.375   5
   9   2 -17 3687.67 480.841  10
   9   2 -16 16492.9 1043.84   5
   9   2 -16 19339.1 1209.23  10
   9   2 -15 840.915 389.711  10
   9   2 -15 669.887 297.400   5
   9   2 -14 10361.1 1072.87  10
   9   2 -14 8935.69 964.259   5
   9   2 -13 364.994 386.746  10
   9   2 -13 761.243 456.335   5
   9   2 -12 11969.0 1276.97  10
   9   2 -12 11967.0 989.262   8
   9   2 -12 11623.6 1192.83   5
   9   2 -11 6184.56 950.340  10
   9   2 -11 4515.35 722.091   5
   9   2 -10 1560.09 500.035  10
   9   2 -10 2719.37 579.830   5
   9   2  -9 2028.69 600.669  10
   9   2  -9 2926.01 613.226   5
   9   2  -8 574.315 495.140  10
   9   2  -8 661.449 277.311   5
   9   2  -7 1009.55 494.073  10
   9   2  -7 308.673 284.764   5
  -9  -2   7 1585.58 964.934  12
   9   2  -6 15047.5 1429.47  10
  -9  -2   6 14197.7 2517.36  12
   9   2  -6 14305.4 1187.82   5
   9   2  -5 811.757 465.945  10
   9   2  -5 486.519 299.215   5
  -9  -2   5 969.903 739.969  12
   9   2  -4 10922.3 1129.97  10
  -9  -2   4 10267.7 2005.75  12
   9   2  -4 10496.2 983.330   5
  -9  -2   3 1820.70 893.615  12
  -9  -2   2 1977.95 877.188  12
  -9  -2   1 21156.0 2662.47  12
  -9  -2   0 5112.69 1330.04  12
  -9  -2  -1 36082.8 3490.03  12
  -9  -2  -2 2696.18 1035.94  12
  -9  -2  -3 49835.0 4114.98  12
  -9  -2  -4 3107.70 1017.82  12
  -9  -2  -5 4234.19 1237.59  12
  -9  -2  -6 1305.47 669.118  12
  -9  -2  -7 23225.8 2969.64  12
   9   2   8 2607.59 531.007   5
   9   2   8 2637.42 517.925   9
   9   2   8 2881.34 992.371   2
  -9  -2  -8 2854.61 1044.49  12
   9   2   9 2653.41 566.392   5
   9   2   9 2921.09 607.012   9
   9   2   9 2795.71 1056.89   2
   9   2  10 43946.5 2162.24   9
   9   2  10 43903.3 4184.76   2
   9   2  10 43310.5 2113.67   5
   9   2  11 18000.1 1437.85   9
   9   2  11 19980.6 2917.58   2
   9   2  12 13728.7 1327.87   9
   9   2  12 12700.5 1036.28   7
   9   2  12 14552.9 2567.51   2
   9   2  13 6211.66 979.621   9
   9   2  13 6059.22 737.657   7
   9   2  14 28083.8 2023.95   9
   9   2  14 28818.1 1522.65   7
   9   2  15 19358.7 1715.43   9
   9   2  15 27283.4 1468.46   7
   9   2  16 6926.99 1076.71   9
   9   2  16 8669.87 825.231   7
   9   2  17 2294.73 740.266   9
   9   2  17 2459.94 494.233   7
   9   2  18 14723.0 1436.88   9
   9   2  18 15907.6 1042.16   7
   9   2  19 423.180 277.203   7
   9   2  19 431.563 327.898   1
   9   2  20 17773.1 969.054   7
   9   2  21 2226.47 356.942   7
   9   2  22 178.746 139.625   7
   9   3 -18 2614.98 305.552   5
   9   3 -17 504.157 212.008   5
   9   3 -16 8390.10 752.667   5
   9   3 -16 7485.39 709.023  10
   9   3 -15 3280.73 525.152  10
   9   3 -15 3723.58 597.175   5
   9   3 -14 3580.71 644.691  10
   9   3 -14 4601.94 742.299   5
   9   3 -13 6707.34 894.054  10
   9   3 -13 7039.65 947.987   5
   9   3 -12 4260.97 795.209  10
   9   3 -12 4690.27 809.251   5
   9   3 -11 13918.4 1406.57  10
   9   3 -11 12150.2 1214.00   5
   9   3 -10 36576.3 2297.84  10
   9   3 -10 34107.1 2042.70   5
   9   3  -9 1588.42 443.929  10
   9   3  -9 1858.03 444.535   5
   9   3  -8 30629.9 2106.91  10
   9   3  -8 31028.5 1925.09   5
   9   3  -7 21585.1 1754.41  10
  -9  -3   7 22725.3 3289.17  12
   9   3  -7 20557.2 1502.26   5
   9   3  -6 3517.63 737.583  10
   9   3  -6 3520.95 630.042   5
  -9  -3   6 3151.17 1318.61  12
   9   3  -5 596.206 482.292  10
   9   3  -5 281.558 279.076   5
  -9  -3   5 73.2854 605.858  12
   9   3  -4 519.096 378.887  10
   9   3  -4 469.863 279.034   5
  -9  -3   4 531.819 538.722  12
   9   3  -3 1016.06 458.854  10
  -9  -3   3 1323.43 703.521  12
  -9  -3   2 567.224 600.453  12
  -9  -3   1 8402.60 1649.51  12
  -9  -3   0 1355.76 708.787  12
  -9  -3  -1 26328.7 2895.25  12
  -9  -3  -2 4813.44 1282.69  12
  -9  -3  -3 12006.5 1974.51  12
  -9  -3  -4 1761.10 848.312  12
  -9  -3  -5 1007.27 545.208  12
  -9  -3  -6 9156.91 1856.18  12
  -9  -3  -7 25.6680 411.419  12
   9   3   8 6276.60 844.974   9
  -9  -3  -8 3798.54 1211.95  12
   9   3   8 5372.97 742.077   5
   9   3   9 2851.16 615.079   5
   9   3   9 2743.75 548.809   9
  -9  -3  -9 1224.43 744.519  12
   9   3  10 6911.40 873.623   9
   9   3  10 5073.34 1412.67   2
   9   3  10 3455.33 508.075   7
   9   3  10 5442.95 789.837   5
   9   3  11 32146.3 1915.29   9
   9   3  11 25250.7 1479.39   7
   9   3  11 33179.5 3658.65   2
   9   3  12 24047.6 1724.27   9
   9   3  12 20782.4 1328.73   7
   9   3  13 16467.5 1528.06   9
   9   3  13 15134.3 1161.73   7
   9   3  14 454.799 462.025   9
   9   3  14 524.374 314.045   7
   9   3  15 8952.46 1125.53   9
   9   3  15 14071.4 1101.04   7
   9   3  16 392.347 460.006   9
   9   3  16 281.004 347.534   7
   9   3  17 2833.41 837.516   9
   9   3  17 2843.13 521.215   7
   9   3  18 542.422 460.438   9
   9   3  18 99.9400 274.130   7
   9   3  19 885.331 295.860   7
   9   3  20 2405.69 433.003   7
   9   3  21 388.290 237.531   7
   9   3  22 2219.03 297.582   7
   9   4 -18 7962.17 515.018   5
   9   4 -17 1863.47 341.763   5
   9   4 -16 10082.0 832.768   5
   9   4 -15 1827.67 446.135   5
   9   4 -14 937.100 377.242  10
   9   4 -14 1377.07 451.692   5
   9   4 -13 4692.04 726.258  10
   9   4 -13 6336.30 923.864   5
   9   4 -12 419.288 349.180  10
   9   4 -12 613.018 400.697   5
   9   4 -11 3246.66 704.030  10
   9   4 -11 1277.48 380.806   5
   9   4 -10 6150.18 913.170  10
   9   4 -10 5349.43 826.611   5
   9   4  -9 12032.1 1322.20  10
   9   4  -9 15970.4 1429.77   5
   9   4  -8 14178.7 1437.33  10
   9   4  -8 15200.6 1416.75   5
  -9  -4   7 39854.2 4360.10  12
   9   4  -7 44194.1 2271.04   5
   9   4  -7 43151.0 2442.12  10
   9   4  -6 2521.54 700.762  10
   9   4  -6 2324.51 545.892   5
  -9  -4   6 2351.25 1096.08  12
  -9  -4   5 14150.2 2396.31  12
   9   4  -5 14827.6 1246.65   5
   9   4  -5 14673.2 1397.25  10
  -9  -4   4 104261. 6236.08  12
   9   4  -4 98093.5 3086.93   5
   9   4  -4 98775.8 3477.23  10
  -9  -4   3 5554.81 1382.23  12
   9   4  -3 5778.02 761.259   5
   9   4  -3 6014.50 871.850  10
  -9  -4   2 69511.7 4742.53  12
   9   4  -2 71020.1 2538.74   5
   9   4  -2 63544.3 2696.20  10
  -9  -4   1 57458.4 4203.05  12
  -9  -4   0 7865.08 1523.33  12
  -9  -4  -1 38031.2 3344.08  12
  -9  -4  -2 1240.83 571.868  12
  -9  -4  -3 12236.7 1920.44  12
  -9  -4  -4 1476.32 691.459  12
  -9  -4  -5 515.506 407.019  12
  -9  -4  -6 43852.6 3765.54  12
   9   4   7-102.809 234.053   5
  -9  -4  -7-192.049 435.941  12
   9   4   8 32572.8 1725.90   9
  -9  -4  -8 29073.1 3228.45  12
   9   4   8 30240.6 1734.60   5
   9   4   9 609.229 294.999   5
   9   4   9 371.647 316.291   9
   9   4   9 137.556 352.744   7
   9   4   9 92.7361 734.410  13
  -9  -4  -9 591.754 646.103  12
   9   4  10 57818.5 2485.74   9
   9   4  10 54013.8 2136.55   7
   9   4  10 54830.1 5085.70  13
   9   4  10 60095.4 2501.72   5
   9   4  11 2771.24 620.699   9
   9   4  11 1162.38 344.696   7
   9   4  11 2241.19 1043.99  13
   9   4  11 2850.72 680.171   5
   9   4  12 982.072 450.588   9
   9   4  12 417.078 308.908   7
   9   4  13 2439.79 670.589   9
   9   4  13 2227.79 506.308   7
   9   4  14-200.397 405.836   9
   9   4  14-404.901 360.573   7
   9   4  15 4147.01 797.392   9
   9   4  15 5383.38 744.139   7
   9   4  16 2970.42 775.901   9
   9   4  16 3453.19 597.166   7
   9   4  17 7269.38 1047.39   9
   9   4  17 8151.29 849.875   7
   9   4  18 624.287 356.287   7
   9   4  19-190.869 269.315   7
   9   4  20 61.9791 249.215   7
   9   4  21 854.740 260.459   7
   9   4  22 2082.75 309.446   7
   9   5 -17 2760.84 395.301   5
   9   5 -16 7292.75 691.184   5
   9   5 -15 2354.19 471.440   5
   9   5 -14 14241.6 1185.66   5
   9   5 -13 8814.96 1072.81   5
   9   5 -12 6319.52 929.427   5
   9   5 -12 5330.22 744.736  10
   9   5 -11 12847.5 1263.29   5
   9   5 -11 12772.9 1240.65  10
   9   5 -10-660.156 473.988  10
   9   5 -10-724.918 522.571   5
   9   5  -9 12.9232 390.960  10
   9   5  -9 921.709 437.661   5
   9   5  -8 2337.46 616.797  10
   9   5  -8 2135.24 585.385   5
   9   5  -7 18595.0 1510.06   5
   9   5  -7 18913.3 1629.16  10
  -9  -5   6 11861.1 2308.53  12
   9   5  -6 14967.6 1308.83   5
   9   5  -6 15608.0 1461.84  10
   9   5  -5 1314.60 540.459  10
   9   5  -5 1030.09 400.725   5
  -9  -5   5 1365.76 892.596  12
  -9  -5   4 40218.2 3821.25  12
   9   5  -4 41855.4 2056.32   5
   9   5  -4 39532.2 2204.50  10
  -9  -5   3 93112.1 5565.20  12
   9   5  -3 93067.3 3025.52   5
  -9  -5   2 26393.9 2861.87  12
   9   5  -2 29274.7 1657.70   5
  -9  -5   1 105401. 5547.87  12
   9   5  -1 107696. 3182.82   5
   9   5   0 180.470 241.373   5
  -9  -5   0 9.87651 433.129  12
  -9  -5  -1 52344.2 3759.76  12
   9   5   5 2401.21 531.309   5
   9   5   6 322.237 370.519   5
   9   5   7 35724.8 1795.18   9
  -9  -5  -7 33645.4 1678.80   4
   9   5   7 36891.7 3933.64  13
   9   5   7 32660.8 1771.18   5
   9   5   8 6325.39 798.976   9
  -9  -5  -8 4903.16 693.236   4
   9   5   8 6087.36 763.123   5
   9   5   9 9143.74 975.197   9
   9   5   9 9764.47 938.690   7
   9   5   9 8339.44 1988.87  13
   9   5   9 8860.48 976.671   5
   9   5  10 36637.8 1971.91   9
   9   5  10 35295.7 1775.46   7
   9   5  10 32700.3 4032.51  13
   9   5  10 35573.6 1924.10   5
   9   5  11 1560.15 506.377   5
   9   5  11 1706.50 571.337   9
   9   5  11 2478.67 533.410   7
   9   5  12 3861.56 764.292   9
   9   5  12 2993.95 586.896   7
   9   5  13 7932.24 1103.78   9
   9   5  13 5912.32 815.449   7
   9   5  14 28211.3 1951.44   9
   9   5  14 33935.7 1827.93   7
   9   5  15 12114.2 1330.40   9
   9   5  15 17432.3 1313.44   7
   9   5  16 13029.7 1353.08   9
   9   5  16 15212.9 1211.53   7
   9   5  17 17738.8 1480.85   9
   9   5  17 18990.2 1286.48   7
   9   5  18 232.964 321.853   7
   9   5  19 7949.17 733.437   7
   9   5  20 1386.98 352.216   7
   9   5  21 4226.11 477.926   7
   9   5  22 2331.72 319.347   7
   9   6 -17 2003.68 324.880   5
   9   6 -16 1129.54 304.464   5
   9   6 -15 421.762 267.382   5
   9   6 -14 959.926 412.164   5
   9   6 -13 543.852 458.317   5
   9   6 -12 4608.44 808.099   5
   9   6 -11 3927.13 747.220   5
   9   6 -10 6934.83 964.624   5
   9   6  -9 9384.84 1182.13   5
   9   6  -8 9920.95 1161.29   5
   9   6  -7 5084.00 842.164   5
   9   6  -6 236.596 350.918   5
   9   6  -5 27566.6 1747.86   5
   9   6  -4 12615.9 1184.77   5
   9   6  -3 3854.34 655.000   5
   9   6  -2 2022.04 503.737   5
   9   6  -1 1218.02 422.707   5
   9   6   0 31.4670 266.701   5
   9   6   1 4689.90 670.443   5
   9   6   2 6657.45 778.175   5
   9   6   3 18273.2 1320.24   5
   9   6   4 164.672 330.606   5
   9   6   5 94676.6 3015.91   5
  -9  -6  -6 6079.01 712.902   4
   9   6   6 6740.63 1702.00  13
   9   6   6 7483.87 857.364   5
   9   6   7 86038.5 2741.06   9
  -9  -6  -7 81108.0 2670.33   4
   9   6   7 88447.0 6192.91  13
   9   6   7 89096.6 2901.70   5
   9   6   8 22465.9 1461.67   9
  -9  -6  -8 22514.7 1465.93   4
   9   6   8 23839.5 3340.01  13
   9   6   8 22572.2 1482.01   5
   9   6   9 13956.1 1186.84   9
  -9  -6  -9 13371.9 1169.67   4
   9   6   9 14983.4 2805.62  13
   9   6   9 14446.4 1198.64   5
   9   6  10 12739.8 1166.08   9
   9   6  10 13647.1 1178.28   7
   9   6  10 12354.9 2546.67  13
   9   6  10 12790.8 1163.28   5
   9   6  11 3566.89 688.128   9
   9   6  11 3612.82 719.321   7
   9   6  11 3835.29 710.461   5
   9   6  12 16974.5 1495.46   9
   9   6  12 16910.0 1324.94   7
   9   6  13 612.004 411.274   9
   9   6  13-998.554 637.144   7
   9   6  14 14967.8 1466.08   9
   9   6  14 19458.5 1433.37   7
   9   6  15 8740.38 1143.62   9
   9   6  15 10886.0 1092.86   7
   9   6  16 816.178 434.335   9
   9   6  16 648.809 370.348   7
   9   6  17 9994.84 948.431   7
   9   6  18 376.293 356.286   7
   9   6  19 3194.35 500.147   7
   9   6  20 3675.51 489.977   7
   9   6  21 1233.71 283.776   7
   9   6  22 19270.5 758.352   7
   9   7 -16 2766.07 377.176   5
   9   7 -15 3040.97 472.661   5
   9   7 -14-101.224 205.846   5
   9   7 -13 17985.6 1309.66   5
   9   7 -12 3837.50 714.672   5
   9   7 -11 42269.3 2220.86   5
   9   7 -10 2289.31 547.944   5
   9   7  -9 25111.9 1764.63   5
   9   7  -8 6988.73 1003.55   5
   9   7  -7 1246.82 459.984   5
   9   7  -6 2455.68 616.600   5
   9   7  -5 3434.67 656.519   5
   9   7  -4 664.155 376.791   5
   9   7  -3 5653.48 792.802   5
   9   7  -2 1402.02 460.682   5
   9   7  -1 731.154 388.474   5
   9   7   0 4798.86 678.711   5
   9   7   1 3009.55 551.727   5
   9   7   2 1348.28 436.975   5
  -9  -7  -3 9112.81 846.566   4
   9   7   3 10634.2 994.260   5
   9   7   4-99.6344 258.344   5
  -9  -7  -4 174.040 255.250   4
  -9  -7  -5 23873.8 1402.40   4
   9   7   5 26338.7 3275.84  13
   9   7   5 27651.3 1601.88   5
   9   7   6 4400.99 678.938   5
   9   7   6 3836.77 580.650   9
  -9  -7  -6 4153.70 625.218   4
   9   7   6 4113.15 1315.04  13
  -9  -7  -7 859.708 348.150   4
   9   7   7 1205.24 992.316  13
   9   7   8 4471.58 683.314   5
   9   7   8 4883.39 665.158   9
  -9  -7  -8 4426.65 702.969   4
   9   7   8 5381.35 1662.24  13
   9   7   9 8380.57 902.322   9
  -9  -7  -9 6551.10 868.089   4
   9   7   9 8135.20 920.930   5
   9   7  10 6690.59 851.272   9
  -9  -7 -10 4876.71 752.787   4
   9   7  10 7444.54 966.210   7
   9   7  10 6302.60 802.246   5
   9   7  11 9085.76 1049.60   9
   9   7  11 10437.3 1104.01   7
   9   7  11 7663.93 970.001   5
   9   7  12 20454.4 1558.00   9
   9   7  12 23027.9 1556.77   7
   9   7  13-391.037 418.265   9
   9   7  13-744.674 583.711   7
   9   7  14 20019.3 1630.81   9
   9   7  14 20545.8 1438.04   7
   9   7  15 189.484 344.423   9
   9   7  15 43.5369 383.592   7
   9   7  16 2682.44 629.424   9
   9   7  16 3437.75 626.225   7
   9   7  17 4317.49 653.379   7
   9   7  18 703.478 327.118   7
   9   7  19 1842.56 443.802   7
   9   7  20 864.085 280.349   7
   9   7  21 2441.39 335.156   7
   9   8 -15 4416.61 478.300   5
   9   8 -14 7200.25 680.960   5
   9   8 -13 15106.2 1070.26   5
   9   8 -12 8226.63 883.390   5
   9   8 -11 28534.5 1692.41   5
   9   8 -10 2702.99 586.302   5
   9   8  -9 2710.55 586.427   5
   9   8  -8 8306.52 1062.44   5
   9   8  -7 9919.71 1101.16   5
   9   8  -6 1405.92 487.096   5
   9   8  -5 52002.9 2389.15   5
   9   8  -4 26015.4 1671.38   5
   9   8  -3 11300.4 1120.18   5
   9   8  -2 22200.9 1511.77   5
   9   8  -1 906.337 371.400   5
   9   8   0 4678.75 670.277   5
  -9  -8   0 4187.80 602.522   4
   9   8   1 3061.41 553.212   5
  -9  -8  -1 3400.89 532.250   4
   9   8   2-3.79719 297.908   5
  -9  -8  -2 515.870 287.075   4
  -9  -8  -3 21980.5 1347.60   4
   9   8   3 23988.5 1525.63   5
   9   8   4 4714.01 678.490   5
  -9  -8  -4 4506.45 631.755   4
   9   8   5 1051.45 440.495   5
  -9  -8  -5 750.831 296.956   4
   9   8   5 904.996 814.740  13
  -9  -8  -6 5337.28 722.663   4
   9   8   6 4959.78 1345.40  13
   9   8   6 6096.36 769.082   5
   9   8   7 2378.99 529.643   5
  -9  -8  -7 2505.75 534.389   4
  -9  -8  -8 7705.48 893.328   4
   9   8   8 7457.01 895.066   5
  -9  -8  -9 15080.8 1295.51   4
   9   8   9 14819.9 1226.51   5
  -9  -8 -10 77881.1 2904.79   4
   9   8  10 78889.2 2822.25   5
   9   8  11 2115.84 650.443   7
   9   8  12 60615.2 2485.44   7
   9   8  13 9812.05 1030.27   7
   9   8  14 976.359 424.787   7
   9   8  15-70.3815 438.292   7
   9   8  16 1280.85 460.606   7
   9   8  17 59.1902 389.680   7
   9   8  18 902.042 330.029   7
   9   8  19 429.057 254.847   7
   9   8  20 500.059 219.703   7
   9   8  21 333.517 161.691   7
   9   9 -14 21028.5 974.989   5
   9   9 -13 9515.23 763.083   5
   9   9 -12 5656.12 662.855   5
   9   9 -11 10697.3 963.428   5
   9   9 -10-577.232 409.739   5
   9   9  -9 1608.75 418.244   5
   9   9  -8 1254.00 492.867   5
   9   9  -7 39938.1 2115.67   5
   9   9  -6 5310.11 815.819   5
   9   9  -5 9752.10 1056.35   5
   9   9  -4 22882.9 1535.89   5
  -9  -9   3 10033.8 954.257   4
   9   9  -3 10090.2 1000.05   5
  -9  -9   2 29914.9 1614.50   4
   9   9  -2 30824.8 1746.74   5
   9   9  -1-398.850 329.133   5
  -9  -9   1 539.967 316.767   4
  -9  -9   0 19003.7 1276.64   4
   9   9   0 19100.4 1329.07   5
  -9  -9  -1 19750.3 1302.18   4
   9   9   1 20417.0 1371.80   5
   9   9   2 4028.58 618.459   5
  -9  -9  -2 4265.54 635.877   4
   9   9   3 3787.34 600.480   5
  -9  -9  -3 3337.66 556.429   4
  -9  -9  -4 18948.4 1296.78   4
   9   9   4 19825.6 1332.41   5
  -9  -9  -5 21988.6 1411.44   4
   9   9   5 21930.9 1391.21   5
   9   9   6 53.7271 243.514   5
  -9  -9  -6 360.052 332.037   4
  -9  -9  -7 10381.6 1027.18   4
   9   9   7 11183.8 1010.21   5
  -9  -9  -8 23033.3 1541.91   4
   9   9   8 24213.0 1509.30   5
   9   9   9 342.645 281.118   5
  -9  -9  -9 270.751 328.823   4
  -9  -9 -10 25284.6 1695.08   4
   9   9  11 19557.1 1448.66   7
   9   9  12 4381.11 795.027   7
   9   9  13 16833.8 1278.05   7
   9   9  14 1892.06 437.381   7
   9   9  15-180.886 357.362   7
   9   9  16 6686.32 760.915   7
   9   9  17 61.1987 304.348   7
   9   9  18 5852.40 596.838   7
   9   9  19 3284.62 414.890   7
   9   9  20 5702.39 437.168   7
   9  10 -13 5000.13 446.344   5
   9  10 -12 1318.95 315.991   5
   9  10 -11 4514.16 569.396   5
   9  10 -10 770.558 288.809   5
   9  10  -9 841.636 235.243   5
   9  10  -8 570.588 251.930   5
   9  10  -7 11760.0 1079.52   5
   9  10  -6 4582.93 681.652   5
   9  10  -5 5068.37 740.768   5
  -9 -10   5 4702.17 677.937   4
   9  10  -4 1150.51 413.687   5
  -9 -10   4 1268.36 410.909   4
  -9 -10   3 6415.05 773.965   4
   9  10  -3 6381.95 767.836   5
  -9 -10   2 10797.6 994.469   4
   9  10  -2 10069.0 978.752   5
   9  10  -1 1216.02 394.429   5
  -9 -10   1 1969.00 501.771   4
   9  10   0 1561.32 419.515   5
  -9 -10   0 1617.81 461.326   4
  -9 -10  -1 6459.08 769.006   4
   9  10   1 7035.09 771.200   5
  -9 -10  -2 29185.6 1617.47   4
   9  10   2 34274.6 1715.57   5
   9  10   3 736.448 322.239   5
  -9 -10  -3 826.962 337.169   4
   9  10   4 2111.47 442.423   5
  -9 -10  -4 2588.52 517.165   4
   9  10   5 4398.66 633.615   5
  -9 -10  -5 3759.90 593.065   4
   9  10   6 518.787 271.900   5
  -9 -10  -6 1033.09 435.773   4
  -9 -10  -7 19255.3 1385.68   4
   9  10   7 19678.9 1291.26   5
   9  10   8 2720.09 538.319   5
  -9 -10  -8 2246.61 574.670   4
  -9 -10  -9 2479.92 588.600   4
  -9 -10 -10 3402.08 697.798   4
  -9 -10 -11 741.745 373.509   4
   9  10  11 1508.41 571.874   7
   9  10  12 504.215 476.822   7
   9  10  13 2082.67 499.755   7
   9  10  14-490.842 589.684   7
   9  10  15 417.985 317.671   7
   9  10  16 8571.14 779.586   7
   9  10  17 2152.39 407.102   7
   9  10  18 4007.69 457.226   7
   9  10  19 10409.5 581.113   7
   9  11 -11 8422.74 576.006   5
   9  11 -10 7057.66 625.156   5
   9  11  -9 20529.8 1149.43   5
   9  11  -8 788.592 235.916   5
  -9 -11   7 6707.63 671.645   4
   9  11  -7 6293.43 706.579   5
   9  11  -6 1068.82 266.894   5
  -9 -11   6 1076.04 282.949   4
   9  11  -5 1752.98 413.117   5
  -9 -11   5 1219.34 363.315   4
   9  11  -4 1258.31 344.688   5
  -9 -11   4 1651.05 444.034   4
   9  11  -3 3787.19 574.185   5
  -9 -11   3 3853.46 609.051   4
   9  11  -2 1890.76 434.084   5
  -9 -11   2 1979.20 475.122   4
   9  11  -1 298.186 227.471   5
  -9 -11   1 352.869 353.738   4
  -9 -11   0 6324.79 767.894   4
   9  11   0 6554.89 723.782   5
  -9 -11  -1 20744.8 1369.70   4
   9  11   1 21659.7 1290.08   5
  -9 -11  -2 22771.9 1436.61   4
   9  11   2 24201.4 1340.98   5
  -9 -11  -3 16800.4 1223.52   4
   9  11   3 15816.0 1078.80   5
   9  11   4 4464.90 563.898   5
  -9 -11  -4 4575.25 675.286   4
  -9 -11  -5 1410.99 441.101   4
  -9 -11  -6 3583.69 617.891   4
  -9 -11  -7 152.652 283.269   4
  -9 -11  -8 10793.4 1067.79   4
  -9 -11  -9 1866.69 539.407   4
  -9 -11 -10 7847.15 914.577   4
   9  11  10 9990.77 1029.51   7
   9  11  11 8092.97 922.043   7
   9  11  12 6355.81 806.927   7
   9  11  13 1610.59 314.683   7
   9  11  14-407.627 402.833   7
   9  11  15 1411.07 410.370   7
   9  11  16 1069.34 307.769   7
   9  11  17 397.858 204.205   7
  -9 -11 -17 71.6458 158.991  11
   9  11  18 463.444 170.885   7
  -9 -12   7 703.323 214.177   4
  -9 -12   6-122.431 193.597   4
  -9 -12   5 2301.60 415.589   4
  -9 -12   4 548.294 311.388   4
  -9 -12   3 5165.61 673.712   4
  -9 -12   2 13908.9 1081.09   4
  -9 -12   1 10359.9 944.840   4
  -9 -12   0 14436.4 1108.28   4
  -9 -12  -1-149.128 314.765   4
  -9 -12  -2 450.040 257.988   4
  -9 -12  -3 1854.44 444.121   4
  -9 -12  -4 14592.1 1117.55   4
  -9 -12  -5 7102.26 803.179   4
  -9 -12  -6 15248.7 1141.67   4
  -9 -12  -7 20313.6 1332.33   4
  -9 -12  -8 575.728 312.428   4
  -9 -12  -9 21351.3 1371.73   4
   9  12  10 920.025 486.840   7
  -9 -12 -10 420.247 281.659   4
   9  12  11 10124.4 886.753   7
   9  12  12 123.719 278.964   7
   9  12  13 180.102 286.438   7
   9  12  14 461.720 258.082   7
   9  12  15-105.750 212.693   7
  -9 -12 -15-20.2587 188.297  11
   9  12  16 1076.80 236.290   7
  -9 -12 -16 312.411 162.126  11
  -9 -13   7 2258.50 303.188   4
  -9 -13   6-152.050 161.815   4
  -9 -13   5 3171.64 414.611   4
  -9 -13   4 2301.56 397.003   4
  -9 -13   3 23267.1 1274.01   4
  -9 -13   2 11007.9 904.049   4
  -9 -13   1 2417.75 514.508   4
  -9 -13   0 43966.1 1787.42   4
  -9 -13  -1 5910.53 674.418   4
  -9 -13  -2 6953.91 752.134   4
  -9 -13  -3 6545.01 718.793   4
  -9 -13  -4 3109.35 513.654   4
  -9 -13  -4 2355.73 438.341  11
  -9 -13  -5 10719.0 928.599   4
  -9 -13  -6 5408.28 676.043   4
  -9 -13  -7 3021.07 500.338   4
  -9 -13  -8 1308.15 381.520   4
   9  13   9 1733.79 464.506   7
  -9 -13  -9 1031.67 327.763   4
   9  13  10 1302.09 397.811   7
   9  13  11 2057.54 386.014   7
   9  13  12 3221.42 424.913   7
  -9 -13 -12 4794.46 583.232  11
   9  13  13 3828.63 445.005   7
  -9 -13 -13 4291.92 503.202  11
   9  13  14 154.216 175.909   7
  -9 -13 -14-81.9025 151.917  11
  -9 -13 -15 9463.07 581.651  11
  -9 -14   5 1320.69 250.607   4
  -9 -14   4 2747.29 348.436   4
  -9 -14   3-545.495 279.621   4
  -9 -14   2 14850.7 899.750   4
  -9 -14   1 11317.3 807.896   4
  -9 -14   0 15240.2 960.352   4
  -9 -14  -1 38096.1 1528.35   4
  -9 -14  -2 3752.95 514.666   4
  -9 -14  -3 9368.05 775.225   4
  -9 -14  -4 3884.78 517.689   4
  -9 -14  -5 131.181 196.070   4
  -9 -14  -5 236.436 198.011  11
  -9 -14  -6 3546.62 486.793   4
  -9 -14  -6 2911.70 441.310  11
  -9 -14  -7 128.016 219.292   4
  -9 -14  -7-54.0641 218.832  11
  -9 -14  -8 4583.42 542.995   4
   9  14   8 5248.78 560.119   7
   9  14   9 2539.55 415.628   7
  -9 -14  -9 1633.48 376.993  11
   9  14  10 1580.55 293.493   7
  -9 -14 -10 1844.33 366.348  11
   9  14  11-618.788 267.087   7
  -9 -14 -11 477.009 232.334  11
   9  14  12 1544.52 253.938   7
  -9 -14 -12 1724.49 322.111  11
  -9 -15   2 1444.85 252.602   4
  -9 -15   1 6946.64 539.910   4
  -9 -15   0 744.703 220.403   4
  -9 -15  -1 2278.56 346.405   4
  -9 -15  -2 6943.86 572.188   4
  -9 -15  -3 3765.26 451.851   4
  -9 -15  -4 3433.79 422.570   4
  -9 -15  -5 4401.73 468.354   4
   9  15   6 577.618 249.065   7
  -9 -15  -6 297.496 180.570   4
   9  15   7 7356.45 521.116   7
   9  15   8 1603.17 240.910   7
  10 -11  -2 5939.40 484.315   8
  10 -11  -1 8734.89 607.344   8
  10 -10  -6 646.002 211.999   8
  10 -10  -5 5861.07 520.687   8
  10 -10  -4 5067.80 534.844   8
  10 -10  -3 163.976 244.959   8
  10 -10  -2 1627.43 372.953   8
  10 -10  -1 558.055 319.922   8
  10 -10   0 1040.22 314.068   8
  10 -10   1 3804.97 520.573   8
  10 -10   2 2770.89 450.707   8
  10 -10   3 909.507 295.957   8
  10 -10   4 1626.22 301.682   8
  10 -10   5 7030.90 540.422   1
  10 -10   6-21.2972 196.295   1
  10 -10   7 8420.15 597.690   1
  10 -10   8 717.692 207.563   1
  10 -10   9 17964.4 818.679   1
  10  -9  -8 1131.68 252.636   8
  10  -9  -7 5159.98 525.606   8
  10  -9  -6 21367.1 1071.05   8
  10  -9  -5 1975.54 439.441   8
  10  -9  -4 8052.91 792.936   8
  10  -9  -3 274.871 325.410   8
  10  -9  -2 4892.68 647.118   8
  10  -9  -1 2305.40 500.134   8
  10  -9   0 342.333 390.077   8
  10  -9   1-172.396 360.189   8
  10  -9   2 3277.57 564.543   8
  10  -9   3 5973.06 667.368   8
  10  -9   4 596.562 309.626   8
  10  -9   4 200.274 253.106   1
  10  -9   5 8513.15 667.302   8
  10  -9   5 9067.91 739.059   1
  10  -9   6 13.1126 274.388   1
  10  -9   7 9081.58 790.967   1
  10  -9   8-486.859 306.785   1
  10  -9   9 46.8570 232.686   1
  10  -9  10 809.412 281.020   1
  10  -9  11 6850.04 572.277   1
  10  -9  12 1850.61 295.518   1
  10  -8  -9 12085.5 711.044   8
  10  -8  -8 801.236 278.515   8
  10  -8  -7 550.111 346.674   8
  10  -8  -6 2392.47 497.568   8
  10  -8  -5 18419.3 1189.51   8
  10  -8  -4 367.399 358.306   8
  10  -8  -3 7824.76 862.921   8
  10  -8  -2 4796.63 736.459   8
  10  -8  -1 5835.78 842.938   8
  10  -8   0 11866.9 1103.42   8
  10  -8   1-506.932 450.949   8
  10  -8   2 12622.7 1069.74   8
  10  -8   3 4617.11 649.974   8
  10  -8   3 4511.34 546.601   1
  10  -8   4 5673.87 684.913   8
  10  -8   4 5816.94 670.432   1
  10  -8   5 6481.85 710.088   8
  10  -8   5 7556.57 784.834   1
  10  -8   6 206.466 330.123   1
  10  -8   7 705.499 356.402   1
  10  -8   8 1868.42 426.645   1
  10  -8   9 284.202 347.688   1
  10  -8  10 5730.39 675.569   1
  10  -8  11 6520.60 686.923   1
  10  -8  12 36986.7 1436.21   1
  10  -8  13 37.2624 197.695   1
  10  -8  14 19647.0 848.615   1
  10  -7 -10 8037.92 614.899   8
  10  -7  -9 8081.12 689.431   8
  10  -7  -8 7110.73 710.638   8
  10  -7  -8 5421.39 585.498   6
  10  -7  -7 542.739 357.774   8
  10  -7  -6 2392.94 532.247   8
  10  -7  -5 3516.16 680.455   8
  10  -7  -4 975.379 505.133   8
  10  -7  -3 7182.04 894.770   8
  10  -7  -2 11064.7 1149.49   8
  10  -7  -1 1245.47 566.634   8
  10  -7   0 19500.3 1428.26   8
  10  -7   1 361.180 473.429   8
  10  -7   2 17892.9 1310.91   8
  10  -7   3 13284.7 1103.55   8
  10  -7   3 13004.1 994.385   1
  10  -7   4 118.589 277.254   1
  10  -7   4 32.9619 325.593   8
  10  -7   5 2753.68 553.881   1
  10  -7   5 2076.04 449.900   8
  10  -7   6 2083.89 496.257   1
  10  -7   7 61.9085 353.469   1
  10  -7   8-468.899 449.223   1
  10  -7   9 11438.7 1064.49   1
  10  -7  10 489.989 423.862   1
  10  -7  11 5662.99 758.482   1
  10  -7  12 11616.4 955.876   1
  10  -7  13 1097.78 373.500   1
  10  -7  14 3741.45 494.779   1
  10  -7  15 3685.87 407.842   1
  10  -6 -12 872.728 236.489  10
  10  -6 -11 10834.7 683.647   8
  10  -6 -11 8540.37 762.827  10
  10  -6 -10 4219.51 568.599  10
  10  -6 -10 5294.35 563.033   8
  10  -6 -10 5600.03 565.794   6
  10  -6  -9 151.717 299.512   8
  10  -6  -9-97.2708 216.730   6
  10  -6  -8 4276.80 636.224   8
  10  -6  -8 2997.45 467.476   6
  10  -6  -7 31586.2 1618.91   8
  10  -6  -7 29119.8 1507.43   6
  10  -6  -6 2282.60 568.484   8
  10  -6  -6 3105.20 544.583   6
  10  -6  -5 25580.6 1599.97   8
  10  -6  -5 26741.3 1482.18   6
  10  -6  -4 371.492 503.494   8
  10  -6  -4 514.036 392.646   6
  10  -6  -3 16151.6 1350.24   8
  10  -6  -2 5262.50 791.878   8
  10  -6  -1 8171.70 974.265   8
  10  -6   0 4766.02 794.218   8
  10  -6   1 499.786 448.909   8
  10  -6   2 4617.03 728.643   8
  10  -6   3-187.189 351.274   8
  10  -6   3 174.537 283.341   1
  10  -6   4 22776.2 1402.65   8
  10  -6   4 24499.4 1468.83   1
  10  -6   5 3296.17 598.891   8
  10  -6   5 2614.71 568.324   1
  10  -6   6 38647.9 2000.63   1
  10  -6   7 20757.7 1532.67   1
  10  -6   8 2798.70 582.220   1
  10  -6   9 24632.2 1590.66   1
  10  -6  10 4639.32 780.549   1
  10  -6  11 19881.9 1398.11   1
  10  -6  12 8522.52 916.335   1
  10  -6  13 1344.58 461.791   1
  10  -6  14 145.549 287.209   1
  10  -6  15 753.868 302.622   1
  10  -6  16 2170.51 347.857   1
  10  -5 -14-347.063 210.298  10
  10  -5 -13 575.063 256.034  10
  10  -5 -12 5720.97 706.900  10
  10  -5 -11 573.345 374.093  10
  10  -5 -11 82.7754 217.503   8
  10  -5 -10 24265.2 1549.39  10
  10  -5 -10 25359.9 1259.48   8
  10  -5  -9 10754.6 1066.16  10
  10  -5  -9 12894.2 969.790   8
  10  -5  -8 12913.7 1219.00  10
  10  -5  -8 13912.5 1086.13   8
  10  -5  -8 12026.1 953.831   6
  10  -5  -7 23353.0 1611.18  10
  10  -5  -7 23086.8 1464.87   8
  10  -5  -7 21883.8 1347.83   6
  10  -5  -6 2310.59 543.606  10
  10  -5  -6 2603.95 611.292   8
  10  -5  -6 3119.87 544.210   6
  10  -5  -5 3872.00 780.121   8
  10  -5  -5 4429.54 670.390   6
  10  -5  -4 1452.40 583.607   8
  10  -5  -4 1793.67 480.672   6
  10  -5  -3-431.721 644.308   8
  10  -5  -3 1201.19 425.558   6
  10  -5  -2-731.332 650.517   8
  10  -5  -1 8534.12 1030.43   8
  10  -5   0-139.886 514.798   8
  10  -5   1 446.759 397.799   8
  10  -5   2 3697.30 685.441   8
  10  -5   3 3487.18 675.617   8
  10  -5   3 3012.33 552.319   1
  10  -5   4 15982.0 1198.91   8
  10  -5   4 16892.2 1292.29   1
  10  -5   5 7322.15 825.481   8
  10  -5   5 7514.51 976.230   1
  10  -5   6 696.937 476.864   1
  10  -5   7 16154.9 1431.02   1
  10  -5   8 820.184 493.033   1
  10  -5   9-222.206 397.859   1
  10  -5  10 17359.3 1385.07   1
  10  -5  11 2322.39 610.414   1
  10  -5  12 8223.80 930.154   1
  10  -5  13 7879.89 879.464   1
  10  -5  14-140.067 326.275   1
  10  -5  15 3967.29 574.592   1
  10  -5  16 1997.80 400.261   1
  10  -5  17 1181.94 280.800   1
  10  -4 -15 1330.25 296.951  10
  10  -4 -14 1657.17 387.984  10
  10  -4 -13 506.068 337.956  10
  10  -4 -12 10554.2 1031.43  10
  10  -4 -12 8925.88 657.183   8
  10  -4 -11 1325.40 433.124  10
  10  -4 -11 2253.04 437.511   8
  10  -4 -10 30250.9 1861.92  10
  10  -4 -10 30559.5 1448.24   8
  10  -4  -9 40572.7 2221.17  10
  10  -4  -9 42028.9 1809.77   8
  10  -4  -8 280.574 327.699  10
  10  -4  -8-132.041 413.251   8
  10  -4  -7 34976.0 2229.93  10
  10  -4  -7 33381.0 1779.20   8
  10  -4  -6 5507.85 876.730  10
  10  -4  -6 7004.00 919.913   8
  10  -4  -5 5185.68 823.581  10
  10  -4  -5 5332.48 819.745   8
  10  -4  -4 4338.69 732.524  10
  10  -4  -4 3791.31 733.788   8
  10  -4  -3 4080.69 717.083   8
  10  -4  -2 526.044 545.768   8
  10  -4  -1 12983.5 1308.20   8
  10  -4   0 15238.6 1323.78   8
  10  -4   1 16951.3 1381.25   8
  10  -4   2 43767.1 2031.24   8
  10  -4   3 2877.17 600.064   1
  10  -4   3 2170.77 478.931   8
  10  -4   4 8670.03 879.157   8
  10  -4   4 8522.93 967.948   1
  10  -4   5 644.896 432.051   1
  10  -4   6 259.211 410.409   1
  10  -4   7 456.244 403.112   1
  10  -4   8-294.096 368.785   1
  10  -4   9 773.925 529.697   1
  10  -4  10 687.276 555.231   1
  10  -4  11 2606.05 664.326   1
  10  -4  12 577.322 473.757   1
  10  -4  13 10509.6 1056.67   1
  10  -4  14 11247.3 1007.96   1
  10  -4  15 2053.52 473.275   1
  10  -4  16 7773.96 729.401   1
  10  -4  17 1156.74 322.803   1
  10  -4  18 583.899 217.010   1
  10  -3 -16-83.4380 166.189  10
  10  -3 -15 18614.0 1067.71  10
  10  -3 -14 3200.56 537.912  10
  10  -3 -13 7411.46 856.990  10
  10  -3 -12 23915.7 1608.73  10
  10  -3 -12 22134.0 1101.04   8
  10  -3 -11-689.844 477.009  10
  10  -3 -11 255.343 287.406   8
  10  -3 -10 15091.7 1405.43  10
  10  -3 -10 18265.4 1184.14   8
  10  -3  -9 9625.57 1124.25  10
  10  -3  -9 12573.3 1077.55   8
  10  -3  -8 7933.19 1093.16  10
  10  -3  -8 8334.36 933.630   8
  10  -3  -7 708.616 514.179  10
  10  -3  -7 226.780 461.026   8
  10  -3  -6 1533.42 544.921  10
  10  -3  -6 1828.57 558.107   8
  10  -3  -5 12406.7 1264.36  10
  10  -3  -5 11537.7 1171.46   8
  10  -3  -4 800.095 440.649  10
  10  -3  -4 526.518 441.569   8
  10  -3  -3 5259.70 829.244   8
  10  -3  -3 5928.86 887.924  10
  10  -3  -2 15876.8 1396.63   8
  10  -3  -2 15415.8 1314.03  10
  10  -3  -1 30161.8 1865.71   8
  10  -3  -1 27107.3 1731.43  10
  10  -3   0 60365.7 2594.59   8
  10  -3   1 2124.68 589.681   8
 -10   3  -1 1680.57 948.929  12
  10  -3   2 75952.5 2732.87   8
 -10   3  -2 80736.9 5990.49  12
  10  -3   3 1896.93 491.719   1
  10  -3   3 1977.39 561.768   8
  10  -3   4 6927.80 899.356   1
  10  -3   4 6746.19 841.109   8
  10  -3   5 1306.08 475.306   1
  10  -3   6 954.965 396.595   9
  10  -3   6 1153.60 452.919   1
  10  -3   7 6207.51 952.265   1
  10  -3   7 8368.47 900.382   9
  10  -3   8 2414.70 568.370   9
  10  -3   8 991.608 391.750   1
  10  -3   9 15639.9 1534.52   1
  10  -3   9 16212.9 1339.50   9
  10  -3  10 628.607 691.384   1
  10  -3  10 500.070 371.753   9
  10  -3  11 13587.4 1361.99   1
  10  -3  11 9447.75 1095.99   9
  10  -3  12 80.8428 275.843   9
  10  -3  12 1612.09 628.768   1
  10  -3  13 1257.41 519.494   9
  10  -3  13 2176.12 639.164   1
  10  -3  14 598.365 442.921   9
  10  -3  14 130.530 383.132   1
  10  -3  15 353.098 338.104   1
  10  -3  16 323.218 302.053   1
  10  -3  17 9179.51 770.329   1
  10  -3  18 1181.80 303.784   1
  10  -3  19 2597.92 343.801   1
  10  -2 -16 5279.22 549.016  10
  10  -2 -15 3680.17 535.994  10
  10  -2 -14 8733.77 893.488  10
  10  -2 -13 1977.28 495.627  10
  10  -2 -12 12274.3 1213.01  10
  10  -2 -12 10835.9 823.603   8
  10  -2 -11 1949.58 541.213  10
  10  -2 -11 3417.73 552.582   8
  10  -2 -10-572.902 573.995  10
  10  -2 -10 366.965 321.355   8
  10  -2  -9-231.257 513.920  10
  10  -2  -9 334.215 328.557   8
  10  -2  -8 1717.28 557.890  10
  10  -2  -8 1376.26 508.117   8
  10  -2  -7 2812.12 775.153  10
  10  -2  -7 2828.56 675.336   8
  10  -2  -6 562.893 442.007  10
  10  -2  -6 323.938 363.148   8
  10  -2  -5 487.298 435.451  10
  10  -2  -5 214.674 396.289   8
  10  -2  -4 105.827 308.786  10
  10  -2  -4 588.642 500.159   8
  10  -2  -3 779.619 394.543  10
  10  -2  -3 387.309 435.180   8
  10  -2  -2 156.487 279.182  10
  10  -2  -2-137.971 441.077   8
 -10   2   2 310.796 645.874  12
  10  -2  -1 17956.4 1431.32   8
 -10   2   1 18799.8 2835.87  12
  10  -2  -1 16170.6 1380.84  10
  10  -2   0 2117.58 525.793   8
 -10   2   0 2170.27 1007.64  12
  10  -2   1 8410.29 947.444   8
 -10   2  -1 9171.76 1987.34  12
  10  -2   2 1380.13 449.755   8
 -10   2  -2 1140.92 726.546  12
  10  -2   3 51938.2 2127.97   1
  10  -2   3 52617.3 2153.00   8
 -10   2  -3 54857.1 4932.46  12
  10  -2   4 27706.0 1528.00   8
 -10   2  -4 30819.5 3703.44  12
  10  -2   5 280.936 249.519   9
 -10   2  -5 224.992 703.319  12
  10  -2   6 45014.4 2043.44   9
 -10   2  -6 46449.7 4639.15  12
  10  -2   7 6098.89 794.821   9
  10  -2   8 18950.9 1428.31   9
  10  -2   9 12182.9 1199.37   9
  10  -2  10 10442.7 1153.41   9
  10  -2  11 364.201 356.115   9
  10  -2  12 2433.07 614.737   9
  10  -2  12 4343.79 838.485   1
  10  -2  13-236.457 460.184   9
  10  -2  13 522.096 451.900   1
  10  -2  14 5174.73 809.381   1
  10  -2  14 3754.45 782.233   9
  10  -2  15 2940.98 689.873   9
  10  -2  15 3966.84 689.784   1
  10  -2  16 717.571 396.439   9
  10  -2  16 513.760 361.503   1
  10  -2  17 7888.01 768.626   1
  10  -2  18 6226.17 599.527   1
  10  -2  19 1811.82 330.537   1
  10  -1 -17 8507.88 583.500  10
  10  -1 -16 2591.55 402.179  10
  10  -1 -15 55.4530 263.897  10
  10  -1 -14 852.514 361.835  10
  10  -1 -13-332.977 375.883  10
  10  -1 -12 27292.0 1834.22  10
  10  -1 -12 24970.6 1300.54   8
  10  -1 -11 209.572 431.828  10
  10  -1 -11 667.419 394.382   8
  10  -1 -10 19253.4 1670.47  10
  10  -1 -10 20775.9 1346.67   8
  10  -1  -9-428.253 585.857  10
  10  -1  -9 290.747 423.586   8
  10  -1  -8 27779.2 2042.03  10
  10  -1  -8 27124.7 1612.26   8
  10  -1  -7 3229.75 808.601  10
  10  -1  -7 3001.63 677.541   8
  10  -1  -6 10844.9 1308.70  10
  10  -1  -6 9978.29 1073.12   8
  10  -1  -5 780.343 496.492  10
  10  -1  -5 44.9417 442.056   8
  10  -1  -4 14989.8 1382.47  10
  10  -1  -4 14220.6 1332.88   8
  10  -1  -3 12988.0 1293.53  10
  10  -1  -3 10689.5 1120.55   8
 -10   1   3 13528.6 2443.47  12
  10  -1  -2 1113.47 456.192  10
  10  -1  -2 1008.99 396.863   8
 -10   1   2 1428.83 973.817  12
  10  -1  -1 1199.21 447.872  10
  10  -1  -1 930.276 440.173   8
 -10   1   1 1863.17 947.768  12
  10  -1   0 3544.13 640.876   8
 -10   1   0 3907.54 1352.92  12
  10  -1   0 3420.92 657.579  10
  10  -1   1 429.402 344.048   8
 -10   1  -1 402.094 431.387  12
  10  -1   2 16050.5 1263.03   8
 -10   1  -2 15683.5 2615.80  12
  10  -1   3-35.1117 300.937   8
 -10   1  -3-520.374 721.527  12
 -10   1  -4 33367.8 3798.77  12
 -10   1  -5 28254.5 3537.46  12
  10  -1   6 29177.3 1666.42   9
 -10   1  -6 25316.1 3404.34  12
  10  -1   7 17324.1 1314.39   9
 -10   1  -7 14031.6 2518.43  12
  10  -1   8 9601.43 1029.64   9
  10  -1   9 9552.51 1047.02   9
  10  -1  10 1316.87 478.950   9
  10  -1  11 39823.7 2252.78   9
  10  -1  12 6727.29 979.688   9
  10  -1  13 7621.49 1043.43   9
  10  -1  14 9196.44 1143.27   9
  10  -1  15 29190.4 1982.04   9
  10  -1  15 33042.2 1807.79   1
  10  -1  16 2768.39 605.106   1
  10  -1  16 2885.29 722.399   9
  10  -1  17 6191.21 717.957   1
  10  -1  18 1530.70 365.503   1
  10  -1  19-105.315 205.447   1
  10   0 -17 3385.46 386.806  10
  10   0 -16 670.847 246.468  10
  10   0 -15 4532.21 612.458  10
  10   0 -14 5304.07 728.032  10
  10   0 -13 4732.97 786.651  10
  10   0 -12 3392.85 764.801  10
  10   0 -12 3342.73 526.619   8
  10   0 -11-136.645 527.679  10
  10   0 -11 139.765 281.146   8
  10   0 -10 20941.9 1750.44  10
  10   0 -10 21863.9 1361.15   8
  10   0  -9 10546.6 1246.54  10
  10   0  -9 11727.2 1067.83   8
  10   0  -8 3973.04 844.666  10
  10   0  -8 4231.94 672.125   8
  10   0  -7 11346.3 1440.47  10
  10   0  -7 10764.3 1051.55   8
  10   0  -6 206.962 525.141  10
  10   0  -5 1192.12 550.406  10
  10   0  -4 3256.73 769.043  10
 -10   0   4 3905.19 1440.67  12
  10   0  -3 4555.16 841.140  10
 -10   0   3 4785.93 1522.28  12
 -10   0   2 20435.2 2907.20  12
  10   0  -2 20422.8 1592.16  10
  10   0  -1 1368.15 524.333  10
 -10   0   1 1592.60 890.148  12
 -10   0   0 27442.6 3351.52  12
  10   0   0 21590.1 1654.37  10
 -10   0  -1 41427.9 4137.17  12
  10   0   2 7018.56 823.003   8
 -10   0  -2 7189.23 1711.79  12
  10   0   3 336.447 333.347   8
 -10   0  -3 839.185 691.156  12
 -10   0  -4 9164.48 1987.08  12
 -10   0  -5 10219.1 2068.99  12
  10   0   6 2817.82 555.789   9
 -10   0  -6 2564.82 1087.10  12
  10   0   7-128.321 206.086   5
  10   0   7 427.110 347.483   9
 -10   0  -7 196.709 415.510  12
  10   0   8 1387.16 470.734   9
 -10   0  -8 1421.61 733.459  12
  10   0   8 1350.68 442.017   5
  10   0   9 153.218 302.736   9
  10   0  10 5072.36 818.573   9
  10   0  11 3004.80 742.443   9
  10   0  12 23635.8 1835.70   9
  10   0  13 23863.5 1819.78   9
  10   0  14-459.378 532.716   9
  10   0  15 5750.89 973.501   9
  10   0  16 6702.42 1006.22   9
  10   0  17 4285.84 809.167   9
  10   0  17 5252.86 681.306   1
  10   0  18 224.759 292.431   1
  10   0  19 1008.00 281.778   1
  10   1 -16 94.1588 175.613  10
  10   1 -15 10576.6 918.083  10
  10   1 -14 3918.23 661.483  10
  10   1 -14 3434.46 468.201   5
  10   1 -13 13264.9 1227.84  10
  10   1 -13 11212.3 947.526   5
  10   1 -12 387.123 423.996  10
  10   1 -12 18.4626 220.609   5
  10   1 -12 308.671 270.765   8
  10   1 -11 22549.2 1799.15  10
  10   1 -11 20391.6 1315.65   8
  10   1 -11 19606.0 1406.18   5
  10   1 -10 4879.36 879.206  10
  10   1 -10 4946.65 721.870   5
  10   1 -10 6213.29 779.190   8
  10   1  -9 6721.93 960.371  10
  10   1  -9 8944.06 987.645   5
  10   1  -8-66.8339 470.415  10
  10   1  -8 37.0433 256.967   5
  10   1  -7 5547.18 917.712  10
  10   1  -7 5348.59 780.000   5
  10   1  -6 710.617 424.669  10
  10   1  -6 694.670 290.844   5
  10   1  -5 2283.97 622.287  10
  10   1  -5 1894.42 462.001   5
 -10  -1   5 1713.68 1032.85  12
  10   1  -4 9646.25 1160.44  10
 -10  -1   4 9515.41 2077.99  12
  10   1  -4 9968.09 940.304   5
 -10  -1   3 12474.3 2327.17  12
  10   1  -3 13610.0 1101.86   5
  10   1  -3 13030.9 1318.87  10
 -10  -1   2 30210.5 3558.77  12
  10   1  -2 28890.7 1569.89   5
  10   1  -2 29779.2 1919.37  10
 -10  -1   1 61373.9 4976.95  12
  10   1  -1 55582.3 2153.06   5
  10   1  -1 52979.3 2571.31  10
  10   1   0 414.985 215.487   5
 -10  -1   0 713.032 643.233  12
 -10  -1  -1 12606.3 2229.20  12
  10   1   1 12605.2 1001.78   5
 -10  -1  -2 57265.9 4767.91  12
  10   1   2 55211.2 2117.08   5
 -10  -1  -3 23279.4 3052.95  12
  10   1   3 20096.3 1287.58   5
 -10  -1  -4 47796.4 4420.85  12
  10   1   4 43665.9 1906.02   5
 -10  -1  -5 8463.41 1882.99  12
  10   1   5 8155.31 858.137   5
  10   1   6 1961.08 443.475   5
 -10  -1  -6 2406.71 1058.13  12
  10   1   7 577.429 338.424   5
  10   1   7 564.839 343.693   9
 -10  -1  -7 777.230 756.781  12
  10   1   8 10858.6 1115.76   9
 -10  -1  -8 10667.6 2215.18  12
  10   1   8 9846.02 1013.51   5
  10   1   9 822.588 457.216   9
 -10  -1  -9 48.5508 420.071  12
  10   1   9 757.471 375.762   5
  10   1  10 925.363 425.433   9
  10   1  11 15196.7 1402.09   9
  10   1  12 234.394 438.896   9
  10   1  13 3141.20 766.920   9
  10   1  14 5322.96 953.883   9
  10   1  15-77.9524 502.926   9
  10   1  16 10752.0 1280.51   9
  10   1  17 20039.0 1639.23   9
  10   1  18 1583.62 421.561   1
  10   1  19 22471.0 1133.58   1
  10   2 -16 1087.25 216.328   5
  10   2 -15 4400.39 528.754   5
  10   2 -15 5154.55 624.492  10
  10   2 -14 2676.04 548.234  10
  10   2 -14 2504.38 461.492   5
  10   2 -13 5260.38 778.527  10
  10   2 -13 5248.44 704.446   5
  10   2 -12 8822.76 1078.68  10
  10   2 -12 7826.24 780.738   8
  10   2 -12 8034.11 917.196   5
  10   2 -11 13903.1 1426.41  10
  10   2 -11 12986.9 1020.77   8
  10   2 -11 12373.5 1161.35   5
  10   2 -10 39326.9 2391.15  10
  10   2 -10 32160.0 1898.66   5
  10   2  -9 324.602 566.545  10
  10   2  -9-41.3758 338.750   5
  10   2  -8 12198.0 1412.09  10
  10   2  -8 13343.7 1236.83   5
  10   2  -7 2228.48 667.146  10
  10   2  -7 2326.33 558.142   5
  10   2  -6 19631.6 1703.00  10
  10   2  -6 19944.6 1447.03   5
  10   2  -5 405.085 501.489  10
  10   2  -5 169.606 239.736   5
 -10  -2   5-197.173 493.976  12
  10   2  -4 3352.16 764.119  10
  10   2  -4 3643.71 612.292   5
 -10  -2   4 3758.43 1300.81  12
 -10  -2   3 7428.24 1786.94  12
  10   2  -3 7439.57 844.179   5
  10   2  -3 6959.28 984.541  10
 -10  -2   2 6092.23 1632.78  12
  10   2  -2 5984.28 739.289   5
  10   2  -2 6089.89 906.175  10
  10   2  -1 2997.00 494.395   5
 -10  -2   1 3206.03 1202.77  12
  10   2  -1 2611.67 607.392  10
 -10  -2   0 15344.9 2446.47  12
  10   2   0 15081.7 1153.23   5
 -10  -2  -1 10759.7 2014.30  12
  10   2   1 10823.6 958.682   5
 -10  -2  -2 36894.2 3772.24  12
  10   2   2 36596.1 1784.28   5
 -10  -2  -3 33953.9 3595.85  12
  10   2   3 36929.9 1798.15   5
  10   2   4 241.601 249.624   5
 -10  -2  -4-23.3803 672.010  12
 -10  -2  -5 34120.1 3656.26  12
  10   2   5 33010.9 1716.19   5
  10   2   6-40.1961 250.108   5
 -10  -2  -6 703.414 416.853  12
  10   2   7 83553.4 2915.13   9
 -10  -2  -7 78762.2 5702.64  12
  10   2   7 80885.3 2755.53   5
  10   2   8 410.552 310.000   5
  10   2   8 233.007 297.551   9
 -10  -2  -8 70.3339 551.225  12
  10   2   9 7577.09 975.031   9
 -10  -2  -9 6135.63 1738.21  12
  10   2   9 7975.61 930.376   5
  10   2  10 2611.55 594.001   9
  10   2  10 2112.96 547.591   5
  10   2  11 14417.5 1342.00   9
  10   2  12 7595.28 1028.71   9
  10   2  13 21954.4 1752.32   9
  10   2  14 28816.9 2042.06   9
  10   2  15 7914.29 1117.33   9
  10   2  15 10380.5 835.794   7
  10   2  16-7.30170 386.024   9
  10   2  16 363.230 238.178   7
  10   2  17 38221.8 2273.66   9
  10   2  17 36430.4 1426.69   7
  10   2  18 9753.09 1129.20   9
  10   2  18 10756.7 758.525   7
  10   2  19 8382.10 715.912   1
  10   2  19 6744.28 586.067   7
  10   2  20 8872.35 606.202   7
  10   3 -16 12938.8 733.107   5
  10   3 -15 613.918 231.390   5
  10   3 -14 2972.93 509.222  10
  10   3 -14 3895.60 569.773   5
  10   3 -13-251.717 363.677  10
  10   3 -13 118.324 257.104   5
  10   3 -12 2982.26 607.705  10
  10   3 -12 2740.63 605.140   5
  10   3 -12 2686.57 495.304   8
  10   3 -11 6824.97 897.659   5
  10   3 -11 9186.66 1113.56  10
  10   3 -10 273.805 393.120  10
  10   3 -10-607.809 449.663   5
  10   3  -9 21092.7 1645.06   5
  10   3  -9 17435.3 1617.12  10
  10   3  -8 13867.4 1288.23   5
  10   3  -8 10949.1 1324.80  10
  10   3  -7 3010.63 781.795  10
  10   3  -7 2584.84 596.851   5
  10   3  -6 21906.0 1545.21   5
  10   3  -6 23424.7 1863.20  10
  10   3  -5 3769.24 756.896  10
  10   3  -5 3429.88 605.563   5
 -10  -3   4 8594.64 1944.92  12
  10   3  -4 10222.5 1011.84   5
  10   3  -4 10157.5 1229.52  10
  10   3  -3 1520.99 557.669  10
  10   3  -3 2033.27 533.366   5
 -10  -3   3 910.331 824.547  12
 -10  -3   2 3467.65 1208.33  12
  10   3  -2 4883.12 683.139   5
  10   3  -2 4194.10 750.346  10
  10   3  -1 1013.14 359.487   5
 -10  -3   1 1828.01 896.334  12
 -10  -3   0 13361.1 2216.10  12
  10   3   0 14093.0 1127.96   5
 -10  -3  -1 17891.4 2555.13  12
  10   3   1 20711.4 1356.23   5
 -10  -3  -2 11030.6 1971.61  12
  10   3   2 11849.3 1028.49   5
 -10  -3  -3 41479.0 3886.88  12
  10   3   3 41153.4 1954.51   5
  10   3   4 3534.05 595.176   5
 -10  -3  -4 3905.28 1297.09  12
  10   3   5 2976.90 553.762   5
 -10  -3  -5 3520.48 1172.15  12
  10   3   6-5.70820 228.694   5
 -10  -3  -6 407.630 692.161  12
  10   3   7-64.3901 260.990   5
  10   3   7 231.164 314.436   9
 -10  -3  -7-224.522 421.696  12
  10   3   8 9247.16 1016.05   9
 -10  -3  -8 7897.00 1855.54  12
  10   3   8 10073.1 1021.69   5
  10   3   9 441.023 300.663   5
  10   3   9 1031.30 444.255   9
 -10  -3  -9-67.5488 574.424  12
  10   3  10-91.8416 295.561   5
  10   3  10-215.985 351.803   9
  10   3  11 24620.8 1760.89   9
  10   3  12 28688.4 1903.16   9
  10   3  13 605.473 515.899   9
  10   3  13 606.853 352.927   7
  10   3  14 29103.4 1991.83   9
  10   3  14 26896.1 1409.05   7
  10   3  15 7819.29 1069.87   9
  10   3  15 11808.4 937.124   7
  10   3  16 485.551 418.796   9
  10   3  16 73.4224 248.373   7
  10   3  17 1835.83 689.570   9
  10   3  17 1838.46 394.058   7
  10   3  18-266.115 312.587   9
  10   3  18 120.186 216.902   7
  10   3  19 146.715 192.843   7
  10   3  20 236.148 182.636   7
  10   3  21-55.7370 119.870   7
  10   4 -16 819.948 206.044   5
  10   4 -15 2051.17 394.643   5
  10   4 -14 392.393 277.756   5
  10   4 -13 544.001 321.616   5
  10   4 -12 2466.49 548.937  10
  10   4 -12 3630.07 652.188   5
  10   4 -11 7445.59 934.960   5
  10   4 -11 7246.32 951.414  10
  10   4 -10 11694.5 1148.06   5
  10   4 -10 14867.6 1431.38  10
  10   4  -9 15158.0 1375.94   5
  10   4  -9 13194.4 1351.06  10
  10   4  -8 81652.4 3129.79   5
  10   4  -8 62813.7 3023.74  10
  10   4  -7 11949.9 1202.60   5
  10   4  -7 10312.3 1273.03  10
  10   4  -6 5703.72 1034.52  10
  10   4  -6 6277.73 868.607   5
  10   4  -5 23433.6 1593.24   5
  10   4  -5 22436.8 1779.22  10
  10   4  -4 42.2032 256.048   5
  10   4  -4 371.744 424.981  10
 -10  -4   3 5188.16 1462.45  12
  10   4  -3 5825.72 777.987   5
  10   4  -2 3838.01 649.316   5
 -10  -4   2 4334.31 1412.53  12
  10   4  -1 3821.28 622.316   5
 -10  -4   1 3072.38 1028.27  12
 -10  -4   0 34556.3 3479.44  12
  10   4   0 36488.9 1865.92   5
 -10  -4  -1 48898.9 4060.96  12
  10   4   1 49891.8 2216.27   5
  10   4   2 2435.51 495.547   5
 -10  -4  -2 2147.38 812.609  12
 -10  -4  -3 15983.6 2306.23  12
  10   4   3 17903.6 1329.69   5
  10   4   4 3012.79 606.360   5
 -10  -4  -4 2136.20 908.752  12
  10   4   5 644.474 366.465   5
 -10  -4  -5 437.985 522.462  12
 -10  -4  -6 15832.6 2490.07  12
  10   4   6 18812.5 1383.53   5
  10   4   7 1291.57 441.813   5
  10   4   7 2289.01 490.471   9
  10   4   8 18818.0 1392.65   9
  10   4   8 17904.4 1354.88   5
  10   4   9 10329.3 1083.06   9
  10   4   9 10505.5 1087.02   5
  10   4  10 12979.1 1233.67   9
  10   4  10 9445.64 866.838   7
  10   4  10 12485.4 1236.77   5
  10   4  11 32814.5 1969.10   9
  10   4  11 31966.9 1945.10   5
  10   4  12 30935.2 1987.99   9
  10   4  12 26877.2 1497.54   7
  10   4  13 1012.46 566.488   9
  10   4  13 331.597 370.133   7
  10   4  14 2649.42 687.516   9
  10   4  14 2399.41 503.236   7
  10   4  15 4129.89 773.422   9
  10   4  15 7084.04 790.993   7
  10   4  16 468.313 389.031   9
  10   4  16 698.813 384.217   7
  10   4  17 901.483 541.563   9
  10   4  17 110.598 268.996   7
  10   4  18 4177.51 516.968   7
  10   4  19-107.705 209.070   7
  10   4  20 111.704 192.706   7
  10   4  21 361.419 158.856   7
  10   5 -16 10452.2 670.837   5
  10   5 -15-36.0079 167.132   5
  10   5 -14 2853.38 485.664   5
  10   5 -13 490.472 317.092   5
  10   5 -12 4484.85 712.946   5
  10   5 -11 3414.76 681.030   5
  10   5 -10 2290.18 522.317   5
  10   5  -9-464.001 434.138   5
  10   5  -8 8047.06 1036.48   5
  10   5  -7 34313.8 2032.03   5
  10   5  -6 2104.83 570.898   5
  10   5  -5 25002.2 1685.76   5
  10   5  -4 121882. 3619.39   5
  10   5  -3 330.909 383.642   5
  10   5  -2 57780.1 2433.05   5
  10   5  -1 12048.3 1101.56   5
  10   5   0 15121.8 1218.43   5
  10   5   1 15774.9 1253.13   5
  10   5   2 4111.19 642.349   5
  10   5   3 100.013 281.399   5
  10   5   4 588.381 378.551   5
  10   5   5 47662.6 2182.11   5
  10   5   6 3856.37 666.271   5
  10   5   7 15184.8 1242.63   9
  10   5   7 15464.8 1284.74   5
  10   5   8 5062.61 743.976   5
  10   5   8 5897.23 803.677   9
  10   5   8 5120.09 704.519   7
  10   5   9 8970.88 1010.93   9
  10   5   9 8992.86 879.454   7
  10   5   9 7858.65 956.806   5
  10   5  10 24930.7 1710.82   9
  10   5  10 22347.1 1373.47   7
  10   5  10 25525.7 1691.37   5
  10   5  11 1399.15 493.539   9
  10   5  11 233.436 294.505   7
  10   5  11 1725.41 486.093   5
  10   5  12 9254.19 1138.41   9
  10   5  12 6978.79 803.120   7
  10   5  13 1906.21 615.207   9
  10   5  13 1081.85 465.130   7
  10   5  14 7151.16 1033.32   9
  10   5  14 8305.48 901.805   7
  10   5  15 115.921 349.139   9
  10   5  15-441.864 371.143   7
  10   5  16 3483.51 731.221   9
  10   5  16 5011.84 685.973   7
  10   5  17 2068.92 598.270   9
  10   5  17 2344.19 489.492   7
  10   5  18 3550.27 498.554   7
  10   5  19 1534.79 326.446   7
  10   5  20 2100.85 358.022   7
  10   5  21 2504.64 304.581   7
  10   6 -16 2025.60 289.841   5
  10   6 -15 466.646 186.098   5
  10   6 -14 549.510 258.544   5
  10   6 -13 882.356 379.302   5
  10   6 -12 587.642 377.544   5
  10   6 -11 4516.39 766.945   5
  10   6 -10 8753.45 1027.09   5
  10   6  -9-50.8339 439.832   5
  10   6  -8 8678.23 1120.08   5
  10   6  -7 14354.9 1365.72   5
  10   6  -6 5655.17 882.201   5
  10   6  -5 547.953 366.888   5
  10   6  -4 511.996 423.250   5
  10   6  -3 15842.4 1329.30   5
  10   6  -2 1103.72 429.387   5
  10   6  -1 10742.5 1062.63   5
  10   6   0 1779.86 420.282   5
  10   6   1 24432.8 1556.87   5
  10   6   2 34645.3 1867.59   5
  10   6   3 4536.56 659.363   5
  10   6   4 18113.3 1354.02   5
  10   6   5 35380.4 1902.02   5
  10   6   6 2384.22 491.743   5
  10   6   7 25499.5 1572.47   9
 -10  -6  -7 23981.7 1460.74   4
  10   6   7 26052.7 1653.71   5
  10   6   8 1101.26 436.156   5
  10   6   8 930.042 363.325   9
  10   6   9 5847.05 853.261   9
  10   6   9 7044.31 842.876   7
  10   6   9 5630.34 806.439   5
  10   6  10 437.109 385.409   5
  10   6  10 232.627 345.684   9
  10   6  10 496.647 337.862   7
  10   6  11 3001.37 660.120   9
  10   6  11 2740.37 544.631   7
  10   6  11 2588.52 614.617   5
  10   6  12 7682.04 1063.39   9
  10   6  12 6418.44 765.852   7
  10   6  13 2751.42 693.282   9
  10   6  13 2537.43 495.317   7
  10   6  14 20301.2 1599.52   9
  10   6  14 27718.3 1594.39   7
  10   6  15 2717.90 629.717   9
  10   6  15 3719.97 604.101   7
  10   6  16 21695.9 1608.36   9
  10   6  16 27301.2 1448.38   7
  10   6  17 4084.50 706.858   9
  10   6  17 4945.22 630.137   7
  10   6  18 6053.60 643.651   7
  10   6  19 7532.68 635.761   7
  10   6  20 740.180 242.480   7
  10   6  21 8062.12 491.240   7
  10   7 -15 296.686 171.864   5
  10   7 -14 1809.54 364.071   5
  10   7 -13 691.566 269.282   5
  10   7 -12 6975.33 821.108   5
  10   7 -11 1780.40 489.250   5
  10   7 -10 16742.2 1362.61   5
  10   7  -9 30964.6 1908.16   5
  10   7  -8 1183.62 481.471   5
  10   7  -7 4534.52 850.961   5
  10   7  -6 8630.66 1067.63   5
  10   7  -5 520.246 436.007   5
  10   7  -4 20424.1 1548.59   5
  10   7  -3 1077.72 440.010   5
  10   7  -2 192.144 317.073   5
  10   7  -1 6024.26 779.653   5
  10   7   0 4238.42 667.064   5
  10   7   1 494.286 271.429   5
  10   7   2 9222.29 970.928   5
  10   7   3 15196.5 1240.22   5
  10   7   4 8048.33 900.534   5
 -10  -7  -5 5589.31 714.161   4
  10   7   5 7002.75 841.077   5
  10   7   6 11.4917 286.419   5
  10   7   6 190.316 263.958   9
 -10  -7  -6 457.242 255.926   4
  10   7   7 14818.3 1161.45   9
 -10  -7  -7 12904.1 1095.41   4
  10   7   7 14762.9 1225.99   5
  10   7   8 6517.59 808.964   9
 -10  -7  -8 6473.64 809.259   4
  10   7   8 6425.93 842.044   5
  10   7   9 10936.5 1059.85   9
  10   7   9 11908.4 1085.38   7
  10   7   9 10704.7 1072.09   5
  10   7  10 33446.6 1876.02   9
  10   7  10 34590.2 1775.66   7
  10   7  10 33232.1 1859.36   5
  10   7  11 1453.93 495.620   9
  10   7  11 2365.17 566.946   7
  10   7  12 546.527 399.411   9
  10   7  12 548.048 435.545   7
  10   7  13 448.335 294.752   9
  10   7  13-483.912 539.716   7
  10   7  14 5917.20 908.615   9
  10   7  14 7823.82 879.377   7
  10   7  15 2186.74 556.136   9
  10   7  15 4211.38 711.225   7
  10   7  16 10180.6 1018.32   9
  10   7  16 12731.3 988.044   7
  10   7  17 445.869 330.542   7
  10   7  18 5886.45 615.040   7
  10   7  19 908.839 286.965   7
  10   7  20 234.885 176.908   7
  10   8 -14 7239.58 571.331   5
  10   8 -13 2604.17 414.206   5
  10   8 -12 11168.3 917.646   5
  10   8 -11 21357.0 1344.68   5
  10   8 -10 2986.86 561.991   5
  10   8  -9 14552.3 1238.35   5
  10   8  -8 9011.67 1012.49   5
  10   8  -7 488.428 503.564   5
  10   8  -6 655.944 467.628   5
  10   8  -5 22128.1 1564.34   5
  10   8  -4 12746.0 1203.25   5
  10   8  -3 1323.38 430.605   5
  10   8  -2 13512.1 1174.40   5
  10   8  -1 4157.85 669.657   5
  10   8   0 5443.30 743.282   5
  10   8   1 11082.8 1038.27   5
  10   8   2 4195.17 673.717   5
 -10  -8  -3 6684.23 736.199   4
  10   8   3 7167.41 851.482   5
  10   8   4 148.878 336.763   5
 -10  -8  -4-64.7778 217.244   4
  10   8   5 1753.21 459.771   5
 -10  -8  -5 1616.82 431.100   4
  10   8   6 619.207 339.676   5
 -10  -8  -6 811.930 290.311   4
 -10  -8  -7 8884.99 917.440   4
  10   8   7 9141.52 949.148   5
  10   8   8 1828.49 502.696   5
 -10  -8  -8 1287.40 401.683   4
 -10  -8  -9 19816.8 1403.39   4
  10   8   9 21549.2 1488.88   5
  10   8  10 1950.73 510.623   5
  10   8  10 2523.66 703.609   7
  10   8  11 33205.7 1773.88   7
  10   8  12 13552.7 1143.42   7
  10   8  13 18320.7 1315.95   7
  10   8  14 22559.0 1415.40   7
  10   8  15 3246.61 644.271   7
  10   8  16 4650.67 626.719   7
  10   8  17 248.157 253.460   7
  10   8  18 6600.38 608.090   7
  10   8  19 464.141 231.292   7
  10   8  20 85.6302 141.794   7
  10   9 -13 228.358 155.393   5
  10   9 -12 8423.79 695.449   5
  10   9 -11 5292.87 629.252   5
  10   9 -10-373.942 361.592   5
  10   9  -9-539.351 399.335   5
  10   9  -8 17962.7 1321.85   5
  10   9  -7 12710.9 1142.08   5
  10   9  -6-124.880 300.454   5
  10   9  -5 25218.0 1613.64   5
  10   9  -4 3037.20 584.266   5
  10   9  -3 6882.55 846.288   5
  10   9  -2 5634.70 752.922   5
  10   9  -1 15432.6 1221.76   5
 -10  -9   0 13049.9 1021.17   4
  10   9   0 13242.4 1142.97   5
 -10  -9  -1 4699.69 638.804   4
  10   9   1 5335.83 735.131   5
  10   9   2 4680.89 677.180   5
 -10  -9  -2 4681.19 649.947   4
  10   9   3 2515.96 541.461   5
 -10  -9  -3 2184.39 447.844   4
 -10  -9  -4 17913.7 1238.35   4
  10   9   4 18266.6 1285.35   5
  10   9   5 3483.51 586.720   5
 -10  -9  -5 4068.12 634.235   4
 -10  -9  -6 6124.89 760.210   4
  10   9   6 6531.91 789.162   5
 -10  -9  -7 30850.5 1702.55   4
  10   9   7 33994.6 1766.09   5
 -10  -9  -8 11783.2 1065.42   4
  10   9   8 12633.6 1097.69   5
  10   9   9 2937.33 586.827   5
 -10  -9  -9 2396.77 566.450   4
  10   9  10 12478.5 1099.70   7
  10   9  11 6832.92 863.191   7
  10   9  12 31870.4 1711.18   7
  10   9  13 3634.45 574.432   7
  10   9  14 6950.28 769.783   7
  10   9  15 4288.11 658.533   7
  10   9  16-289.363 346.367   7
  10   9  17 1686.70 375.275   7
  10   9  18 374.725 258.259   7
  10   9  19 870.985 213.688   7
  10  10 -12 6944.04 496.542   5
  10  10 -11 3099.54 405.992   5
  10  10 -10-66.6141 166.490   5
  10  10  -9-79.8831 247.833   5
  10  10  -8 22.8186 352.026   5
  10  10  -7 24101.6 1428.23   5
  10  10  -6 725.846 261.045   5
  10  10  -5 6700.61 783.595   5
  10  10  -4 4690.30 658.233   5
  10  10  -3 8073.70 845.973   5
  10  10  -2 4526.85 668.309   5
 -10 -10   2 5529.42 682.328   4
 -10 -10   1 8556.32 843.057   4
  10  10  -1 7920.78 836.353   5
 -10 -10   0 8961.97 873.390   4
  10  10   0 8904.62 888.995   5
 -10 -10  -1 7625.12 802.221   4
  10  10   1 7613.81 815.202   5
 -10 -10  -2 5774.61 702.995   4
  10  10   2 5267.73 684.105   5
 -10 -10  -3 24147.6 1433.37   4
  10  10   3 24223.6 1425.77   5
 -10 -10  -4 26853.4 1527.42   4
  10  10   4 28135.4 1517.16   5
 -10 -10  -5 8112.16 870.979   4
  10  10   5 8379.82 841.693   5
 -10 -10  -6 7857.39 843.646   4
  10  10   6 8957.73 871.838   5
 -10 -10  -7 13125.0 1124.96   4
  10  10   7 13182.1 1050.99   5
  10  10   8 2623.44 495.558   5
 -10 -10  -8 2424.08 539.068   4
 -10 -10  -9 839.943 371.833   4
  10  10  10 3158.13 708.993   7
  10  10  11 3820.30 673.985   7
  10  10  12 4254.62 673.679   7
  10  10  13 9682.76 847.396   7
  10  10  14-160.275 365.398   7
  10  10  15 9666.46 820.243   7
  10  10  16 8321.66 681.567   7
  10  10  17-21.3193 217.914   7
  10  10  18 6574.78 471.300   7
  10  11 -10 9920.90 591.370   5
  10  11  -9 287.733 169.414   5
  10  11  -8 2710.70 411.175   5
  10  11  -7 3772.25 500.245   5
  10  11  -6 136.875 235.987   5
  10  11  -5 1992.26 420.682   5
  10  11  -4 480.968 253.892   5
  10  11  -3 734.855 314.597   5
 -10 -11   3 926.871 291.340   4
  10  11  -2 2812.07 506.026   5
 -10 -11   2 3181.47 517.295   4
  10  11  -1 577.690 296.391   5
 -10 -11   1-55.2109 291.284   4
 -10 -11   0 9163.22 862.573   4
  10  11   0 9139.77 852.310   5
 -10 -11  -1 7474.78 779.748   4
  10  11   1 7622.76 774.500   5
 -10 -11  -2 83905.7 2626.81   4
  10  11   2 81680.3 2471.35   5
  10  11   3 190.858 207.219   5
 -10 -11  -3 527.371 337.865   4
 -10 -11  -4 52430.5 2084.84   4
  10  11   4 53115.8 1949.02   5
  10  11   5 2665.79 441.269   5
 -10 -11  -5 3005.21 550.139   4
 -10 -11  -6 7137.46 797.653   4
  10  11   6 6871.74 712.120   5
  10  11   7 3086.67 503.155   5
 -10 -11  -7 2851.05 537.629   4
 -10 -11  -8 5894.67 757.358   4
 -10 -11  -9 5657.41 729.918   4
  10  11  10 1763.91 548.424   7
  10  11  11 422.040 396.128   7
  10  11  12 10126.1 855.941   7
  10  11  13 7118.80 677.467   7
  10  11  14-242.334 318.278   7
  10  11  15 2536.32 404.827   7
  10  11  16 3961.98 421.339   7
  10  11  17 6162.95 431.598   7
 -10 -12   4 70.6545 196.281   4
 -10 -12   3-212.594 308.927   4
 -10 -12   2 30.3840 333.295   4
 -10 -12   1 35.9021 237.179   4
 -10 -12   0 15716.0 1066.65   4
 -10 -12  -1 230.645 249.545   4
 -10 -12  -2 16499.6 1117.69   4
 -10 -12  -3 12648.9 980.825   4
 -10 -12  -4 1917.70 427.412   4
 -10 -12  -5 4785.98 626.020   4
 -10 -12  -6 9457.31 883.468   4
 -10 -12  -7 6441.54 730.033   4
 -10 -12  -8 3492.59 545.256   4
 -10 -12  -9-316.360 306.957   4
  10  12   9 1315.83 464.617   7
  10  12  10 5492.60 677.603   7
  10  12  11 2833.71 495.996   7
  10  12  12 14841.1 911.629   7
  10  12  13 7745.99 623.263   7
  10  12  14 387.836 267.472   7
  10  12  15 1549.81 257.787   7
 -10 -12 -15 565.047 174.280  11
 -10 -13   4 5831.77 501.434   4
 -10 -13   3 12943.9 804.984   4
 -10 -13   2 336.886 156.155   4
 -10 -13   1 13652.5 906.613   4
 -10 -13   0 12401.6 880.445   4
 -10 -13  -1 4405.01 547.445   4
 -10 -13  -2 12617.5 909.163   4
 -10 -13  -3 1954.68 395.562   4
 -10 -13  -4 5739.05 630.772   4
 -10 -13  -5 1988.17 396.599   4
 -10 -13  -5 1288.55 288.838  11
 -10 -13  -6 9095.41 780.917   4
 -10 -13  -7 18345.6 1099.22   4
  10  13   8 1505.33 449.776   7
 -10 -13  -8 526.437 257.608   4
  10  13   9 12885.7 865.802   7
  10  13  10 16.9425 219.373   7
  10  13  11 5875.60 521.557   7
  10  13  12 1689.58 300.442   7
 -10 -13 -12 1858.00 339.364  11
  10  13  13 967.468 251.748   7
 -10 -13 -13 286.565 176.439  11
 -10 -14   2 8089.69 568.374   4
 -10 -14   1 392.132 179.269   4
 -10 -14   0 27566.4 1155.58   4
 -10 -14  -1 9369.44 684.262   4
 -10 -14  -2 13841.9 858.114   4
 -10 -14  -3 5100.67 523.333   4
 -10 -14  -4 2137.73 361.075   4
 -10 -14  -5 386.207 208.244   4
 -10 -14  -6 10602.9 738.963   4
 -10 -14  -7 676.710 229.192   4
  10  14   7 968.999 281.853   7
 -10 -14  -7 437.926 204.516  11
  10  14   8 277.735 221.772   7
 -10 -14  -8-36.2714 172.208  11
  10  14   9 1916.96 321.749   7
 -10 -14  -9 1723.95 308.706  11
  10  14  10-315.969 227.624   7
 -10 -14 -10 766.685 222.663  11
  10  14  11 71.5658 122.979   7
 -10 -15  -2 674.607 190.182   4
 -10 -15  -3 10340.7 620.162   4
 -10 -15  -4 5929.98 472.139   4
  10  15   4 5397.41 449.762   7
  10  15   5 1360.52 249.382   7
  10  15   6 1008.87 214.729   7
  11 -10  -1 908.027 223.745   8
  11 -10   0 938.960 250.050   8
  11  -9  -6 1835.71 276.334   8
  11  -9  -5 5016.03 465.102   8
  11  -9  -4 10451.2 704.706   8
  11  -9  -3 577.227 266.668   8
  11  -9  -2 26.3237 230.487   8
  11  -9  -1 1026.64 331.101   8
  11  -9   0 1467.38 389.396   8
  11  -9   1 551.272 272.740   8
  11  -9   2 812.481 287.679   8
  11  -9   3 372.489 219.640   8
  11  -9   4 7548.34 538.637   8
  11  -9   6 172.005 157.936   1
  11  -9   7 9773.96 606.053   1
  11  -9   8-222.195 156.044   1
  11  -8  -8 395.134 181.275   8
  11  -8  -7 19675.9 887.147   8
  11  -8  -6 15049.2 851.228   8
  11  -8  -5 2096.19 432.216   8
  11  -8  -4 3258.07 521.787   8
  11  -8  -3 2628.73 478.779   8
  11  -8  -2 522.741 307.994   8
  11  -8  -1-69.0441 437.124   8
  11  -8   0 1381.75 383.514   8
  11  -8   1 2552.35 516.499   8
  11  -8   2 5891.09 640.764   8
  11  -8   3 149.436 278.287   8
  11  -8   4 7318.10 667.432   8
  11  -8   5 1895.41 345.229   1
  11  -8   6 511.677 253.848   1
  11  -8   7 236.429 275.529   1
  11  -8   8 5349.90 571.491   1
  11  -8   9 5099.54 563.678   1
  11  -8  10 31.1580 224.434   1
  11  -8  11 11756.1 729.987   1
  11  -8  12 3516.93 375.939   1
  11  -7  -9 9112.55 571.700   8
  11  -7  -8 547.463 257.448   8
  11  -7  -7 710.938 293.197   8
  11  -7  -6 17197.4 1034.86   8
  11  -7  -5 4757.40 615.274   8
  11  -7  -4 1875.55 468.524   8
  11  -7  -3 7715.25 794.209   8
  11  -7  -2 1560.09 500.565   8
  11  -7  -1 14116.1 1154.43   8
  11  -7   0 3830.18 679.289   8
  11  -7   1 9771.45 928.078   8
  11  -7   2 14819.7 1093.71   8
  11  -7   3 980.408 377.561   8
  11  -7   4 21666.9 1156.98   8
  11  -7   4 6533.77 650.169   1
  11  -7   5 5164.13 608.558   8
  11  -7   5 5330.49 610.127   1
  11  -7   6 2936.35 531.153   1
  11  -7   7 2591.61 502.373   1
  11  -7   8 511.662 307.587   1
  11  -7   9 4746.34 627.221   1
  11  -7  10 954.992 370.428   1
  11  -7  11 8781.73 792.456   1
  11  -7  12 10739.0 786.104   1
  11  -7  13 4267.28 455.679   1
  11  -7  14 8631.62 545.828   1
  11  -6 -10 404.535 194.136   8
  11  -6  -9 6868.77 591.036   8
  11  -6  -8 5165.13 578.895   8
  11  -6  -7 3200.11 491.414   8
  11  -6  -6 2053.60 506.971   8
  11  -6  -5 7138.33 860.727   8
  11  -6  -4 536.411 460.740   8
  11  -6  -3 728.106 395.293   8
  11  -6  -2 1814.93 538.009   8
  11  -6  -1 7329.07 877.566   8
  11  -6   0 915.525 510.175   8
  11  -6   1 1618.32 519.181   8
  11  -6   2 5275.22 735.024   8
  11  -6   3 15591.0 1127.43   8
  11  -6   4 8724.05 836.193   8
  11  -6   4 8229.76 796.030   1
  11  -6   5 8707.25 770.692   8
  11  -6   5 8242.87 836.226   1
  11  -6   6 58535.9 2150.07   1
  11  -6   7-90.9250 366.359   1
  11  -6   8 13638.2 1131.81   1
  11  -6   9 3165.04 615.818   1
  11  -6  10 1515.95 484.123   1
  11  -6  11 3081.45 590.968   1
  11  -6  12 1254.32 396.609   1
  11  -6  13 8.70248 231.180   1
  11  -6  14 2402.60 384.927   1
  11  -6  15 521.931 187.136   1
  11  -5 -11 2769.77 348.874   8
  11  -5 -10 4874.09 499.396   8
  11  -5 -10 3025.56 464.076  10
  11  -5  -9 66.4897 226.346   8
  11  -5  -9-845.956 383.689  10
  11  -5  -8 4605.68 604.242   8
  11  -5  -8 3554.36 558.432  10
  11  -5  -7 2634.27 524.847   8
  11  -5  -7 1500.24 440.744  10
  11  -5  -6 8790.86 906.169   8
  11  -5  -5 8559.52 958.226   8
  11  -5  -4 1881.47 617.352   8
  11  -5  -3 2080.50 535.492   8
  11  -5  -2 14057.5 1235.25   8
  11  -5  -1 13193.6 1183.41   8
  11  -5   0 71.5072 390.010   8
  11  -5   1 1853.45 508.306   8
  11  -5   2 1616.00 562.363   8
  11  -5   3 7875.80 908.546   8
  11  -5   4 40022.2 1747.87   8
  11  -5   4 39408.9 1767.32   1
  11  -5   5 1174.21 388.032   8
  11  -5   5 1085.92 434.535   1
  11  -5   6 33083.1 1735.81   1
  11  -5   7 23062.6 1507.38   1
  11  -5   8 3648.05 659.037   1
  11  -5   9 3016.95 606.657   1
  11  -5  10-350.495 405.119   1
  11  -5  11 6932.76 796.062   1
  11  -5  12-758.324 417.186   1
  11  -5  13 5926.99 707.451   1
  11  -5  14 1782.85 399.377   1
  11  -5  15 4895.87 519.918   1
  11  -5  16 1086.66 246.841   1
  11  -4 -13 1437.10 291.363  10
  11  -4 -12 3664.54 508.190  10
  11  -4 -11 1076.91 349.051  10
  11  -4 -11 1074.46 295.949   8
  11  -4 -10 2463.29 495.402  10
  11  -4 -10 4083.48 509.821   8
  11  -4  -9-545.374 403.937  10
  11  -4  -9 838.897 352.225   8
  11  -4  -8 12588.3 989.275   8
  11  -4  -8 10047.8 1056.25  10
  11  -4  -7 14452.1 1091.70   8
  11  -4  -7 13324.2 1233.82  10
  11  -4  -6 292.880 313.060  10
  11  -4  -6 9.53822 382.752   8
  11  -4  -5 21390.9 1472.75   8
  11  -4  -5 20688.5 1476.38  10
  11  -4  -4 3537.51 767.122   8
  11  -4  -3 3849.78 651.635   8
  11  -4  -2-1234.12 687.553   8
  11  -4  -1 1413.45 450.270   8
  11  -4   0 76.5374 474.864   8
  11  -4   1 10433.1 1042.40   8
  11  -4   2-79.3417 424.269   8
  11  -4   3 14484.5 1195.42   8
  11  -4   4 21206.0 1346.08   8
  11  -4   4 19629.1 1314.84   1
  11  -4   5 387.132 324.918   1
  11  -4   6 115.464 318.779   1
  11  -4   7 1026.14 428.485   1
  11  -4   8 275.786 378.625   1
  11  -4   9 7500.91 939.621   1
  11  -4  10 2029.86 511.920   1
  11  -4  11 725.721 443.384   1
  11  -4  12 14592.5 1160.41   1
  11  -4  13 8919.59 892.814   1
  11  -4  14-146.600 296.756   1
  11  -4  15 14302.1 958.908   1
  11  -4  16 13547.7 832.641   1
  11  -4  17 5533.58 473.374   1
  11  -3 -14 327.821 172.964  10
  11  -3 -13 2207.50 392.973  10
  11  -3 -12 2559.73 485.815  10
  11  -3 -12 1737.80 299.550   8
  11  -3 -11 4529.58 708.433  10
  11  -3 -11 2988.29 453.262   8
  11  -3 -10 3032.85 595.403  10
  11  -3 -10 3490.54 512.928   8
  11  -3  -9-243.426 469.862  10
  11  -3  -9 116.890 310.398   8
  11  -3  -8 1757.51 485.739  10
  11  -3  -8 1680.97 447.699   8
  11  -3  -7 5039.55 740.055   8
  11  -3  -7 5949.56 893.501  10
  11  -3  -6 3714.52 724.705  10
  11  -3  -6 2532.11 594.931   8
  11  -3  -5 15.1302 405.807  10
  11  -3  -5 93.2872 413.568   8
  11  -3  -4 2530.31 595.282  10
  11  -3  -4 1341.17 514.368   8
  11  -3  -3 21876.8 1581.85   8
  11  -3  -3 23121.0 1622.47  10
  11  -3  -2 7124.77 1003.66   8
  11  -3  -1 33368.5 1992.71   8
  11  -3   0 264.198 513.431   8
  11  -3   1 70073.7 2757.94   8
  11  -3   2 51209.8 2228.63   8
  11  -3   3 25.7921 329.211   8
  11  -3   4 10779.1 1000.14   8
  11  -3   4 10596.1 1032.34   1
  11  -3   5 5331.07 777.837   1
  11  -3   6 2477.19 607.818   1
  11  -3   6 3154.06 576.555   9
  11  -3   7 2997.48 565.931   9
  11  -3   7 2510.26 623.677   1
  11  -3   8 599.936 389.190   9
  11  -3   8 256.661 422.338   1
  11  -3   9 6837.24 979.793   1
  11  -3   9 6917.73 879.881   9
  11  -3  10-266.049 330.717   9
  11  -3  10 19.4096 431.313   1
  11  -3  11 3605.69 752.116   1
  11  -3  11 1483.97 450.133   9
  11  -3  12 2621.66 596.525   9
  11  -3  12 5893.83 843.762   1
  11  -3  13 9747.40 1043.68   9
  11  -3  13 14434.7 1177.20   1
  11  -3  14 843.914 368.306   9
  11  -3  14-303.603 348.585   1
  11  -3  15 367.594 346.149   1
  11  -3  16 6467.72 660.251   1
  11  -3  17 12369.7 790.708   1
  11  -3  18 1268.31 251.977   1
  11  -2 -14 8.61243 204.884  10
  11  -2 -13 3047.36 516.938  10
  11  -2 -12 725.162 368.064  10
  11  -2 -12 599.579 225.455   8
  11  -2 -11 4990.38 772.828  10
  11  -2 -11 4476.75 515.786   8
  11  -2 -10 11115.2 1161.48  10
  11  -2 -10 10556.2 878.020   8
  11  -2  -9 1286.61 453.434  10
  11  -2  -9 2865.10 574.659   8
  11  -2  -8 4006.37 728.517  10
  11  -2  -8 4526.59 685.474   8
  11  -2  -7 5243.25 925.268  10
  11  -2  -7 4943.84 759.695   8
  11  -2  -6 12693.5 1152.07   8
  11  -2  -6 12429.8 1354.96  10
  11  -2  -5 1084.42 479.803  10
  11  -2  -5 662.556 496.701   8
  11  -2  -4 2415.77 618.178  10
  11  -2  -4 3166.48 758.697   8
  11  -2  -3 15586.3 1348.21   8
  11  -2  -3 16118.2 1429.00  10
  11  -2  -2 4577.75 845.681   8
  11  -2  -2 4094.79 711.579  10
  11  -2  -1 55362.1 2520.38   8
  11  -2   0 46731.4 2272.98   8
  11  -2   1 8889.65 1022.28   8
  11  -2   2 22212.6 1519.67   8
  11  -2   3 19123.1 1340.01   8
  11  -2   4 8.14488 302.331   1
  11  -2   4 170.141 317.790   9
  11  -2   4-211.867 291.281   8
  11  -2   5 18191.1 1403.98   1
  11  -2   5 18966.9 1314.92   9
  11  -2   6 25186.0 1699.65   1
  11  -2   6 26656.2 1584.47   9
  11  -2   7 586.190 304.304   9
  11  -2   7 79.4170 397.087   1
  11  -2   8 15182.3 1288.76   9
  11  -2   8 12099.8 1242.79   1
  11  -2   9 80.8979 274.406   9
  11  -2   9 299.778 463.804   1
  11  -2  10 20744.0 1565.67   9
  11  -2  10 21999.3 1731.17   1
  11  -2  11 204.701 374.085   9
  11  -2  11 86.5639 429.488   1
  11  -2  12 200.554 302.219   9
  11  -2  12 485.651 452.387   1
  11  -2  13 1139.32 449.055   9
  11  -2  13 2990.22 651.539   1
  11  -2  14 2236.94 592.366   9
  11  -2  14 3167.11 622.780   1
  11  -2  15 1477.02 472.516   9
  11  -2  15 1933.24 485.410   1
  11  -2  16 3654.11 550.703   1
  11  -2  17 14162.5 892.057   1
  11  -2  18 640.420 219.948   1
  11  -1 -15 659.509 204.249  10
  11  -1 -14 160.881 202.977  10
  11  -1 -13 965.538 355.816  10
  11  -1 -12 3242.12 619.414  10
  11  -1 -12 2137.67 362.053   8
  11  -1 -11 927.175 415.973  10
  11  -1 -11 951.013 364.026   8
  11  -1 -10-127.006 409.319  10
  11  -1 -10 307.241 370.377   8
  11  -1  -9 29571.7 2046.91  10
  11  -1  -9 35216.7 1684.88   8
  11  -1  -8 1882.84 626.593  10
  11  -1  -8 2324.69 547.717   8
  11  -1  -7 32900.0 1791.59   8
  11  -1  -7 35420.7 2273.76  10
  11  -1  -6 45094.8 2128.84   8
  11  -1  -6 47019.3 2548.22  10
  11  -1  -5 2965.95 740.061  10
  11  -1  -5 3457.65 700.841   8
  11  -1  -4 18350.5 1504.78   8
  11  -1  -4 18588.4 1558.00  10
  11  -1  -3 381.128 391.558  10
  11  -1  -3 572.883 470.767   8
  11  -1  -2 1417.44 469.758   8
  11  -1  -2 2143.99 565.452  10
  11  -1  -1 18743.3 1486.57   8
  11  -1   0 84.9555 446.086   8
  11  -1   1 2349.54 578.241   8
  11  -1   2 175.130 357.471   8
  11  -1   3 26380.1 1628.55   8
  11  -1   4 8523.06 901.404   8
  11  -1   5 1905.38 468.414   9
  11  -1   6 47555.4 2153.97   9
  11  -1   7 6146.80 826.031   9
  11  -1   8 65159.3 2651.19   9
  11  -1   9 3605.85 659.155   9
  11  -1  10 42209.3 2243.71   9
  11  -1  11 3089.57 684.321   9
  11  -1  12 5293.37 884.544   9
  11  -1  13 7903.25 988.918   1
  11  -1  13 3486.70 684.716   9
  11  -1  14 11461.2 1210.82   9
  11  -1  14 17621.6 1305.54   1
  11  -1  15 7282.03 847.432   1
  11  -1  15 6676.03 954.280   9
  11  -1  16 3407.28 682.784   9
  11  -1  16 3097.75 552.753   1
  11  -1  17 13817.5 943.010   1
  11  -1  18 6750.21 588.589   1
  11  -1  19 1345.74 267.244   1
  11   0 -14 497.623 247.551  10
  11   0 -13 12989.7 1102.32  10
  11   0 -12 15800.6 935.774   8
  11   0 -12 16119.4 1319.47  10
  11   0 -11 5933.34 887.601  10
  11   0 -11 4938.50 625.678   8
  11   0 -10 23613.7 1338.20   8
  11   0 -10 23481.2 1798.91  10
  11   0  -9 3723.87 717.924  10
  11   0  -9 5049.19 692.683   8
  11   0  -8 27425.7 2000.46  10
  11   0  -8 30775.4 1652.78   8
  11   0  -7 2087.90 718.061  10
  11   0  -7 1445.90 498.494   8
  11   0  -6 18942.9 1439.34   8
  11   0  -6 20834.9 1809.39  10
  11   0  -5 4312.55 903.977  10
  11   0  -5 4445.69 808.112   8
  11   0  -4 618.286 457.601  10
  11   0  -4 1387.68 646.351   8
  11   0  -3 3141.87 686.999  10
  11   0  -3 2788.31 682.811   8
  11   0  -2-65.5136 475.561   8
  11   0  -2-276.742 380.029  10
  11   0  -1 4564.49 709.591   8
  11   0   0 326.921 399.831   8
  11   0   1 2767.90 584.429   8
  11   0   2 10876.9 1054.26   8
  11   0   3 3653.40 631.918   8
  11   0   4 15263.7 1155.38   8
  11   0   6-232.288 361.758   9
  11   0   7 11051.9 1109.82   9
  11   0   8 302.542 368.336   9
  11   0   9 399.064 341.682   9
  11   0  10 136.446 381.281   9
  11   0  11 12978.9 1334.32   9
  11   0  12 8563.03 1150.16   9
  11   0  13 748.098 472.483   9
  11   0  14 12062.7 1289.57   9
  11   0  15 10876.6 1218.27   9
  11   0  15 14460.3 1154.88   1
  11   0  16 1424.93 583.991   9
  11   0  16 1343.63 425.342   1
  11   0  17 547.125 398.888   9
  11   0  17 305.396 310.878   1
  11   0  18 2251.40 401.026   1
  11   0  19 39.8612 169.213   1
  11   1 -14 629.605 269.833  10
  11   1 -13 12059.4 1031.16  10
  11   1 -12-184.965 397.205  10
  11   1 -12-392.429 291.958   8
  11   1 -11 5596.61 857.906  10
  11   1 -11 5371.43 637.490   8
  11   1 -11 4811.23 603.215   5
  11   1 -10 134.704 411.277  10
  11   1 -10-426.279 329.057   5
  11   1  -9 871.521 493.369  10
  11   1  -9 508.163 224.968   5
  11   1  -9 1112.10 421.473   8
  11   1  -8 5150.91 975.172  10
  11   1  -8 7070.03 859.470   8
  11   1  -8 5933.01 762.021   5
  11   1  -7 2427.23 760.091  10
  11   1  -7 2171.21 543.216   5
  11   1  -7 1802.78 518.596   8
  11   1  -6 2939.61 773.453  10
  11   1  -6 2633.32 507.182   5
  11   1  -5 1186.29 619.298  10
  11   1  -5 1225.79 340.160   5
  11   1  -4 53917.2 2197.36   5
  11   1  -4 54571.5 2786.45  10
  11   1  -3 5091.59 864.103  10
  11   1  -3 4499.33 647.048   5
  11   1  -2 65499.3 2360.65   5
  11   1  -2 64534.4 2894.35  10
  11   1  -1 10126.4 928.084   5
  11   1   0 3075.97 499.253   5
 -11  -1  -1 9039.43 2018.17  12
  11   1   1 9113.17 878.617   5
  11   1   2 365.944 275.114   5
 -11  -1  -2 114.441 567.665  12
  11   1   3 1691.49 431.618   5
  11   1   3 1098.46 397.132   8
 -11  -1  -3 663.102 489.044  12
 -11  -1  -4 11547.2 2240.68  12
  11   1   4 9982.69 930.391   5
  11   1   5 1411.63 405.245   5
  11   1   6 239.630 241.419   5
  11   1   6 157.399 346.269   9
  11   1   7 472.850 316.325   5
  11   1   7 369.323 334.604   9
  11   1   8 1556.70 473.443   5
  11   1   8 1044.64 413.400   9
  11   1   9 2755.61 666.089   9
  11   1  10 5359.97 833.811   9
  11   1  11 2532.19 610.337   9
  11   1  12 11525.8 1327.52   9
  11   1  13 18164.3 1602.01   9
  11   1  14-361.741 507.346   9
  11   1  15 3527.06 762.671   9
  11   1  16 8313.55 1087.05   9
  11   1  17 655.525 394.545   9
  11   1  17 876.265 373.987   1
  11   1  18 3048.04 475.564   1
  11   1  19 968.789 284.197   1
  11   2 -14 1370.42 257.080   5
  11   2 -13 18325.6 1032.10   5
  11   2 -13 19926.7 1302.39  10
  11   2 -12 2948.75 584.891  10
  11   2 -12 3258.97 508.627   5
  11   2 -12 2862.01 464.627   8
  11   2 -11 12951.9 965.439   8
  11   2 -11 12523.5 1039.87   5
  11   2 -11 13549.7 1304.75  10
  11   2 -10 598.103 356.938  10
  11   2 -10 298.858 283.994   5
  11   2 -10 521.961 333.905   8
  11   2  -9 4778.20 811.975  10
  11   2  -9 7016.38 806.366   8
  11   2  -9 6490.02 799.178   5
  11   2  -8 1771.04 524.791  10
  11   2  -8 3158.89 603.994   5
  11   2  -7 20257.9 1464.84   5
  11   2  -7 19004.8 1725.05  10
  11   2  -6 11297.5 1097.14   5
  11   2  -6 11089.4 1400.42  10
  11   2  -5 803.304 598.115  10
  11   2  -5 360.878 319.114   5
  11   2  -4 49296.1 2199.96   5
  11   2  -4 49712.3 2650.66  10
  11   2  -3 71509.6 2588.35   5
  11   2  -3 66185.2 3086.88  10
  11   2  -2 1453.76 380.106   5
  11   2  -1 18241.5 1264.09   5
  11   2   0 2139.09 461.074   5
 -11  -2   0 2131.47 911.087  12
  11   2   1 1957.94 455.369   5
 -11  -2  -1 2674.03 1145.35  12
 -11  -2  -2 8756.34 1852.93  12
  11   2   2 10579.4 982.845   5
 -11  -2  -3 7246.73 1768.93  12
  11   2   3 6907.64 783.357   5
 -11  -2  -4 3918.60 1288.49  12
  11   2   4 5324.68 690.708   5
 -11  -2  -5 15227.6 2547.75  12
  11   2   5 15570.5 1190.96   5
  11   2   6 214.867 244.370   5
  11   2   7 24954.5 1645.80   9
  11   2   7 22722.3 1484.80   5
  11   2   8 3174.55 605.583   5
  11   2   8 3757.35 695.641   9
  11   2   9 25847.8 1724.06   9
  11   2   9 24227.0 1608.67   5
  11   2  10 1954.44 563.224   9
  11   2  11 8528.52 1074.79   9
  11   2  12 284.540 406.139   9
  11   2  13 14601.7 1510.66   9
  11   2  14 23094.4 1785.45   9
  11   2  15-488.384 525.779   9
  11   2  16 31471.7 2015.30   9
  11   2  17 21789.4 1620.51   9
  11   2  18 5257.88 605.310   1
  11   2  19 10036.3 684.003   1
  11   3 -14 267.100 179.982   5
  11   3 -13 1082.36 318.738   5
  11   3 -12-63.8094 279.423   5
  11   3 -12 385.517 256.865   8
  11   3 -11 2625.86 552.492   5
  11   3 -11 2609.33 456.212   8
  11   3 -11 2652.13 573.306  10
  11   3 -10 2732.68 600.346  10
  11   3 -10 3238.23 581.888   5
  11   3  -9-369.976 654.972  10
  11   3  -9 167.474 260.462   5
  11   3  -8-659.751 679.180  10
  11   3  -8 8.55651 326.681   5
  11   3  -7 25038.4 1690.43   5
  11   3  -7 22253.4 1847.14  10
  11   3  -6 41101.0 2101.81   5
  11   3  -6 40505.1 2439.39  10
  11   3  -5 435.699 392.377   5
  11   3  -5 1002.05 531.004  10
  11   3  -4 27671.2 1668.46   5
  11   3  -3-194.967 343.189   5
  11   3  -2 9027.32 934.672   5
  11   3  -1 2357.12 441.179   5
  11   3   0 3060.78 543.003   5
 -11  -3   0 4328.35 1468.13  12
  11   3   1 992.381 323.651   5
 -11  -3  -1 1040.52 840.821  12
  11   3   2 3953.57 598.576   5
 -11  -3  -2 3520.57 1265.06  12
  11   3   3 2858.27 573.533   5
 -11  -3  -3 3205.72 1178.37  12
 -11  -3  -4 21705.7 2990.78  12
  11   3   4 25337.5 1535.09   5
 -11  -3  -5 9391.26 1984.56  12
  11   3   5 10869.4 1027.19   5
  11   3   6 2061.71 485.768   5
  11   3   7 18572.5 1439.54   9
  11   3   7 17427.6 1334.94   5
  11   3   8 2631.14 606.285   5
  11   3   8 3208.53 666.934   9
  11   3   9 442.226 334.764   5
  11   3   9 226.706 372.753   9
  11   3  10 12278.9 1295.44   9
  11   3  10 12051.1 1195.20   5
  11   3  11 6138.82 938.647   9
  11   3  12 1159.92 477.024   9
  11   3  13 14959.5 1500.15   9
  11   3  14 14101.1 1449.18   9
  11   3  15-443.403 518.868   9
  11   3  16 7680.17 1120.44   9
  11   3  17 13803.9 1329.76   9
  11   3  19 1878.63 356.518   1
  11   4 -15 673.035 171.971   5
  11   4 -14 2491.09 364.171   5
  11   4 -13 5190.58 599.260   5
  11   4 -12 71.4507 237.797   5
  11   4 -12 451.135 228.160   8
  11   4 -11 7943.51 857.986   5
  11   4 -10 865.459 378.971   5
  11   4  -9 28808.5 1798.90   5
  11   4  -8 13099.9 1249.78   5
  11   4  -7 4568.83 796.938   5
  11   4  -6 32356.4 1944.63   5
  11   4  -5 5791.12 832.643   5
  11   4  -4 7117.50 908.019   5
  11   4  -3 103.108 347.597   5
  11   4  -2 7974.24 908.131   5
  11   4  -1 6495.67 795.092   5
  11   4   0 1881.59 431.136   5
  11   4   1-271.056 293.051   5
  11   4   2 2057.97 509.937   5
  11   4   3 604.997 384.217   5
  11   4   4 12203.3 1100.55   5
  11   4   5 25741.5 1625.33   5
  11   4   6 616.446 297.170   5
  11   4   7 16184.9 1342.55   9
  11   4   7 16501.2 1317.50   5
  11   4   8 596.752 368.845   5
  11   4   8 113.039 323.803   9
  11   4   9 12580.9 1225.95   9
  11   4   9 12609.9 1174.48   5
  11   4  10 757.235 421.325   5
  11   4  10 586.302 404.695   9
  11   4  11 34566.9 2055.22   9
  11   4  12 15627.3 1470.07   9
  11   4  13 27985.3 1990.33   9
  11   4  14 4307.24 847.782   9
  11   4  14 3576.01 521.436   7
  11   4  15 339.872 409.846   9
  11   4  15 575.097 274.832   7
  11   4  16 786.528 436.348   9
  11   4  16 257.285 244.759   7
  11   4  17 707.225 464.802   9
  11   4  17 107.804 210.961   7
  11   4  18 205.988 191.620   7
  11   4  19 425.311 248.153   1
  11   4  19-123.660 138.768   7
  11   5 -15 223.424 112.511   5
  11   5 -14 1114.70 272.990   5
  11   5 -13 1654.52 357.619   5
  11   5 -12-109.397 235.789   5
  11   5 -12-79.1246 214.778   8
  11   5 -11 11604.0 1028.67   5
  11   5 -10 12649.5 1128.74   5
  11   5  -9 3885.70 639.329   5
  11   5  -8 34361.2 2012.52   5
  11   5  -7 4983.73 832.544   5
  11   5  -6 18127.8 1468.52   5
  11   5  -5 22953.5 1612.14   5
  11   5  -4 5708.22 814.547   5
  11   5  -3 3925.99 702.109   5
  11   5  -2 1176.06 331.656   5
  11   5  -1 6627.70 786.863   5
  11   5   0 2598.43 518.740   5
  11   5   1 412.147 316.332   5
  11   5   2 6497.82 823.611   5
  11   5   3 3771.22 651.152   5
  11   5   4 4105.55 677.520   5
  11   5   5 2117.89 478.480   5
  11   5   6 21344.5 1496.73   5
  11   5   7 10569.2 1045.70   9
  11   5   7 9654.11 1013.95   5
  11   5   8 833.636 366.083   5
  11   5   8 1490.62 487.515   9
  11   5   9 9135.05 1049.61   9
  11   5   9 10313.6 1123.06   5
  11   5  10 20148.7 1571.19   9
  11   5  10 20989.6 1564.66   5
  11   5  11 1224.72 506.842   9
  11   5  11 131.860 264.244   7
  11   5  12 14457.2 1361.61   9
  11   5  12 12914.4 990.614   7
  11   5  13 1781.27 606.168   9
  11   5  13 1411.75 396.764   7
  11   5  14 14225.2 1343.92   9
  11   5  14 16542.0 1074.40   7
  11   5  15 1099.04 480.886   9
  11   5  15 1398.84 391.125   7
  11   5  16 5278.91 859.252   9
  11   5  16 5783.09 598.064   7
  11   5  17 410.003 362.182   9
  11   5  17 68.3275 221.457   7
  11   5  18 1285.21 284.911   7
  11   5  19 257.967 170.270   7
  11   6 -14 5205.31 504.456   5
  11   6 -13 828.625 255.786   5
  11   6 -12 903.296 343.323   5
  11   6 -11 7321.48 821.492   5
  11   6 -10 157.894 300.737   5
  11   6  -9-302.215 440.543   5
  11   6  -8 373.226 323.819   5
  11   6  -7 22367.0 1654.11   5
  11   6  -6 1816.68 634.103   5
  11   6  -5 21538.9 1632.44   5
  11   6  -4 9511.92 1055.23   5
  11   6  -3-581.894 401.563   5
  11   6  -2 12759.6 1169.05   5
  11   6  -1 5067.72 731.449   5
  11   6   0 2614.73 546.506   5
  11   6   1 19543.7 1403.54   5
  11   6   2 6313.59 822.038   5
  11   6   3 38482.7 1998.27   5
  11   6   4 31260.4 1783.04   5
  11   6   5 3492.12 644.031   5
  11   6   6 20227.8 1409.34   9
  11   6   6 21677.7 1497.19   5
  11   6   7 41518.3 2015.74   9
  11   6   7 42471.9 2126.43   5
  11   6   8 12744.9 1149.80   9
  11   6   8 12820.3 1016.09   7
  11   6   8 12906.7 1229.07   5
  11   6   9 668.759 438.916   5
  11   6   9 575.414 405.121   9
  11   6   9 8.50562 308.197   7
  11   6  10 8432.63 1011.69   9
  11   6  10 8800.25 850.982   7
  11   6  10 11333.8 1149.77   5
  11   6  11-105.026 371.848   9
  11   6  11-563.733 486.775   7
  11   6  12-183.829 317.309   9
  11   6  12 149.213 287.104   7
  11   6  13 11066.3 1195.52   9
  11   6  13 11439.1 966.183   7
  11   6  14 13471.2 1232.36   9
  11   6  14 17758.3 1103.88   7
  11   6  15 2269.86 563.728   9
  11   6  15 2989.45 512.021   7
  11   6  16 19657.0 1427.76   9
  11   6  16 21791.6 1129.11   7
  11   6  17-1.92527 208.105   7
  11   6  18 12604.0 743.061   7
  11   6  19 835.901 220.450   7
  11   7 -14 300.225 136.714   5
  11   7 -13 4671.65 505.296   5
  11   7 -12 3177.10 477.967   5
  11   7 -11 552.154 279.457   5
  11   7 -10 8458.25 903.727   5
  11   7  -9 1009.02 325.833   5
  11   7  -8 13069.5 1259.00   5
  11   7  -7 5936.64 891.832   5
  11   7  -6 3596.33 743.144   5
  11   7  -5 9083.52 1048.07   5
  11   7  -4-281.943 394.816   5
  11   7  -3 53.2657 347.988   5
  11   7  -2 4237.26 683.462   5
  11   7  -1 3061.16 573.293   5
  11   7   0 1469.74 438.410   5
  11   7   1 35217.4 1899.47   5
  11   7   2 48460.7 2218.61   5
  11   7   3 15579.0 1273.52   5
  11   7   4 155959. 3945.30   5
  11   7   5 3487.90 626.240   5
  11   7   5 4428.27 691.957   9
  11   7   6 12095.8 1052.94   9
  11   7   6 11688.5 1090.15   5
  11   7   7 39407.8 1908.80   9
  11   7   7 38827.8 2017.52   5
  11   7   8 3459.12 662.455   5
  11   7   8 3127.96 587.167   9
  11   7   8 4338.74 643.558   7
  11   7   9 2347.72 555.882   5
  11   7   9 2074.09 488.959   9
  11   7   9 2607.03 538.314   7
  11   7  10 521.324 402.567   5
  11   7  10 58.8078 281.278   9
  11   7  10 58.8044 310.344   7
  11   7  11 1428.29 532.083   9
  11   7  11 272.352 298.560   7
  11   7  12 6914.07 934.498   9
  11   7  12 3746.65 518.055   7
  11   7  13 412.415 286.573   9
  11   7  13 1069.36 394.837   7
  11   7  14 5493.19 785.139   9
  11   7  14 8399.56 812.855   7
  11   7  15 4537.92 705.132   9
  11   7  15 5944.98 652.841   7
  11   7  16 17008.2 1175.00   9
  11   7  16 19429.9 1072.66   7
  11   7  17 260.233 208.698   7
  11   7  18 22473.0 949.992   7
  11   7  19 409.276 182.439   7
  11   8 -13 729.321 206.918   5
  11   8 -12 13549.4 838.659   5
  11   8 -11 4048.55 569.508   5
  11   8 -10 9679.13 885.022   5
  11   8  -9 7139.69 801.716   5
  11   8  -8 3369.37 557.581   5
  11   8  -7 685.435 329.768   5
  11   8  -6 612.855 318.628   5
  11   8  -5 255.388 322.561   5
  11   8  -4 3156.08 587.852   5
  11   8  -3 6522.36 824.005   5
  11   8  -2 408.015 308.772   5
  11   8  -1 14100.7 1183.35   5
  11   8   0 261.243 287.797   5
  11   8   1 9257.85 968.250   5
  11   8   2 3156.99 606.606   5
  11   8   3 4269.36 681.106   5
  11   8   4 1118.69 447.653   5
  11   8   4 824.055 370.335   9
  11   8   5 8039.96 825.802   9
 -11  -8  -5 8360.37 839.407   4
  11   8   5 8708.05 908.580   5
  11   8   6 6045.34 717.132   9
 -11  -8  -6 6509.50 762.997   4
  11   8   6 6698.34 807.167   5
  11   8   7 496.526 336.517   5
  11   8   7 100.788 235.620   9
 -11  -8  -7 53.1143 218.658   4
  11   8   8 30196.3 1625.56   9
  11   8   8 33093.3 1777.79   5
  11   8   9 1928.37 472.946   5
  11   8   9 1311.05 389.169   9
  11   8   9 2135.35 558.103   7
  11   8  10 16679.1 1303.42   9
  11   8  10 18362.7 1235.69   7
  11   8  10 18108.1 1341.71   5
  11   8  11 3299.65 626.008   9
  11   8  11 3747.95 569.414   7
  11   8  12 537.618 330.807   9
  11   8  12-324.071 466.323   7
  11   8  13 12295.8 961.050   7
  11   8  14 1617.26 457.094   7
  11   8  15 11716.9 859.676   7
  11   8  16 1947.06 377.109   7
  11   8  17 5872.09 526.834   7
  11   8  18 31.0029 156.435   7
  11   9 -12 3759.17 372.114   5
  11   9 -11 11372.8 754.164   5
  11   9 -10 164.853 188.898   5
  11   9  -9 2485.82 449.468   5
  11   9  -8 1304.72 301.520   5
  11   9  -7-907.803 417.032   5
  11   9  -6 1957.29 427.952   5
  11   9  -5 3640.16 596.067   5
  11   9  -4 2811.29 528.145   5
  11   9  -3 21002.9 1408.73   5
  11   9  -2-382.912 362.050   5
  11   9  -1 14835.2 1160.85   5
  11   9   0 421.494 335.865   5
  11   9   1 9159.58 942.703   5
  11   9   2-96.0251 298.245   5
  11   9   3 3224.61 596.641   5
 -11  -9  -4 19728.2 1267.88   4
  11   9   4 18774.8 1284.15   5
  11   9   5-290.488 342.239   5
 -11  -9  -5 74.7461 254.450   4
 -11  -9  -6 32552.0 1637.71   4
  11   9   6 32242.7 1674.47   5
 -11  -9  -7 25568.4 1478.42   4
  11   9   7 26886.4 1551.65   5
 -11  -9  -8 5056.52 684.467   4
  11   9   8 5864.58 744.953   5
  11   9   9 28774.3 1504.22   7
  11   9   9 27674.3 1566.85   5
  11   9  10 2629.14 556.918   7
  11   9  11 7447.25 781.025   7
  11   9  12 779.109 344.550   7
  11   9  13 2671.53 407.778   7
  11   9  14 5916.77 665.754   7
  11   9  15 518.290 276.104   7
  11   9  16 8718.67 654.030   7
  11   9  17 398.519 218.834   7
  11   9  18-63.6344 128.018   7
  11  10 -10 231.361 169.817   5
  11  10  -9 3662.86 456.805   5
  11  10  -8 8478.77 731.216   5
  11  10  -7 584.887 228.380   5
  11  10  -6 4454.34 596.118   5
  11  10  -5 23532.3 1379.83   5
  11  10  -4 128.062 224.254   5
  11  10  -3 23842.6 1404.82   5
  11  10  -2 10289.8 926.321   5
  11  10  -1 15830.6 1142.88   5
  11  10   0 9588.86 886.032   5
  11  10   1 580.124 329.189   5
  11  10   2 1294.70 375.069   5
 -11 -10  -2 1119.93 335.754   4
 -11 -10  -3 9412.32 857.888   4
  11  10   3 9425.94 850.584   5
 -11 -10  -4 12401.5 990.568   4
  11  10   4 11543.9 926.214   5
  11  10   5 545.830 267.295   5
 -11 -10  -5 548.923 293.208   4
 -11 -10  -6 31393.3 1596.31   4
  11  10   6 31784.1 1589.83   5
 -11 -10  -7 19954.2 1299.51   4
  11  10   7 20481.9 1266.16   5
  11  10   8 262.476 286.849   5
 -11 -10  -8-263.730 282.073   4
  11  10   9 4065.47 647.716   7
  11  10  10 922.580 423.118   7
  11  10  11 1985.42 479.237   7
  11  10  12-179.908 352.149   7
  11  10  13 598.492 292.044   7
  11  10  14 11010.4 811.488   7
  11  10  15 3722.03 455.432   7
  11  10  16 192.896 195.138   7
  11  10  17 5951.94 419.098   7
  11  11  -8 3334.50 379.188   5
  11  11  -7-332.759 194.142   5
  11  11  -6 1890.56 336.411   5
  11  11  -5 9592.41 792.892   5
  11  11  -4 1344.79 400.328   5
  11  11  -3 2248.69 476.077   5
  11  11  -2 8497.65 779.193   5
  11  11  -1 3291.30 530.115   5
  11  11   0 470.144 272.935   5
 -11 -11   0 319.788 222.552   4
 -11 -11  -1 16760.8 1091.35   4
  11  11   1 15737.6 1033.48   5
 -11 -11  -2 16560.8 1081.09   4
  11  11   2 16034.1 1032.30   5
 -11 -11  -3 31577.3 1511.76   4
  11  11   3 29311.2 1404.86   5
 -11 -11  -4 40116.7 1715.64   4
  11  11   4 37931.5 1583.18   5
  11  11   5 3532.00 497.092   5
 -11 -11  -5 3137.51 491.908   4
 -11 -11  -6 20705.5 1232.41   4
  11  11   6 20172.4 1167.58   5
 -11 -11  -7-62.0683 200.915   4
  11  11   7 146.557 183.216   5
 -11 -11  -8 10913.0 906.963   4
  11  11   8 12423.5 976.218   7
  11  11   9 1228.26 437.887   7
  11  11  10 206.009 334.857   7
  11  11  11 962.766 272.127   7
  11  11  12-949.572 392.674   7
  11  11  13 4135.31 494.682   7
  11  11  14 3810.32 443.466   7
  11  11  15 9823.34 594.038   7
  11  11  16 1882.84 233.418   7
  11  12  -4-104.060 197.211   5
  11  12  -3 24.0974 177.825   5
  11  12  -2 858.197 201.717   5
 -11 -12   1 2874.69 396.330   4
  11  12  -1 3567.77 427.864   5
 -11 -12   0 6477.86 620.153   4
  11  12   0 6817.49 595.891   5
 -11 -12  -1 12159.7 873.193   4
  11  12   1 11480.7 784.471   5
 -11 -12  -2 28797.6 1356.41   4
  11  12   2 27671.1 1209.77   5
  11  12   3 791.323 282.027   5
 -11 -12  -3 1098.14 321.097   4
 -11 -12  -4 22308.4 1203.31   4
  11  12   4 19665.4 1020.78   5
 -11 -12  -5 1410.64 362.506   4
 -11 -12  -6 1022.65 305.427   4
 -11 -12  -7 484.643 240.927   4
  11  12   8 2343.95 453.353   7
  11  12   9 775.179 325.642   7
  11  12  10 82.3621 259.699   7
  11  12  11 2224.71 324.908   7
  11  12  12 8462.52 609.716   7
  11  12  13 3788.65 410.942   7
  11  12  14 3007.86 313.495   7
 -11 -13   1 4442.27 425.595   4
 -11 -13   0 1579.30 287.377   4
 -11 -13  -1 3380.69 429.229   4
 -11 -13  -2 1397.04 323.566   4
 -11 -13  -3 442.524 217.272   4
 -11 -13  -4 2287.96 369.328   4
 -11 -13  -5 481.071 240.934   4
 -11 -13  -6 6276.03 592.295   4
  11  13   7 5880.65 550.279   7
 -11 -13  -7 3243.25 425.875  11
  11  13   8 9160.68 669.813   7
 -11 -13  -8 5536.71 546.113  11
  11  13   9 458.030 223.720   7
 -11 -13  -9 599.932 210.506  11
  11  13  10 5263.88 460.675   7
 -11 -13 -10 6165.60 558.783  11
  11  13  11 2675.95 325.637   7
 -11 -13 -11 3135.41 388.142  11
  11  13  12 9907.60 548.254   7
 -11 -14  -2 4937.84 434.838   4
 -11 -14  -3 1572.03 268.551   4
 -11 -14  -4 423.580 172.855   4
  11  14   5 904.334 288.531   7
  11  14   6 4704.76 444.074   7
  11  14   7 708.501 204.049   7
  11  14   8 3269.89 333.847   7
  12  -8  -5 8681.19 527.656   8
  12  -8  -4 5910.27 496.806   8
  12  -8  -3 739.370 253.874   8
  12  -8  -2 5757.37 545.849   8
  12  -8  -1 1393.94 309.979   8
  12  -8   0 2920.24 437.748   8
  12  -8   1 364.645 235.946   8
  12  -8   2 1088.13 279.558   8
  12  -8   3 682.703 228.215   8
  12  -7  -7 7899.34 511.617   8
  12  -7  -6 1729.24 326.291   8
  12  -7  -5 1779.67 354.037   8
  12  -7  -4 12221.1 838.830   8
  12  -7  -3 6523.87 631.377   8
  12  -7  -2 5899.55 612.941   8
  12  -7  -1 8414.97 745.023   8
  12  -7   0 1499.95 383.606   8
  12  -7   1 15629.8 971.867   8
  12  -7   2 3946.87 512.451   8
  12  -7   3 3077.04 455.381   8
  12  -7   4 2691.17 384.831   8
  12  -7   6 3274.68 401.277   1
  12  -7   7 693.260 234.534   1
  12  -7   8 8000.59 625.419   1
  12  -7   9 2068.64 343.247   1
  12  -7  10 1373.12 292.363   1
  12  -7  11 8096.56 559.622   1
  12  -6  -8 380.074 183.838   8
  12  -6  -7 2087.48 357.981   8
  12  -6  -6 5179.88 551.773   8
  12  -6  -5 481.430 286.681   8
  12  -6  -4 3633.03 555.016   8
  12  -6  -3 1204.64 386.901   8
  12  -6  -2 70.6864 290.820   8
  12  -6  -1 9486.12 928.213   8
  12  -6   0 2401.23 552.431   8
  12  -6   1 2998.32 573.997   8
  12  -6   2 16140.3 1087.00   8
  12  -6   3 2655.32 499.734   8
  12  -6   4 1787.13 410.742   8
  12  -6   6 14071.4 933.983   1
  12  -6   7 3598.69 516.675   1
  12  -6   8 13344.0 946.112   1
  12  -6   9-40.4144 247.065   1
  12  -6  10 1539.72 367.911   1
  12  -6  11 2423.36 429.363   1
  12  -6  12 107.370 192.853   1
  12  -6  13 2992.29 368.600   1
  12  -5  -9 7965.54 551.819   8
  12  -5  -8 19.0117 216.920   8
  12  -5  -7 808.247 338.824   8
  12  -5  -6 7720.05 748.297   8
  12  -5  -5 3679.41 574.121   8
  12  -5  -4 14263.8 1090.96   8
  12  -5  -3 598.511 399.837   8
  12  -5  -2 2854.48 578.602   8
  12  -5  -1 370.243 342.310   8
  12  -5   0 677.251 389.258   8
  12  -5   1 2562.03 533.666   8
  12  -5   2 533.234 371.362   8
  12  -5   3 22496.2 1282.91   8
  12  -5   4 8733.55 821.174   8
  12  -5   5 20407.8 1157.72   1
  12  -5   6 24727.0 1308.97   1
  12  -5   7 2658.18 483.045   1
  12  -5   8 13356.4 1016.66   1
  12  -5   9 292.928 261.144   1
  12  -5  10 7670.19 807.306   1
  12  -5  11 3558.05 579.778   1
  12  -5  12 3959.73 555.763   1
  12  -5  13 669.651 279.349   1
  12  -5  14 957.928 263.097   1
  12  -5  15-4.88580 126.100   1
  12  -4 -10 10498.4 617.015   8
  12  -4  -9 356.104 223.750   8
  12  -4  -8 15725.6 943.956   8
  12  -4  -7 2735.79 499.699   8
  12  -4  -6 15145.7 1090.37   8
  12  -4  -5 8735.41 892.785   8
  12  -4  -4 712.885 526.187   8
  12  -4  -3 18264.0 1321.36   8
  12  -4  -2 1082.38 386.505   8
  12  -4  -1 1059.65 427.987   8
  12  -4   0 5102.81 727.705   8
  12  -4   1 991.698 423.681   8
  12  -4   2 790.346 418.688   8
  12  -4   3 3391.82 611.317   8
  12  -4   4 6520.92 720.632   8
  12  -4   5 3100.78 530.145   1
  12  -4   6 2215.66 464.675   1
  12  -4   7 379.836 331.117   1
  12  -4   8 4868.97 704.221   1
  12  -4   9 595.841 347.700   1
  12  -4  10 3274.45 608.304   1
  12  -4  11 1304.75 377.207   1
  12  -4  12 7514.16 770.838   1
  12  -4  13 1837.15 415.344   1
  12  -4  14 11569.4 811.378   1
  12  -4  15 15184.3 828.935   1
  12  -4  16 901.732 213.536   1
  12  -3 -11 27.5686 141.306   8
  12  -3 -10 136.739 200.349   8
  12  -3  -9 4935.89 551.300   8
  12  -3  -8 684.253 346.003   8
  12  -3  -7 13272.7 996.858   8
  12  -3  -6 228.530 334.005   8
  12  -3  -5 7925.84 928.940   8
  12  -3  -4 4060.03 680.357   8
  12  -3  -3-235.174 540.393   8
  12  -3  -2 16575.1 1364.06   8
  12  -3  -1 10570.5 1100.60   8
  12  -3   0 15598.9 1331.15   8
  12  -3   1 29248.9 1666.79   8
  12  -3   2-295.951 421.121   8
  12  -3   3 3795.47 630.196   8
  12  -3   4 3431.12 582.243   8
  12  -3   5 590.383 383.287   1
  12  -3   6-66.7621 288.560   1
  12  -3   7 298.796 393.615   1
  12  -3   8 7106.97 882.465   1
  12  -3   9 6936.71 812.142   9
  12  -3   9 7876.79 929.653   1
  12  -3  10 2491.29 525.729   9
  12  -3  10 4587.27 710.825   1
  12  -3  11 0.85861 211.569   9
  12  -3  11 280.579 323.733   1
  12  -3  12 7073.07 779.542   9
  12  -3  12 11460.7 992.984   1
  12  -3  13 8057.74 806.739   1
  12  -3  14 1842.17 401.613   1
  12  -3  15 14249.8 890.586   1
  12  -3  16 9823.89 660.501   1
  12  -3  17-59.0626 125.183   1
  12  -2 -11 3918.28 420.803   8
  12  -2 -10-15.0448 211.725   8
  12  -2 -10-629.236 418.005  10
  12  -2  -9 1866.37 408.955   8
  12  -2  -9 1187.47 297.097  10
  12  -2  -8 452.063 363.321   8
  12  -2  -8-1454.04 585.688  10
  12  -2  -7-7.75247 360.038   8
  12  -2  -7 81.3339 363.216  10
  12  -2  -6 10069.2 1005.70   8
  12  -2  -5 11400.6 1100.87   8
  12  -2  -4 7199.06 920.025   8
  12  -2  -3 16822.9 1382.74   8
  12  -2  -2 9100.64 1063.24   8
  12  -2  -1 44531.2 2211.33   8
  12  -2   0 548.293 498.061   8
  12  -2   1 38762.6 1996.40   8
  12  -2   2 5188.24 687.425   9
  12  -2   2 5323.01 771.284   8
  12  -2   3 3616.10 580.943   9
  12  -2   3 4631.12 702.891   8
  12  -2   4 8569.22 849.117   9
  12  -2   4 7720.60 804.492   8
  12  -2   5 8099.99 904.662   1
  12  -2   5 9500.92 918.145   9
  12  -2   6 606.570 356.877   9
  12  -2   6 307.201 359.811   1
  12  -2   7 6694.36 874.284   1
  12  -2   7 6932.77 812.545   9
  12  -2   8 3876.27 675.345   9
  12  -2   8 3102.43 618.053   1
  12  -2   9 3001.16 640.396   9
  12  -2   9 3761.73 727.266   1
  12  -2  10 13067.4 1199.80   1
  12  -2  10 10252.8 1055.03   9
  12  -2  11-400.617 374.988   9
  12  -2  11 209.732 408.105   1
  12  -2  12 10359.3 986.620   1
  12  -2  12 6087.40 795.343   9
  12  -2  13 2722.64 563.692   9
  12  -2  13 4267.75 655.510   1
  12  -2  14 437.402 314.512   9
  12  -2  14 141.121 282.059   1
  12  -2  15 29.2834 233.656   1
  12  -2  16 4577.73 515.309   1
  12  -2  17 2758.42 365.236   1
  12  -1 -11-22.2107 219.952   8
  12  -1 -11-140.729 357.827  10
  12  -1 -10 452.567 283.330   8
  12  -1 -10-92.9542 396.530  10
  12  -1  -9-996.496 592.490  10
  12  -1  -9 405.130 277.208   8
  12  -1  -8 1352.92 377.590  10
  12  -1  -8 3080.16 558.043   8
  12  -1  -7 11446.4 1009.73   8
  12  -1  -7 10424.1 1168.97  10
  12  -1  -6 9868.00 1010.06   8
  12  -1  -6 9201.64 1114.89  10
  12  -1  -5 6680.21 865.753   8
  12  -1  -4 16751.9 1412.41   8
  12  -1  -3 953.539 477.259   8
  12  -1  -2 295.175 432.743   8
  12  -1  -1 7341.55 971.354   8
  12  -1   0 3501.95 711.147   8
  12  -1   1 8729.85 993.077   8
  12  -1   2 3638.13 700.904   8
  12  -1   3 14367.2 1195.66   8
  12  -1   4 2311.41 542.337   9
  12  -1   4 2212.69 524.585   8
  12  -1   5 15368.7 1238.09   1
  12  -1   5 17886.4 1292.53   9
  12  -1   6 1890.57 469.376   9
  12  -1   6 1194.55 444.985   1
  12  -1   7 12500.1 1121.70   9
  12  -1   7 10165.8 1103.40   1
  12  -1   8 22541.6 1525.30   9
  12  -1   8 17431.7 1403.97   1
  12  -1   9 25102.7 1656.04   9
  12  -1   9 23442.7 1651.30   1
  12  -1  10 31833.2 1877.06   9
  12  -1  10 31175.9 1877.12   1
  12  -1  11 1847.95 525.392   9
  12  -1  11 2327.75 659.778   1
  12  -1  12 8345.10 977.173   1
  12  -1  12 5479.75 832.557   9
  12  -1  13 2214.33 521.134   9
  12  -1  13 4541.53 682.204   1
  12  -1  14 6196.03 749.275   1
  12  -1  14 4573.71 747.013   9
  12  -1  15 994.582 406.691   9
  12  -1  15 696.357 329.816   1
  12  -1  16 2945.21 444.672   1
  12  -1  17 18236.3 927.542   1
  12  -1  18 916.079 226.109   1
  12   0 -12 62.8782 160.910   8
  12   0 -11 18240.9 946.126   8
  12   0 -11 17373.8 1266.69  10
  12   0 -10 233.602 261.610   8
  12   0 -10-502.196 444.866  10
  12   0  -9 34054.6 1528.14   8
  12   0  -9 31058.8 1899.57  10
  12   0  -8-166.127 591.573  10
  12   0  -8 1792.19 479.749   8
  12   0  -7 28642.6 1584.15   8
  12   0  -7 24776.9 1868.89  10
  12   0  -6 6292.54 830.728   8
  12   0  -6 7030.55 1033.68  10
  12   0  -5 1933.74 593.368   8
  12   0  -4 8464.20 1028.53   8
  12   0  -3 496.886 501.336   8
  12   0  -2 431.578 426.787   8
  12   0  -1 9773.64 1053.84   8
  12   0   0-336.399 484.680   8
  12   0   1 1053.90 458.979   8
  12   0   2-280.287 381.955   8
  12   0   3 13596.7 1165.11   8
  12   0   4 2286.78 520.649   8
  12   0   5 30772.4 1742.41   9
  12   0   6 3389.92 586.476   9
  12   0   7 13513.5 1190.75   9
  12   0   8 9326.61 1042.31   9
  12   0   9-115.887 356.744   9
  12   0  10 4005.76 681.463   9
  12   0  11 1573.48 599.210   9
  12   0  12 1347.72 552.976   9
  12   0  13 374.636 331.425   9
  12   0  13 2621.78 606.398   1
  12   0  14 7557.01 975.060   9
  12   0  14 11950.3 1027.89   1
  12   0  15 2346.36 584.606   9
  12   0  15 2096.30 497.149   1
  12   0  16 2374.61 555.810   9
  12   0  16 2815.19 500.189   1
  12   0  17 5995.34 581.448   1
  12   0  18 4307.61 433.737   1
  12   1 -12 165.665 174.359   8
  12   1 -11 10309.9 754.721   8
  12   1 -10 1076.03 372.409   8
  12   1 -10 285.611 344.610  10
  12   1  -9 9037.64 835.003   8
  12   1  -9 8403.87 991.987  10
  12   1  -8 12922.1 1050.14   8
  12   1  -8 8311.16 986.194  10
  12   1  -7 311.312 359.733   8
  12   1  -7-786.244 601.102  10
  12   1  -6 1889.30 552.726   8
  12   1  -6 2234.75 627.155  10
  12   1  -5 6846.98 920.478   8
  12   1  -4 18170.7 1479.16   8
  12   1  -3 3875.32 853.607   8
  12   1  -2 1870.54 550.937   8
  12   1  -1 2964.35 620.072   8
  12   1   0 15507.0 1329.84   8
  12   1   1 5907.13 807.107   8
  12   1   1 6828.53 723.657   5
  12   1   2 6458.43 840.716   8
  12   1   2 7108.08 740.254   5
  12   1   3 12051.3 1061.47   8
  12   1   3 12684.7 1040.96   5
  12   1   4 746.518 312.540   5
  12   1   4 418.402 309.106   8
  12   1   5 119.912 252.518   5
  12   1   5-58.9957 265.489   9
  12   1   6 14739.7 1253.82   9
  12   1   6 13024.6 1076.25   5
  12   1   7 8536.11 998.303   9
  12   1   7 6212.07 762.338   5
  12   1   8 1507.95 494.507   9
  12   1   9 7890.11 976.469   9
  12   1  10 14700.8 1356.07   9
  12   1  11 1224.24 505.990   9
  12   1  12 20334.6 1677.63   9
  12   1  13 5963.29 918.559   9
  12   1  14 11515.9 1191.51   9
  12   1  15 12174.2 1198.83   9
  12   1  16 277.486 392.332   9
  12   1  16 494.090 334.458   1
  12   1  17 1602.31 482.172   9
  12   1  17 1739.98 395.810   1
  12   1  18 159.826 181.832   1
  12   2 -12 1949.82 325.350   8
  12   2 -11 3466.41 460.495   8
  12   2 -11 3319.69 431.391   5
  12   2 -10 570.177 239.455   5
  12   2 -10 512.121 307.365   8
  12   2  -9 3293.39 508.158   5
  12   2  -9 4308.47 587.564   8
  12   2  -8-295.753 380.398   5
  12   2  -8 1081.89 430.512   8
  12   2  -7 4477.60 630.474   5
  12   2  -7 6086.14 785.194   8
  12   2  -6 181.823 296.854   5
  12   2  -6 177.940 406.549   8
  12   2  -5 11785.1 1038.91   5
  12   2  -4 32296.7 1702.49   5
  12   2  -3 1269.71 394.142   5
  12   2  -2 77751.7 2611.01   5
  12   2  -1 9320.70 896.596   5
  12   2   0 3077.26 555.197   5
  12   2   1 14740.6 1109.69   5
  12   2   2 2362.12 494.211   5
  12   2   3 17536.7 1271.93   8
  12   2   3 17542.9 1213.04   5
  12   2   4-128.768 214.274   5
  12   2   5 1118.19 365.494   5
  12   2   6 780.277 401.225   5
  12   2   6 1445.26 520.426   9
  12   2   7 30465.0 1850.21   9
  12   2   7 27204.1 1609.00   5
  12   2   8 784.432 378.049   5
  12   2   8 930.885 435.779   9
  12   2   9 15392.9 1357.64   9
  12   2  10 27830.2 1844.99   9
  12   2  11 292.704 418.918   9
  12   2  12 5015.40 926.399   9
  12   2  13 59549.3 2757.61   9
  12   2  14 2752.40 627.453   9
  12   2  15 12067.8 1234.67   9
  12   2  16 11099.1 1155.17   9
  12   2  17 539.008 380.195   9
  12   2  17 246.660 258.851   1
  12   2  18 7052.49 592.277   1
  12   2  19 250.529 153.998   1
  12   3 -12 1852.75 314.740   5
  12   3 -12 1819.09 280.272   8
  12   3 -11 2420.36 420.690   5
  12   3 -11 2220.46 390.259   8
  12   3 -10 2790.33 500.860   5
  12   3 -10 2174.41 408.917   8
  12   3  -9-320.533 331.188   5
  12   3  -9 121.670 354.289   8
  12   3  -8 1902.19 354.140   5
  12   3  -7 706.027 253.341   5
  12   3  -6 2955.30 551.241   5
  12   3  -5 10969.4 1032.14   5
  12   3  -4 28900.1 1647.48   5
  12   3  -3 344.713 255.404   5
  12   3  -2 9259.38 952.040   5
  12   3  -1 193.728 231.908   5
  12   3   0 7145.93 813.087   5
  12   3   1 4831.33 675.283   5
  12   3   2 635.340 349.367   5
  12   3   3 1019.49 361.817   5
  12   3   4 26321.2 1556.31   5
  12   3   5 13736.5 1130.94   5
  12   3   6 2434.66 539.659   5
  12   3   6 2860.38 650.661   9
  12   3   7 27038.4 1698.16   9
  12   3   7 25026.2 1582.04   5
  12   3   8 2997.11 612.796   5
  12   3   8 2834.44 646.259   9
  12   3   9 3070.34 640.371   5
  12   3   9 3639.21 759.138   9
  12   3  10-150.258 417.120   9
  12   3  11 2278.96 645.559   9
  12   3  12 2255.50 696.599   9
  12   3  13 3243.82 735.769   9
  12   3  14 3793.10 691.013   9
  12   3  15 513.445 380.528   9
  12   3  16 11209.7 1159.95   9
  12   3  17 4190.05 717.219   9
  12   3  18 1138.31 282.209   1
  12   3  19 460.718 166.926   1
  12   4 -13 126.102 111.869   5
  12   4 -12 2949.67 348.386   8
  12   4 -12 3500.43 431.516   5
  12   4 -11 2149.61 415.130   5
  12   4 -11 1719.39 324.343   8
  12   4 -10 4490.71 563.125   8
  12   4 -10 5376.71 653.991   5
  12   4  -9 10686.3 1011.63   5
  12   4  -8 2907.58 506.487   5
  12   4  -7 32711.1 1802.12   5
  12   4  -6 10450.8 1050.06   5
  12   4  -5 1338.70 429.740   5
  12   4  -4 4897.66 711.883   5
  12   4  -3 120.114 300.604   5
  12   4  -2 2144.68 471.584   5
  12   4  -1 555.413 328.910   5
  12   4   0 5117.05 717.615   5
  12   4   1 406.761 293.144   5
  12   4   2 2712.30 527.642   5
  12   4   3 11461.1 1053.28   5
  12   4   4 5557.92 763.378   5
  12   4   5 28605.9 1652.76   5
  12   4   6 586.727 357.658   5
  12   4   6 1285.82 524.762   9
  12   4   7 1205.61 438.763   5
  12   4   7 1448.97 482.346   9
  12   4   8 11696.7 1223.64   9
  12   4   8 10655.3 1074.17   5
  12   4   9 713.707 377.108   5
  12   4   9 936.540 412.261   9
  12   4  10-156.984 359.156   9
  12   4  11 3572.15 773.151   9
  12   4  12 4545.31 875.062   9
  12   4  13 2998.22 719.451   9
  12   4  14-73.6470 465.409   9
  12   4  15 6761.84 960.660   9
  12   4  16 432.306 369.538   9
  12   4  17 615.537 367.221   9
  12   5 -13 6388.66 467.226   5
  12   5 -12 5710.92 437.038   8
  12   5 -12 7272.12 609.581   5
  12   5 -11 11490.4 729.396   8
  12   5 -11 13998.8 947.516   5
  12   5 -10 65.3775 223.566   5
  12   5 -10-421.158 283.686   8
  12   5  -9 23867.6 1440.99   5
  12   5  -8 4413.68 625.082   5
  12   5  -7 10390.7 1001.48   5
  12   5  -6 31617.9 1810.03   5
  12   5  -5 4140.51 681.325   5
  12   5  -4-582.909 436.775   5
  12   5  -3 525.413 328.153   5
  12   5  -2 12273.8 1123.13   5
  12   5  -1 1455.73 493.108   5
  12   5   0 3330.00 580.330   5
  12   5   1 477.146 322.689   5
  12   5   2 2464.51 567.713   5
  12   5   3 462.668 331.446   5
  12   5   4 4801.03 729.548   5
  12   5   5 1968.98 497.999   5
  12   5   6 1567.22 479.198   5
  12   5   6 1451.24 461.847   9
  12   5   7 1691.49 467.801   5
  12   5   7 1610.42 514.864   9
  12   5   8 2532.96 625.168   5
  12   5   8 2249.22 523.750   9
  12   5   9 36323.6 1984.09   9
  12   5   9 36385.3 1948.37   5
  12   5  10-97.7848 378.646   9
  12   5  10 576.030 401.925   5
  12   5  11 25776.7 1763.12   9
  12   5  12 2017.11 678.599   9
  12   5  13 5975.72 895.936   9
  12   5  14 278.606 374.156   9
  12   5  15 751.790 404.472   9
  12   5  16 384.666 303.769   9
  12   5  17 545.243 307.499   9
  12   6 -12 1070.63 270.472   5
  12   6 -11 815.604 294.223   5
  12   6 -11 534.909 221.050   8
  12   6 -10 3136.80 520.190   5
  12   6  -9-150.151 273.807   5
  12   6  -8 3143.64 471.718   5
  12   6  -7 5443.71 725.918   5
  12   6  -6 8826.05 944.828   5
  12   6  -5 26340.9 1644.88   5
  12   6  -4 3203.77 585.294   5
  12   6  -3 17969.5 1330.97   5
  12   6  -2 7336.07 849.773   5
  12   6  -1 3651.35 619.902   5
  12   6   0 10636.0 1022.70   5
  12   6   1 2770.77 567.773   5
  12   6   2 9921.71 997.544   5
  12   6   3 12991.2 1141.21   5
  12   6   4 2111.95 534.971   5
  12   6   5 60.7561 283.674   5
  12   6   5 433.629 363.546   9
  12   6   6 15477.5 1224.35   9
  12   6   6 15813.6 1252.24   5
  12   6   7 9899.58 983.324   9
  12   6   7 9568.46 1031.36   5
  12   6   8 681.010 381.157   5
  12   6   8 959.063 435.297   9
  12   6   9 4811.69 774.151   5
  12   6   9 5264.05 761.785   9
  12   6  10 8386.85 993.329   9
  12   6  10 9016.70 1041.72   5
  12   6  11 813.213 444.433   9
  12   6  12 4972.62 832.576   9
  12   6  12 3572.28 498.903   7
  12   6  13 2471.69 539.741   9
  12   6  13 2080.47 375.466   7
  12   6  14-158.892 366.213   9
  12   6  14 5.09850 192.871   7
  12   6  15 4709.58 681.676   9
  12   6  15 3549.41 425.189   7
  12   6  16 4529.54 666.107   9
  12   6  16 4084.28 420.719   7
  12   6  17 5885.84 438.584   7
  12   7 -12 5335.22 466.736   5
  12   7 -11 520.143 225.738   5
  12   7 -11 335.948 168.346   8
  12   7 -10 184.837 232.967   5
  12   7  -9 697.841 281.475   5
  12   7  -8 4266.55 585.715   5
  12   7  -7 4535.32 632.448   5
  12   7  -6 2335.63 478.916   5
  12   7  -5 7239.64 860.105   5
  12   7  -4 151.464 340.581   5
  12   7  -3 349.567 316.237   5
  12   7  -2 2388.62 594.921   5
  12   7  -1 2973.30 598.957   5
  12   7   0 23068.3 1516.61   5
  12   7   1 38246.3 1917.12   5
  12   7   2 1033.30 444.926   5
  12   7   3 106886. 3192.05   5
  12   7   4 31516.4 1733.18   5
  12   7   5 10082.6 949.097   9
  12   7   5 10783.5 1019.63   5
  12   7   6 19127.8 1279.54   9
  12   7   6 18131.4 1330.96   5
  12   7   7 1706.91 513.963   5
  12   7   7 1930.22 460.182   9
  12   7   8 1144.76 442.030   5
  12   7   8 976.329 349.125   9
  12   7   8 997.659 386.534   7
  12   7   9 3528.55 651.702   5
  12   7   9 3655.29 630.371   9
  12   7   9 1922.28 408.331   7
  12   7  10 2072.04 478.642   9
  12   7  10 1423.34 269.505   7
  12   7  10 2604.94 573.577   5
  12   7  11 285.522 380.755   9
  12   7  11-354.702 314.608   7
  12   7  12 80.8664 258.146   9
  12   7  12 522.759 319.058   7
  12   7  13 1083.54 350.316   9
  12   7  13 2428.10 391.556   7
  12   7  14 318.811 259.177   9
  12   7  14 256.039 198.147   7
  12   7  15 23422.1 1298.86   9
  12   7  15 22725.5 991.530   7
  12   7  16 3426.63 398.225   7
  12   7  17 6399.42 453.236   7
  12   8 -11 1766.85 301.591   5
  12   8 -10 5679.64 570.881   5
  12   8  -9-77.0735 191.093   5
  12   8  -8 3134.78 501.519   5
  12   8  -7 506.078 301.411   5
  12   8  -6 9211.44 931.889   5
  12   8  -5 2495.91 497.438   5
  12   8  -4 550.494 314.906   5
  12   8  -3 1655.71 422.266   5
  12   8  -2 7427.37 847.456   5
  12   8  -1 4718.75 700.349   5
  12   8   0 4007.43 650.210   5
  12   8   1 9472.47 949.052   5
  12   8   2 3348.72 607.757   5
  12   8   3 3531.43 613.558   5
  12   8   4 45468.0 1870.15   9
  12   8   4 46648.0 2027.57   5
  12   8   5 13293.4 1025.62   9
  12   8   5 13800.4 1103.81   5
  12   8   6 3072.65 559.512   5
  12   8   6 3339.70 550.603   9
  12   8   7 12435.9 1020.19   9
  12   8   7 13077.6 963.743   7
  12   8   7 13728.6 1117.73   5
  12   8   8 415.332 666.691   5
  12   8   8 123.557 209.985   9
  12   8   8 180.499 292.401   7
  12   8   9 11691.1 996.979   9
  12   8   9 11203.5 900.070   7
  12   8   9 13728.3 1109.54   5
  12   8  10 2782.08 554.430   9
  12   8  10 989.264 264.286   7
  12   8  11 1544.13 400.138   9
  12   8  11 197.704 324.257   7
  12   8  12-315.743 325.001   9
  12   8  12-10.8681 231.062   7
  12   8  13 643.936 320.100   9
  12   8  13 1209.21 358.982   7
  12   8  14-25.0262 199.407   7
  12   8  15 10272.6 662.133   7
  12   8  16 4023.81 380.022   7
  12   8  17 4199.97 326.611   7
  12   9 -10 1785.93 271.945   5
  12   9  -9 4868.78 505.939   5
  12   9  -8 9415.47 749.466   5
  12   9  -7 1460.24 333.374   5
  12   9  -6 727.434 284.386   5
  12   9  -5 1858.11 427.492   5
  12   9  -4 2111.50 439.956   5
  12   9  -3 5237.07 678.358   5
  12   9  -2 468.246 331.917   5
  12   9  -1 890.908 389.335   5
  12   9   0 1011.96 459.509   5
  12   9   1 1911.39 472.928   5
  12   9   2 202.990 290.858   5
  12   9   3 7352.12 779.965   5
  12   9   4 1539.55 368.096   5
  12   9   5 3012.20 531.868   5
  12   9   6 24835.9 1414.29   5
  12   9   7 493.916 272.061   5
  12   9   7 1550.69 470.741   7
  12   9   8 14971.9 1022.78   7
  12   9   8 16065.6 1147.01   5
  12   9   9 2238.08 446.470   7
  12   9   9 2599.64 496.887   5
  12   9  10 8263.62 706.100   7
  12   9  11-592.690 361.964   7
  12   9  12 21400.0 1088.92   7
  12   9  13 31007.7 1248.10   7
  12   9  14 185.422 211.382   7
  12   9  15 6589.85 491.647   7
  12   9  16 1441.34 242.027   7
  12  10  -8 387.888 165.620   5
  12  10  -7 847.854 231.012   5
  12  10  -6 10344.6 778.324   5
  12  10  -5 1609.66 376.283   5
  12  10  -4 7850.72 740.341   5
  12  10  -3 22044.3 1244.75   5
  12  10  -2 724.588 368.893   5
  12  10  -1 22034.1 1259.66   5
  12  10   0 4000.94 553.618   5
  12  10   1 386.407 263.420   5
  12  10   2 1329.49 337.214   5
  12  10   3 4976.41 597.855   5
  12  10   4 7954.35 748.799   5
  12  10   5 9240.37 804.899   5
  12  10   6 12600.6 942.934   5
  12  10   7 1929.85 416.438   5
  12  10   7 2945.24 517.442   7
  12  10   8 6071.95 644.830   7
  12  10   8 5969.64 654.954   5
  12  10   9 284.062 293.191   7
  12  10  10 5345.80 550.273   7
  12  10  11 3998.07 445.691   7
  12  10  12 696.449 230.272   7
  12  10  13 4979.02 496.208   7
  12  10  14 13292.8 695.997   7
  12  10  15 2334.56 280.012   7
  12  11  -6 6988.80 513.668   5
  12  11  -5 9134.27 645.188   5
  12  11  -4 3316.40 434.657   5
  12  11  -3 6726.82 617.568   5
  12  11  -2 7103.81 646.975   5
  12  11  -1-132.610 221.929   5
  12  11   0 5952.34 589.895   5
  12  11   1 2544.83 394.608   5
  12  11   2 3144.04 455.690   5
  12  11   3 23799.4 1176.86   5
 -12 -11  -4 5437.27 582.327   4
  12  11   4 5425.10 603.836   5
  12  11   5 23005.1 1159.98   5
  12  11   6 12750.1 879.452   7
  12  11   6 12345.4 856.761   5
  12  11   7 1091.11 340.149   7
  12  11   8 8175.73 692.050   7
  12  11   9 1886.21 350.154   7
  12  11  10-285.343 272.227   7
  12  11  11 1026.30 186.712   7
  12  11  12 4172.91 446.172   7
  12  11  13 2715.77 319.891   7
  12  12  -2 2872.57 331.818   5
  12  12  -1 13384.2 727.188   5
  12  12   0 249.453 166.476   5
  12  12   1 9556.15 646.603   5
  12  12   2 321.245 181.939   5
  12  12   3 16965.5 862.063   5
  12  12   4 2855.46 380.019   5
  12  12   6 3316.53 468.024   7
  12  12   7 1789.75 369.034   7
  12  12   8 600.803 245.566   7
  12  12   9 3.77408 177.115   7
  12  12  10-633.004 283.455   7
  12  12  11 124.955 149.702   7
  12  12  12 10337.7 541.216   7
  12  13   4 1389.91 301.318   7
  12  13   5 120.058 197.466   7
  12  13   6 529.490 214.569   7
  12  13   7 1369.14 276.455   7
  12  13   8 1238.30 244.469   7
  13  -7  -2 14526.5 733.106   8
  13  -7  -1 216.582 178.455   8
  13  -7   0 618.384 212.073   8
  13  -7   1 247.071 163.603   8
  13  -6  -5 680.522 231.491   8
  13  -6  -4 3749.31 446.326   8
  13  -6  -3 5277.86 534.368   8
  13  -6  -2 4294.40 486.382   8
  13  -6  -1 15791.4 925.650   8
  13  -6   0 2566.02 406.621   8
  13  -6   1 22786.0 1074.61   8
  13  -6   2 5788.94 529.288   8
  13  -6   3 4613.35 454.874   8
  13  -5  -7 41.9299 147.835   8
  13  -5  -6 421.562 216.419   8
  13  -5  -5 350.109 243.094   8
  13  -5  -4 10614.6 781.631   8
  13  -5  -3 464.010 317.691   8
  13  -5  -2 2794.74 488.400   8
  13  -5  -1 9160.39 811.717   8
  13  -5   0 2249.41 481.521   8
  13  -5   1 5228.07 627.584   8
  13  -5   2 9905.16 798.399   8
  13  -5   3 8838.99 699.280   8
  13  -5   7 12678.6 769.820   1
  13  -5   8 11292.7 737.932   1
  13  -5   9 3096.73 423.211   1
  13  -5  10 4642.13 488.043   1
  13  -5  11 1596.26 305.223   1
  13  -5  12 2628.39 337.221   1
  13  -4  -8 581.614 199.358   8
  13  -4  -7 9345.91 657.673   8
  13  -4  -6 5128.76 556.166   8
  13  -4  -5 2198.68 409.385   8
  13  -4  -4 24131.8 1277.37   8
  13  -4  -3 5534.50 694.568   8
  13  -4  -2 260.461 293.742   8
  13  -4  -1 1507.96 456.507   8
  13  -4   0 575.487 360.680   8
  13  -4   1 6840.14 718.565   8
  13  -4   2 889.250 375.467   8
  13  -4   3 3933.24 557.700   8
  13  -4   4 488.325 305.565   8
  13  -4   6 1773.53 352.748   1
  13  -4   7 8.16673 228.271   1
  13  -4   8 1545.19 353.960   1
  13  -4   9 119.296 257.849   1
  13  -4  10 3198.06 500.606   1
  13  -4  11 2593.10 447.533   1
  13  -4  12 610.682 269.569   1
  13  -4  13 2563.07 357.445   1
  13  -4  14 3027.94 346.551   1
  13  -3  -9 33.4185 156.839   8
  13  -3  -8 11040.1 698.737   8
  13  -3  -7 2999.99 443.256   8
  13  -3  -6 21528.0 1155.91   8
  13  -3  -5 20600.6 1181.29   8
  13  -3  -4 412.504 391.013   8
  13  -3  -3 15602.5 1138.07   8
  13  -3  -2 1187.72 350.231   8
  13  -3  -1-428.606 435.269   8
  13  -3   0-143.642 351.953   8
  13  -3   1 1107.83 430.589   8
  13  -3   2 648.587 349.368   8
  13  -3   3 1165.63 354.576   8
  13  -3   4 178.682 231.649   8
  13  -3   6 373.996 237.112   1
  13  -3   7 189.931 267.538   1
  13  -3   8 890.726 306.753   1
  13  -3   9 4169.12 570.266   1
  13  -3  10 9362.20 835.271   1
  13  -3  11 1086.54 329.537   1
  13  -3  12 8674.50 772.541   1
  13  -3  13 1290.74 323.965   1
  13  -3  14 19188.5 909.884   1
  13  -3  15 7784.47 514.505   1
  13  -2 -10 405.367 174.914   8
  13  -2  -9 1150.80 271.871   8
  13  -2  -8 445.377 265.702   8
  13  -2  -7 5533.87 592.747   8
  13  -2  -6 2706.26 515.927   8
  13  -2  -5 16417.5 1159.70   8
  13  -2  -4 16164.5 1182.73   8
  13  -2  -3 2291.11 545.274   8
  13  -2  -2 34228.9 1750.38   8
  13  -2  -1 5716.52 817.798   8
  13  -2   0 33094.2 1522.20   9
  13  -2   0 33342.4 1737.38   8
  13  -2   1 19495.0 1172.90   9
  13  -2   1 19539.2 1295.13   8
  13  -2   2 139.291 200.594   9
  13  -2   2-9.49140 379.939   8
  13  -2   3 8696.47 812.156   9
  13  -2   3 7323.80 768.275   8
  13  -2   4 2247.42 456.261   9
  13  -2   4 1972.16 436.746   8
  13  -2   5 61.4362 223.644   9
  13  -2   6 578.154 314.781   9
  13  -2   6 484.808 317.132   1
  13  -2   7 9447.41 910.417   9
  13  -2   7 9684.59 906.087   1
  13  -2   8 2882.72 572.943   9
  13  -2   8 2903.24 549.328   1
  13  -2   9 1925.06 472.893   9
  13  -2   9 1620.00 443.653   1
  13  -2  10 4912.11 655.579   9
  13  -2  10 6557.20 761.942   1
  13  -2  11 133.490 236.428   9
  13  -2  11 458.186 352.291   1
  13  -2  12 10819.2 898.403   9
  13  -2  12 14691.3 1032.09   1
  13  -2  13-165.765 276.624   1
  13  -2  13 191.613 206.913   9
  13  -2  14 2992.13 438.739   1
  13  -2  15 6995.34 562.673   1
  13  -2  16 2001.62 276.129   1
  13  -1 -10 633.210 211.636   8
  13  -1  -9 15.5440 205.938   8
  13  -1  -8 2848.84 456.879   8
  13  -1  -7 3250.92 513.370   8
  13  -1  -6 1294.40 470.955   8
  13  -1  -5 31750.2 1615.04   8
  13  -1  -4 13524.3 1113.44   8
  13  -1  -3 116.027 419.356   8
  13  -1  -2 10967.6 1059.93   8
  13  -1  -1 25063.1 1570.63   8
  13  -1   0 3902.53 724.477   8
  13  -1   1 512.470 439.038   8
  13  -1   2 1177.00 357.857   9
  13  -1   2 1404.74 437.799   8
  13  -1   3-29.8355 226.989   9
  13  -1   3 10.8253 318.499   8
  13  -1   4 17218.8 1185.18   9
  13  -1   4 15806.5 1069.74   8
  13  -1   5 1821.50 458.349   9
  13  -1   6 2370.74 465.800   1
  13  -1   6 2090.66 454.867   9
  13  -1   7 15303.2 1195.92   1
  13  -1   7 17339.5 1243.62   9
  13  -1   8 4421.88 699.171   9
  13  -1   8 3205.74 580.078   1
  13  -1   9 13709.0 1132.15   1
  13  -1   9 16445.1 1261.53   9
  13  -1  10 5707.86 784.886   1
  13  -1  10 6417.98 807.314   9
  13  -1  11 1849.88 451.529   9
  13  -1  11 3677.97 641.195   1
  13  -1  12 3962.34 609.140   1
  13  -1  12 1676.52 403.066   9
  13  -1  13 120.077 242.654   9
  13  -1  13 403.435 317.289   1
  13  -1  14 1564.04 399.742   9
  13  -1  14 1815.71 390.252   1
  13  -1  15 345.800 195.499   1
  13  -1  16 6828.39 527.856   1
  13   0 -10 1116.33 251.362   8
  13   0  -9 3303.22 440.150   8
  13   0  -8 6197.21 632.851   8
  13   0  -7 20226.6 1197.58   8
  13   0  -6-413.638 336.728   8
  13   0  -5 18116.9 1276.37   8
  13   0  -4 5085.92 740.214   8
  13   0  -3 2256.88 579.646   8
  13   0  -2 7634.31 891.001   8
  13   0  -1 1794.29 522.076   8
  13   0   0 8511.93 988.240   8
  13   0   1 690.723 451.301   8
  13   0   2 3837.82 634.388   8
  13   0   3 1253.24 401.085   9
  13   0   3 1002.43 397.317   8
  13   0   4 11234.0 998.443   9
  13   0   4 10069.9 904.228   8
  13   0   5 16695.5 1204.94   9
  13   0   6 2672.21 550.978   9
  13   0   6 2222.42 486.110   1
  13   0   7 9738.31 973.938   1
  13   0   7 11561.4 1073.76   9
  13   0   8 4349.67 656.921   9
  13   0   8 2764.79 504.081   1
  13   0   9 1074.72 446.553   1
  13   0   9 864.646 392.348   9
  13   0  10 2373.51 599.102   9
  13   0  10 2827.38 647.400   1
  13   0  11 1075.64 427.330   9
  13   0  11 1709.22 571.296   1
  13   0  12 1895.37 502.475   9
  13   0  12 3331.18 590.335   1
  13   0  13-381.389 348.900   9
  13   0  13 16.8255 296.517   1
  13   0  14 189.066 276.597   9
  13   0  14-62.2728 278.440   1
  13   0  15 482.679 286.791   9
  13   0  15 489.646 259.028   1
  13   0  16 6162.36 534.299   1
  13   0  17 7269.06 504.828   1
  13   1 -11 6087.75 436.329   8
  13   1 -10-105.985 208.507   8
  13   1  -9 14373.2 871.745   8
  13   1  -8 111.701 275.000   8
  13   1  -7 18870.5 1172.21   8
  13   1  -6 12662.5 1021.62   8
  13   1  -5 318.166 381.658   8
  13   1  -4 2110.36 596.515   8
  13   1  -3 3985.85 761.827   8
  13   1  -2 8179.42 956.489   8
  13   1  -1-636.144 539.986   8
  13   1   0 10945.5 1056.93   8
  13   1   1 1325.18 441.041   8
  13   1   2 4158.10 672.581   8
  13   1   3 127.992 315.991   8
  13   1   4 415.732 332.580   9
  13   1   5 14108.2 1163.85   9
  13   1   6 1449.20 428.095   9
  13   1   7 923.552 380.986   9
  13   1   8 2466.20 567.167   9
  13   1   9 6825.75 877.728   9
  13   1  10 2308.11 561.597   9
  13   1  11 9637.54 1070.54   9
  13   1  12 6227.99 880.615   9
  13   1  13 5834.85 812.448   9
  13   1  13 7907.44 820.759   1
  13   1  14 5421.20 771.424   9
  13   1  14 6434.04 694.389   1
  13   1  15 1124.72 408.997   9
  13   1  15 505.786 273.361   1
  13   1  16 6462.82 574.368   1
  13   1  16 5830.67 670.761   9
  13   1  17 2884.60 362.941   1
  13   2 -11 5535.17 424.943   8
  13   2 -10 265.807 206.714   8
  13   2  -9 991.492 301.826   8
  13   2  -8 3340.03 502.892   8
  13   2  -7 1145.24 421.353   8
  13   2  -6 3034.30 461.375   5
  13   2  -6 4011.20 634.710   8
  13   2  -5 46341.2 2031.87   8
  13   2  -5 42496.8 1752.49   5
  13   2  -4 6395.76 879.285   8
  13   2  -4 6339.70 695.970   5
  13   2  -3 16273.1 1319.15   8
  13   2  -3 16258.1 1124.42   5
  13   2  -2 18646.2 1404.39   8
  13   2  -2 21879.0 1293.99   5
  13   2  -1 504.808 285.788   5
  13   2  -1-74.8847 575.740   8
  13   2   0 7858.40 915.667   8
  13   2   0 9958.87 875.331   5
  13   2   1 2870.16 481.511   5
  13   2   1 2918.37 598.788   8
  13   2   2 17628.0 1265.96   8
  13   2   2 16815.3 1128.47   5
  13   2   3 1383.40 327.807   5
  13   2   3 1690.57 449.797   8
  13   2   4 4861.08 629.054   5
  13   2   5 1230.81 356.244   5
  13   2   5 1113.23 384.572   9
  13   2   6 4182.89 597.107   5
  13   2   6 4531.45 692.303   9
  13   2   7 7252.91 879.376   9
  13   2   7 6962.63 774.463   5
  13   2   8 6849.96 884.318   9
  13   2   9 34141.8 1912.27   9
  13   2  10 24953.2 1631.50   9
  13   2  11 3381.17 718.437   9
  13   2  12 29312.7 1798.95   9
  13   2  13 1424.86 456.366   9
  13   2  14 13012.6 1181.44   9
  13   2  15 6825.59 858.057   9
  13   2  15 7416.97 700.558   1
  13   2  16 2544.02 505.092   9
  13   2  16 1672.92 368.333   1
  13   2  17 5148.37 479.299   1
  13   3 -11 3937.44 359.516   8
  13   3 -10 334.384 167.946   5
  13   3 -10-127.367 207.725   8
  13   3  -9 1447.21 306.218   5
  13   3  -9 1350.40 340.630   8
  13   3  -8 2182.33 378.892   5
  13   3  -8 2706.71 468.213   8
  13   3  -7 401.946 227.973   5
  13   3  -7 606.976 316.429   8
  13   3  -6 1036.18 297.358   5
  13   3  -6 1299.64 473.402   8
  13   3  -5 13683.4 1152.86   8
  13   3  -5 16784.3 1198.32   5
  13   3  -4 1189.41 424.118   5
  13   3  -3 16690.2 1173.99   5
  13   3  -2 17750.2 1202.62   5
  13   3  -1 2377.07 493.429   5
  13   3   0 4793.59 638.528   5
  13   3   1 1320.51 393.123   5
  13   3   2 1227.36 360.124   5
  13   3   2 1686.34 446.277   8
  13   3   3 6071.62 717.245   8
  13   3   3 5255.16 646.405   5
  13   3   4 932.073 322.005   5
  13   3   5 3660.43 589.665   5
  13   3   5 4495.02 723.977   9
  13   3   6 35377.9 1862.96   9
  13   3   6 35350.6 1724.79   5
  13   3   7 29184.7 1721.58   9
  13   3   7 28580.4 1580.70   5
  13   3   8 6991.19 903.550   9
  13   3   8 7412.26 826.983   5
  13   3   9 5705.20 857.571   9
  13   3  10 124.037 429.446   9
  13   3  11 3239.61 641.272   9
  13   3  12 454.396 469.011   9
  13   3  13 16800.9 1395.81   9
  13   3  14-722.243 470.741   9
  13   3  15 9573.25 1066.03   9
  13   3  16 6723.00 799.834   9
  13   3  16 5794.22 598.843   1
  13   3  17 1726.78 307.527   1
  13   4 -11 2757.66 296.855   8
  13   4 -10 9976.18 641.901   8
  13   4 -10 10513.9 684.992   5
  13   4  -9-6.61301 154.714   5
  13   4  -9 72.3260 228.225   8
  13   4  -8 3797.82 514.434   5
  13   4  -8 4778.44 584.214   8
  13   4  -7 4379.99 543.439   5
  13   4  -7 6578.88 705.069   8
  13   4  -6 1122.06 325.550   5
  13   4  -5 13492.6 1092.55   5
  13   4  -4 6366.05 763.455   5
  13   4  -3 5109.11 689.223   5
  13   4  -2 1039.08 396.411   5
  13   4  -1 1828.86 469.922   5
  13   4   0 2069.65 460.254   5
  13   4   1 2507.47 534.508   5
  13   4   2 3998.55 613.579   5
  13   4   3 52.5344 229.285   5
  13   4   4 55918.0 2164.67   5
  13   4   5 12861.2 1151.57   9
  13   4   5 12477.0 1032.18   5
  13   4   6 41618.3 2043.59   9
  13   4   6 40511.6 1872.77   5
  13   4   7 24321.5 1564.49   9
  13   4   7 23064.5 1443.20   5
  13   4   8 4875.14 686.929   5
  13   4   8 4061.64 705.458   9
  13   4   9 10353.3 1100.59   9
  13   4   9 10699.7 1025.55   5
  13   4  10 50.4994 339.146   9
  13   4  11-230.266 420.964   9
  13   4  12 600.738 472.349   9
  13   4  13 126.867 337.139   9
  13   4  14-577.381 444.049   9
  13   4  15 4297.92 713.590   9
  13   4  16 3630.11 582.595   9
  13   4  17 332.988 214.178   1
  13   5 -10 21428.3 893.161   8
  13   5 -10 23875.5 1031.88   5
  13   5  -9 10996.9 714.044   8
  13   5  -9 11048.4 802.668   5
  13   5  -8 3352.41 496.747   5
  13   5  -8 3998.89 514.513   8
  13   5  -7 9093.74 822.198   5
  13   5  -6-400.538 344.505   5
  13   5  -5 2279.37 483.966   5
  13   5  -4 6378.75 781.651   5
  13   5  -3 174.775 249.654   5
  13   5  -2 1475.61 457.371   5
  13   5  -1 833.382 385.250   5
  13   5   0 2625.58 578.358   5
  13   5   1 3228.89 585.389   5
  13   5   2 8018.22 863.635   5
  13   5   3 1217.37 382.190   5
  13   5   4 8649.66 866.768   5
  13   5   5 22335.9 1443.13   9
  13   5   5 20296.7 1328.15   5
  13   5   6 1712.12 437.985   5
  13   5   6 1306.96 434.204   9
  13   5   7 3725.26 623.093   5
  13   5   7 3734.70 661.579   9
  13   5   8 14477.2 1219.16   9
  13   5   8 15168.2 1176.04   5
  13   5   9 4579.79 742.367   9
  13   5   9 5186.58 749.928   5
  13   5  10 6022.92 812.304   9
  13   5  11 11951.2 1155.21   9
  13   5  12 4934.84 820.004   9
  13   5  13 4201.92 702.509   9
  13   5  14 3587.56 598.819   9
  13   5  15 4886.12 700.761   9
  13   5  16 2173.59 452.449   9
  13   6 -10 2272.16 329.048   5
  13   6 -10 2067.64 282.636   8
  13   6  -9 3654.30 411.646   8
  13   6  -9 4130.32 515.089   5
  13   6  -8 875.733 296.174   5
  13   6  -7 151.916 269.169   5
  13   6  -6 4342.12 599.779   5
  13   6  -5 681.526 346.936   5
  13   6  -4 13158.4 1065.87   5
  13   6  -3 26601.7 1524.83   5
  13   6  -2 203.680 281.616   5
  13   6  -1 17795.8 1262.01   5
  13   6   0 4652.27 660.211   5
  13   6   1 2379.19 511.461   5
  13   6   2 7794.33 840.081   5
  13   6   3-64.5705 282.964   5
  13   6   4 1209.44 388.368   5
  13   6   4 1096.06 426.836   9
  13   6   5 636.042 337.304   5
  13   6   5 1125.53 405.174   9
  13   6   6 4919.45 678.110   9
  13   6   6 5532.04 724.819   5
  13   6   7 723.658 344.961   5
  13   6   7 990.296 360.369   9
  13   6   8 5486.85 711.587   9
  13   6   8 5418.46 753.093   5
  13   6   9 19479.8 1344.36   9
  13   6   9 20227.5 1372.80   5
  13   6  10-145.676 335.791   9
  13   6  11 4494.16 707.560   9
  13   6  12 756.413 347.360   9
  13   6  13 6717.15 778.266   9
  13   6  14 2794.34 521.057   9
  13   6  15 2062.82 451.298   9
  13   7 -10 258.824 144.544   5
  13   7  -9 2313.86 310.946   8
  13   7  -9 2765.76 416.970   5
  13   7  -8 3114.41 439.903   5
  13   7  -7-236.459 313.677   5
  13   7  -6 1787.93 341.804   5
  13   7  -5 12004.4 1013.99   5
  13   7  -4 4283.66 627.864   5
  13   7  -3 23135.8 1406.52   5
  13   7  -2 3601.71 597.453   5
  13   7  -1 10594.6 992.134   5
  13   7   0 39928.0 1852.82   5
  13   7   1 1076.91 417.488   5
  13   7   2 15991.4 1148.27   5
  13   7   3 3093.42 501.144   5
  13   7   3 4063.05 615.132   9
  13   7   4 1439.00 367.572   5
  13   7   4 1651.75 396.765   9
  13   7   5 8219.24 801.370   9
  13   7   5 8460.05 863.226   5
  13   7   6 7053.88 782.616   9
  13   7   6 7925.50 862.574   5
  13   7   7 1559.70 445.692   5
  13   7   7 2075.72 445.265   9
  13   7   8 1357.91 433.983   5
  13   7   8 1337.10 393.375   9
  13   7   9 10649.4 957.033   9
  13   7   9 11860.4 1068.74   5
  13   7  10 2363.97 472.421   9
  13   7  11 718.429 358.978   9
  13   7  12-338.144 344.149   9
  13   7  13 1154.22 332.209   9
  13   7  14 3532.90 520.037   9
  13   7  15 2559.12 398.282   9
  13   8  -9 492.049 181.403   5
  13   8  -9 247.779 144.253   8
  13   8  -8 1737.11 327.068   5
  13   8  -7 257.895 171.824   5
  13   8  -6 887.946 258.422   5
  13   8  -5 983.067 331.975   5
  13   8  -4 186.048 309.388   5
  13   8  -3 3143.85 538.043   5
  13   8  -2 4287.51 638.902   5
  13   8  -1 6461.69 764.592   5
  13   8   0 2295.63 564.341   5
  13   8   1 27349.8 1493.21   5
  13   8   2 305.708 243.695   5
  13   8   2 464.157 258.372   9
  13   8   3 21351.9 1216.36   9
  13   8   3 21665.6 1303.56   5
  13   8   4 11997.9 908.659   9
  13   8   4 12839.5 993.807   5
  13   8   5 3940.41 583.543   5
  13   8   5 3629.73 515.516   9
  13   8   6 16276.1 1055.67   9
  13   8   6 16646.9 1134.16   5
  13   8   7 4581.90 643.334   5
  13   8   7 3697.74 529.382   9
  13   8   8 1265.55 390.754   5
  13   8   8 404.002 246.857   9
  13   8   9 3730.08 554.556   9
  13   8  10 18.0072 183.984   9
  13   8  11 376.339 194.883   9
  13   8  12 290.521 199.972   9
  13   9  -8 6006.02 479.958   5
  13   9  -7 765.482 203.374   5
  13   9  -6 12261.8 806.628   5
  13   9  -5 562.435 213.317   5
  13   9  -4 953.415 313.312   5
  13   9  -3 1324.76 385.107   5
  13   9  -2 4775.43 612.871   5
  13   9  -1 11545.9 928.830   5
  13   9   0 4012.52 464.467   9
  13   9   0 5184.85 644.114   5
  13   9   1 2680.22 434.845   5
  13   9   1 2383.39 369.115   9
  13   9   2 3481.01 497.698   5
  13   9   3 473.632 252.818   5
  13   9   4 6808.37 681.868   5
  13   9   5 10635.1 855.384   5
  13   9   6 3812.80 529.442   5
  13   9   7 10589.7 868.655   5
  13   9   8 3634.93 410.670   7
  13   9   8 5930.27 640.498   5
  13   9   9 6463.69 544.856   7
  13   9  10 5730.32 506.374   7
  13   9  11 5312.30 484.344   7
  13   9  12 13337.6 674.951   7
  13   9  13 1030.76 191.479   7
  13  10  -6 2127.06 293.906   5
  13  10  -5 7613.23 577.138   5
  13  10  -4 12130.3 784.187   5
  13  10  -3 2444.64 375.700   5
  13  10  -2 3357.45 454.963   5
  13  10  -1 6783.98 622.438   5
  13  10   0 341.666 212.267   5
  13  10   1 753.720 240.381   5
  13  10   2 796.981 261.151   5
  13  10   3 3217.92 442.928   5
  13  10   4 546.551 284.590   5
  13  10   5 9883.23 696.809   7
  13  10   5 10744.1 793.225   5
  13  10   6 644.760 253.257   5
  13  10   6 414.379 205.426   7
  13  10   7 12310.7 766.261   7
  13  10   7 13887.8 895.108   5
  13  10   8 11573.6 713.445   7
  13  10   9-533.586 263.463   7
  13  10  10 5953.37 480.554   7
  13  10  11 941.565 230.827   7
  13  11  -3 3656.60 360.696   5
  13  11  -2 386.298 156.410   5
  13  11  -1 13550.4 765.846   5
  13  11   0 9609.18 663.739   5
  13  11   1 370.139 181.681   5
  13  11   2 3358.98 401.444   5
  13  11   3 3597.73 406.456   7
  13  11   3 4227.62 457.541   5
  13  11   4 1176.67 268.036   5
  13  11   4 835.461 267.010   7
  13  11   5 7179.44 545.838   7
  13  11   5 8135.03 621.931   5
  13  11   6 505.123 202.897   7
  13  11   7 2915.00 344.231   7
  13  11   8 263.552 167.733   7
  13  11   9 663.339 167.093   7
  14  -5  -2 6544.80 508.769   8
  14  -5  -1 19527.9 875.150   8
  14  -5   0 954.743 237.547   8
  14  -5   1 22897.0 900.275   8
  14  -4  -5 376.546 183.915   8
  14  -4  -4 8700.82 608.651   8
  14  -4  -3 2206.05 349.839   8
  14  -4  -2 3081.33 412.993   8
  14  -4  -1 7204.52 634.579   8
  14  -4   0 2099.54 391.724   8
  14  -4   1 349.212 243.128   8
  14  -4   2 110.332 198.994   8
  14  -3  -6 5856.66 479.409   8
  14  -3  -5 888.698 270.834   8
  14  -3  -4 20826.8 1029.52   8
  14  -3  -3 14496.6 908.275   8
  14  -3  -2 549.929 278.174   8
  14  -3  -1 152.282 239.140   8
  14  -3   0 450.715 272.030   8
  14  -3   1 3223.30 466.662   8
  14  -3   2 862.804 294.599   8
  14  -3   3 938.198 247.539   8
  14  -3   8 297.994 164.857   1
  14  -3   9-373.171 234.978   1
  14  -3  10 62.6811 183.427   1
  14  -3  11 4708.32 439.514   1
  14  -2  -7 620.011 209.463   8
  14  -2  -6 14258.4 791.905   8
  14  -2  -5 30508.7 1255.26   8
  14  -2  -4 399.702 289.073   8
  14  -2  -3 37003.4 1520.61   8
  14  -2  -2 8891.18 801.624   8
  14  -2  -1 1044.13 304.834   8
  14  -2   0 5363.38 680.770   8
  14  -2   1 2542.20 475.392   8
  14  -2   2 824.797 288.091   8
  14  -2   3 1100.52 342.682   8
  14  -2   8 2995.29 420.690   1
  14  -2   9 12002.4 802.291   1
  14  -2  10 631.853 249.626   1
  14  -2  11 4665.70 513.247   1
  14  -2  12 10948.5 716.722   1
  14  -2  13 1698.87 295.992   1
  14  -1  -8 1806.62 285.969   8
  14  -1  -7 4603.64 457.549   8
  14  -1  -6 340.945 233.637   8
  14  -1  -5 17932.7 1020.96   8
  14  -1  -4 12439.5 927.625   8
  14  -1  -3 15728.2 1062.34   8
  14  -1  -2 12552.5 865.036   9
  14  -1  -2 11180.7 909.309   8
  14  -1  -1 45.5289 187.623   9
  14  -1  -1 229.214 293.070   8
  14  -1   0 2050.82 392.681   9
  14  -1   0 1348.54 417.138   8
  14  -1   1 7616.44 688.025   9
  14  -1   1 6220.18 682.236   8
  14  -1   2 722.598 253.920   9
  14  -1   2 11.1113 299.456   8
  14  -1   3 4700.29 567.335   9
  14  -1   3 3107.81 482.812   8
  14  -1   4 249.638 224.062   9
  14  -1   5 11001.5 888.865   9
  14  -1   6 10564.7 881.680   9
  14  -1   7 4104.54 562.286   9
  14  -1   7 3381.86 466.821   1
  14  -1   8 1479.48 419.087   9
  14  -1   8 1064.79 321.104   1
  14  -1   9 19008.6 1179.47   9
  14  -1   9 17636.6 1042.50   1
  14  -1  10 8113.54 752.652   9
  14  -1  10 9765.16 774.134   1
  14  -1  11 517.359 235.119   9
  14  -1  11 969.918 319.755   1
  14  -1  12 2255.75 399.713   1
  14  -1  12 1971.38 370.213   9
  14  -1  13 3330.16 406.529   9
  14  -1  13 4496.46 476.469   1
  14  -1  14 2881.68 344.108   1
  14   0  -8 805.184 234.423   8
  14   0  -7 846.673 263.938   8
  14   0  -6 1388.54 356.317   8
  14   0  -5 9168.08 790.785   8
  14   0  -4 39.4760 293.327   8
  14   0  -3 5212.92 672.628   8
  14   0  -2 2256.59 450.389   8
  14   0  -1 6054.91 784.803   8
  14   0   0 4672.25 700.633   8
  14   0   1 1469.57 348.134   9
  14   0   1 1021.78 434.660   8
  14   0   2 2863.22 464.047   9
  14   0   2 3242.98 545.959   8
  14   0   3 1228.09 340.909   9
  14   0   3 1234.44 368.495   8
  14   0   4 14760.0 1041.04   9
  14   0   5 792.285 306.565   9
  14   0   6 33198.5 1578.52   9
  14   0   7 14839.8 984.360   1
  14   0   7 16382.3 1144.05   9
  14   0   8 311.069 270.821   9
  14   0   8 552.162 288.119   1
  14   0   9 12569.5 928.188   1
  14   0   9 13420.5 1084.72   9
  14   0  10 5675.51 658.687   1
  14   0  10 5941.39 721.915   9
  14   0  11 336.292 218.084   9
  14   0  11 791.027 324.517   1
  14   0  12-85.4695 229.250   9
  14   0  12 116.810 218.614   1
  14   0  13-147.612 174.407   9
  14   0  13-282.936 218.003   1
  14   0  14 1389.38 312.269   9
  14   0  14 958.541 243.800   1
  14   0  15 128.416 153.492   1
  14   1  -9 7653.30 480.355   8
  14   1  -8 2632.13 368.887   8
  14   1  -7 9275.71 698.001   8
  14   1  -6 115.400 292.071   8
  14   1  -5 9003.65 799.830   8
  14   1  -4-73.4921 331.982   8
  14   1  -3 3470.40 571.155   8
  14   1  -2 4698.34 663.267   8
  14   1  -1 4592.10 647.995   8
  14   1   0 7350.22 823.739   8
  14   1   1 1386.08 488.914   8
  14   1   2 4662.42 622.732   9
  14   1   2 3801.03 567.543   8
  14   1   3 2366.23 463.897   9
  14   1   3 2241.99 444.108   8
  14   1   4 3949.47 609.380   9
  14   1   5 9155.75 862.363   9
  14   1   6 1571.26 445.463   9
  14   1   7 4877.54 621.791   1
  14   1   7 5605.69 714.640   9
  14   1   8 9575.53 853.410   1
  14   1   8 11046.5 958.469   9
  14   1   9 746.698 360.086   9
  14   1   9 1524.46 417.850   1
  14   1  10 9224.73 855.939   1
  14   1  10 9918.26 960.201   9
  14   1  11 3172.99 550.051   1
  14   1  11 2896.31 538.018   9
  14   1  12 303.299 243.230   9
  14   1  12 929.621 356.875   1
  14   1  13 353.375 236.696   9
  14   1  13 1156.08 314.185   1
  14   1  14 243.086 263.669   9
  14   1  14-107.020 182.421   1
  14   1  15 3981.20 486.061   9
  14   1  15 4534.11 418.366   1
  14   2  -9 10210.1 565.790   8
  14   2  -8 6271.81 528.843   8
  14   2  -7 6327.36 600.797   8
  14   2  -6 8794.68 748.755   8
  14   2  -5 3089.85 515.041   8
  14   2  -4 576.935 373.272   8
  14   2  -3 8049.13 829.640   8
  14   2  -2 1089.78 417.468   8
  14   2  -1 16187.5 1163.46   8
  14   2   0 1747.08 449.618   8
  14   2   1 12501.4 1004.46   8
  14   2   2 398.496 321.296   5
  14   2   2 289.237 299.186   8
  14   2   3 6311.05 736.532   9
  14   2   3 5892.36 660.887   8
  14   2   3 5537.29 605.284   5
  14   2   4 172.002 196.481   5
  14   2   4 294.734 304.290   9
  14   2   5 2107.18 397.159   5
  14   2   5 1964.23 496.048   9
  14   2   6 13820.0 1089.67   9
  14   2   7 4419.46 658.485   9
  14   2   8 10359.1 960.501   9
  14   2   9 40892.8 1892.19   9
  14   2  10 4255.60 662.352   9
  14   2  11 23681.0 1452.58   9
  14   2  11 22451.0 1288.46   1
  14   2  12 4422.62 611.745   1
  14   2  12 3040.00 556.791   9
  14   2  13 4827.50 660.782   9
  14   2  13 6626.15 660.256   1
  14   2  14 563.661 273.168   9
  14   2  14 1466.56 324.542   1
  14   2  15 2765.86 361.799   1
  14   2  15 2188.86 424.460   9
  14   2  16 1359.90 232.418   1
  14   3  -9 576.280 181.455   8
  14   3  -8 2196.02 325.093   8
  14   3  -7 971.714 262.510   8
  14   3  -6 4234.89 537.089   8
  14   3  -6 3149.40 384.920   5
  14   3  -5 5694.56 666.282   8
  14   3  -5 3304.27 420.460   5
  14   3  -4 2054.59 361.997   5
  14   3  -4 3166.43 570.915   8
  14   3  -3 32471.0 1581.64   8
  14   3  -3 30005.5 1358.00   5
  14   3  -2 8429.71 867.230   8
  14   3  -2 8491.83 732.370   5
  14   3  -1 6200.13 742.358   8
  14   3  -1 9009.12 758.735   5
  14   3   0 11568.4 988.288   8
  14   3   0 11505.9 869.010   5
  14   3   1 13444.9 1057.29   8
  14   3   1 14378.1 967.721   5
  14   3   2 4721.95 642.708   8
  14   3   2 4683.82 558.359   5
  14   3   3 33.3937 244.950   5
  14   3   3 426.564 324.532   9
  14   3   3 217.391 237.291   8
  14   3   4 1869.80 371.628   5
  14   3   4 2374.72 515.258   9
  14   3   5 524.163 249.387   5
  14   3   5 486.576 309.808   9
  14   3   6 4895.71 693.371   9
  14   3   6 3874.51 539.377   5
  14   3   7 512.383 325.239   9
  14   3   8 15209.9 1150.15   9
  14   3   9 33051.0 1728.73   9
  14   3  10 3738.54 649.976   9
  14   3  11 2182.68 538.785   9
  14   3  12 10680.1 994.838   9
  14   3  13 1478.18 355.269   9
  14   3  14 1616.65 400.291   9
  14   3  14 1636.84 332.320   1
  14   3  15 1646.41 383.688   9
  14   3  15 1445.55 290.422   1
  14   3  16 801.814 185.717   1
  14   4  -9 154.037 150.318   8
  14   4  -8 1944.07 305.282   8
  14   4  -7 437.482 191.648   5
  14   4  -7 331.539 208.638   8
  14   4  -6 6085.48 612.556   8
  14   4  -6 5195.42 524.476   5
  14   4  -5 2348.65 382.235   5
  14   4  -5 2912.51 504.902   8
  14   4  -4 296.376 239.530   5
  14   4  -4 136.150 329.657   8
  14   4  -3 7812.16 828.597   8
  14   4  -3 7767.75 732.013   5
  14   4  -2 708.596 328.782   5
  14   4  -2 385.346 375.624   8
  14   4  -1 4574.00 633.994   8
  14   4  -1 8299.65 769.267   5
  14   4   0 1469.11 332.917   5
  14   4   0 899.399 300.203   8
  14   4   1 5132.41 642.082   8
  14   4   1 5521.85 611.327   5
  14   4   2 4998.87 633.638   8
  14   4   2 5231.34 603.475   5
  14   4   3 7365.66 795.587   9
  14   4   3 6242.55 669.068   8
  14   4   3 6862.91 719.824   5
  14   4   4 21049.3 1294.28   9
  14   4   4 20386.5 1194.38   5
  14   4   5 12547.0 1019.96   9
  14   4   5 12159.4 934.087   5
  14   4   6 58243.5 2192.17   9
  14   4   6 56590.1 2010.04   5
  14   4   7 9522.07 924.654   9
  14   4   7 9096.44 837.724   5
  14   4   8 25858.5 1519.99   9
  14   4   9 2131.37 490.336   9
  14   4  10 812.094 333.826   9
  14   4  11 857.430 406.994   9
  14   4  12 974.427 378.773   9
  14   4  13 1481.74 340.462   9
  14   4  14 338.757 286.567   9
  14   4  15 7189.76 706.818   9
  14   4  15 6690.85 546.028   1
  14   4  16 1695.05 255.394   1
  14   5  -8 7061.60 507.566   8
  14   5  -8 6330.94 473.422   5
  14   5  -7 46.3612 139.372   5
  14   5  -7-39.4232 200.837   8
  14   5  -6 4799.11 528.819   8
  14   5  -6 3368.28 435.571   5
  14   5  -5 2313.63 396.622   5
  14   5  -5 2438.20 452.188   8
  14   5  -4 4434.32 611.783   8
  14   5  -4 3766.31 527.233   5
  14   5  -3 1432.28 392.500   5
  14   5  -2 5919.17 674.189   5
  14   5  -1 879.653 394.265   5
  14   5   0 9746.58 844.434   5
  14   5   1 1735.28 405.504   5
  14   5   2 17736.3 1111.68   8
  14   5   2 17501.8 1108.99   5
  14   5   3 1096.95 321.168   5
  14   5   3 1658.67 466.473   9
  14   5   3 1249.83 363.837   8
  14   5   4 31835.5 1605.66   9
  14   5   4 31890.5 1518.13   5
  14   5   5 4840.40 642.998   9
  14   5   5 5000.06 602.803   5
  14   5   6 17936.2 1218.50   9
  14   5   6 18338.2 1161.48   5
  14   5   7 7309.79 798.004   9
  14   5   7 6907.83 715.650   5
  14   5   8 472.313 326.054   9
  14   5   9 4531.21 633.212   9
  14   5  10 708.240 380.506   9
  14   5  11-3.98820 308.255   9
  14   5  12 782.270 335.240   9
  14   5  13-138.773 261.495   9
  14   5  14 1542.73 409.294   9
  14   5  15 1797.81 368.211   9
  14   6  -8 339.508 138.639   5
  14   6  -8 266.417 140.085   8
  14   6  -7 4128.45 476.301   8
  14   6  -7 2827.88 360.331   5
  14   6  -6-208.286 167.567   5
  14   6  -6 485.797 235.646   8
  14   6  -5 7666.94 680.387   8
  14   6  -5 6047.05 601.964   5
  14   6  -4 16606.5 1032.70   5
  14   6  -3 1305.67 393.482   5
  14   6  -2 5530.88 660.440   5
  14   6  -1 6422.91 705.226   5
  14   6   0 1207.58 353.441   5
  14   6   1 634.027 263.348   5
  14   6   2 6251.21 664.981   5
  14   6   3 204.965 249.186   5
  14   6   3 51.2392 245.214   9
  14   6   3-217.186 243.096   8
  14   6   4 1340.48 346.583   5
  14   6   4 1899.58 446.029   9
  14   6   5 5887.61 703.628   9
  14   6   5 6078.62 684.474   5
  14   6   6 728.681 284.718   5
  14   6   6 339.667 268.567   9
  14   6   7 329.584 299.373   5
  14   6   7 270.477 245.645   9
  14   6   8 9054.89 854.201   9
  14   6   8 8389.64 788.730   5
  14   6   9 319.286 239.337   9
  14   6  10 1168.68 395.955   9
  14   6  11 5086.11 689.564   9
  14   6  12 2541.47 462.840   9
  14   6  13 2329.48 444.546   9
  14   6  14 1181.95 300.722   9
  14   7  -7 242.129 147.258   5
  14   7  -7 528.305 194.117   8
  14   7  -6 7158.91 561.971   8
  14   7  -6 5968.54 546.616   5
  14   7  -5 998.784 272.988   5
  14   7  -4 35035.5 1451.98   5
  14   7  -3 16023.9 1022.35   5
  14   7  -2 4234.84 579.493   5
  14   7  -1 31527.2 1451.62   5
  14   7   0 1669.56 392.061   5
  14   7   1 403.344 260.152   5
  14   7   1 563.025 301.978   9
  14   7   2 11416.1 872.015   9
  14   7   2 10705.4 859.762   5
  14   7   3 1138.93 312.810   5
  14   7   3 879.627 278.272   9
  14   7   4 135.322 233.860   5
  14   7   4 325.725 271.288   9
  14   7   5 1166.58 375.796   5
  14   7   5 584.360 268.646   9
  14   7   6 5315.66 615.324   9
  14   7   6 5385.59 621.815   5
  14   7   7 397.746 263.829   5
  14   7   7 346.121 235.800   9
  14   7   8 4877.58 593.321   9
  14   7   8 5079.79 633.316   5
  14   7   9 5008.00 625.040   9
  14   7  10-121.491 188.661   9
  14   7  11 1401.09 325.135   9
  14   7  12 590.389 215.785   9
  14   7  13 3169.71 415.868   9
  14   8  -6 4507.98 405.196   8
  14   8  -6 4349.30 432.022   5
  14   8  -5 1171.39 241.468   5
  14   8  -4 8371.53 670.866   5
  14   8  -3 13412.3 879.820   5
  14   8  -2 844.300 289.285   5
  14   8  -1 1277.51 318.883   5
  14   8  -1 694.750 234.966   9
  14   8   0 20346.8 1054.40   9
  14   8   0 20735.3 1125.78   5
  14   8   1 7085.28 627.629   9
  14   8   1 7064.13 653.074   5
  14   8   2 3374.81 475.974   5
  14   8   2 2905.72 420.326   9
  14   8   3 11730.3 802.029   9
  14   8   3 11982.3 870.231   5
  14   8   4-24.8991 214.085   5
  14   8   4 350.600 240.457   9
  14   8   5 7594.67 659.804   9
  14   8   5 7540.88 686.344   5
  14   8   6 3307.33 492.663   5
  14   8   6 2613.10 404.177   9
  14   8   7 3192.14 473.771   5
  14   8   7 2776.71 399.963   9
  14   8   8 1928.70 386.110   9
  14   8   9 1695.00 319.146   9
  14   8  10 237.334 155.847   9
  14   9  -5 524.244 156.105   5
  14   9  -4 1126.04 208.131   5
  14   9  -3 1710.40 282.261   5
  14   9  -2 3253.46 401.432   5
  14   9  -1 16796.0 937.440   5
  14   9   0 1894.12 345.349   5
  14   9   1 16977.8 962.331   5
  14   9   2 714.186 265.965   5
  14   9   3 15213.1 909.864   5
  14   9   4 862.373 280.612   5
  14   9   5 1927.11 352.225   5
  14   9   6 14570.7 889.241   5
  14  10  -3-270.812 152.487   5
  14  10  -2 1146.24 220.560   5
  14  10  -1 2666.16 343.796   5
  14  10   0 1169.41 253.364   5
  14  10   1 1476.43 278.208   5
  14  10   2 1330.99 290.396   5
  14  10   3 310.822 199.975   5
  14  10   4 641.463 228.105   5
  14  10   5 582.679 222.758   5
  14  11   3 521.037 179.955   5
  15  -2  -3 5211.02 450.950   8
  15  -2  -2-142.699 156.901   8
  15  -2  -1 1586.57 297.530   8
  15  -2   0 784.500 228.426   8
  15  -2   1 1593.45 283.275   8
  15  -1  -5 16595.8 716.914   8
  15  -1  -4 1030.43 255.383   8
  15  -1  -3 14176.5 790.248   8
  15  -1  -2 1229.31 286.406   8
  15  -1  -1 877.045 245.308   8
  15  -1   0 6300.67 563.744   8
  15  -1   1 251.334 187.478   8
  15  -1   2 4366.00 464.180   9
  15  -1   2 3790.26 413.036   8
  15  -1   3 2967.63 401.425   9
  15  -1   4 2733.92 397.111   9
  15  -1   5 2570.65 381.249   9
  15  -1   6 1018.40 247.258   9
  15  -1   7 1612.77 288.233   9
  15   0  -5 2095.85 307.137   8
  15   0  -4 479.744 245.716   8
  15   0  -3 13702.1 724.305   9
  15   0  -3 17591.4 940.527   8
  15   0  -2 88.2519 160.945   9
  15   0  -2 179.482 230.562   8
  15   0  -1-303.381 184.094   9
  15   0  -1-768.817 340.342   8
  15   0   0 4845.24 492.232   9
  15   0   0 3677.05 465.168   8
  15   0   1 12653.1 810.910   9
  15   0   1 12350.0 764.056   8
  15   0   2 239.730 248.510   9
  15   0   2 18.0378 170.234   8
  15   0   3 19019.7 1029.27   9
  15   0   4 1517.49 395.988   9
  15   0   5 18314.8 1025.88   9
  15   0   6 19125.0 1064.10   9
  15   0   7 1132.78 323.685   9
  15   0   8 20389.5 1072.99   9
  15   0   9 12872.3 837.617   9
  15   0  10 452.978 174.451   9
  15   0  10 326.700 145.957   1
  15   1  -6-110.550 167.917   8
  15   1  -5 372.267 154.658   9
  15   1  -5 424.195 209.984   8
  15   1  -4 1638.81 266.389   9
  15   1  -4 2117.37 362.170   8
  15   1  -3 1684.62 294.725   9
  15   1  -3 1981.79 359.804   8
  15   1  -2 784.009 250.234   9
  15   1  -2 904.105 324.789   8
  15   1  -1-166.872 177.225   9
  15   1  -1 34.3163 270.420   8
  15   1   0 955.263 287.904   9
  15   1   0 947.203 339.211   8
  15   1   1 13998.2 905.923   9
  15   1   1 13316.4 837.825   8
  15   1   2 5556.70 592.394   9
  15   1   2 4957.73 516.027   8
  15   1   3 4107.01 514.671   9
  15   1   4 19651.1 1087.82   9
  15   1   5 3.06101 185.589   9
  15   1   6 14527.8 960.177   9
  15   1   7 13609.5 940.344   9
  15   1   8 1683.14 404.251   9
  15   1   9 6316.06 645.843   9
  15   1   9 3294.26 392.889   1
  15   1  10 7127.96 655.535   9
  15   1  10 6449.92 516.077   1
  15   1  11-99.4396 199.462   9
  15   1  11-184.969 174.810   1
  15   1  12 1775.87 272.260   1
  15   1  12 1661.21 307.363   9
  15   2  -6 2364.75 315.985   8
  15   2  -5 6318.30 541.059   8
  15   2  -4 221.968 238.867   8
  15   2  -3-76.7334 262.752   8
  15   2  -2 436.200 223.688   8
  15   2  -1 8752.60 743.874   9
  15   2  -1 7339.04 683.633   8
  15   2   0 59.9268 180.814   9
  15   2   0 111.177 251.438   8
  15   2   1 3503.46 577.921   9
  15   2   1 2559.98 424.903   8
  15   2   2-200.170 219.805   9
  15   2   2 557.698 241.418   8
  15   2   3 311.248 227.881   9
  15   2   4 639.425 262.968   9
  15   2   5 4841.02 582.905   9
  15   2   6 7890.15 725.964   9
  15   2   7 1086.09 333.633   9
  15   2   8 26320.8 1310.32   9
  15   2   9 3302.10 531.138   9
  15   2   9 1715.88 299.127   1
  15   2  10 9742.09 661.911   1
  15   2  10 11775.5 866.462   9
  15   2  11 7730.88 571.244   1
  15   2  11 6428.86 626.287   9
  15   2  12 1363.47 302.001   9
  15   2  12 1716.70 278.851   1
  15   2  13 1258.86 290.465   9
  15   3  -6 2432.17 316.652   8
  15   3  -5 154.076 184.791   8
  15   3  -4 12028.8 788.466   8
  15   3  -3 10706.4 782.649   8
  15   3  -2 3590.39 501.272   8
  15   3  -1 24837.1 1196.45   8
  15   3   0 320.660 244.344   9
  15   3   0-232.364 261.213   8
  15   3   1 11077.1 854.945   9
  15   3   1 10548.1 784.442   8
  15   3   2 1833.76 330.212   5
  15   3   2 1970.07 391.690   9
  15   3   2 1929.68 353.695   8
  15   3   3 340.402 191.070   5
  15   3   3 81.8057 226.943   9
  15   3   4 1706.81 360.658   9
  15   3   5 224.899 258.344   9
  15   3   6 21870.9 1199.71   9
  15   3   7 2367.77 438.947   9
  15   3   8 20871.4 1190.59   9
  15   3   9 14878.5 848.925   1
  15   3   9 21459.1 1202.30   9
  15   3  10 6346.86 567.678   1
  15   3  10 7240.59 716.410   9
  15   3  11 8135.41 613.293   1
  15   3  11 7631.15 696.476   9
  15   3  12-178.823 235.076   9
  15   3  12 2.64133 166.047   1
  15   3  13 1249.84 238.648   1
  15   3  13 1625.48 325.591   9
  15   4  -6 381.357 189.528   8
  15   4  -5 3179.15 379.790   8
  15   4  -4 3469.09 427.595   8
  15   4  -3 6042.40 578.683   8
  15   4  -3 4368.05 409.048   5
  15   4  -2 152.216 134.243   5
  15   4  -2-188.419 247.452   8
  15   4  -1 12455.4 882.076   8
  15   4  -1 15064.9 841.908   5
  15   4   0 19555.9 1117.93   9
  15   4   0 17662.5 991.014   8
  15   4   0 18322.0 946.257   5
  15   4   1 31.9135 173.148   5
  15   4   1 24.2145 209.322   9
  15   4   1 273.480 238.544   8
  15   4   2 2646.61 395.757   5
  15   4   2 3226.79 497.757   9
  15   4   2 3127.45 411.135   8
  15   4   3 12310.7 883.845   9
  15   4   3 12242.9 812.043   5
  15   4   4 3355.58 495.159   9
  15   4   4 3590.53 453.707   5
  15   4   5 4550.17 573.331   9
  15   4   5 5150.91 540.902   5
  15   4   6 7789.41 746.849   9
  15   4   7 812.049 306.594   9
  15   4   8 9750.99 827.081   9
  15   4   8 9189.96 658.935   1
  15   4   9 3512.65 537.482   9
  15   4   9 2201.92 354.694   1
  15   4  10 5830.44 650.194   9
  15   4  10 4956.98 498.935   1
  15   4  11 242.600 195.268   9
  15   4  11 619.828 245.260   1
  15   4  12-128.416 243.354   9
  15   4  12 525.148 213.789   1
  15   4  13 1445.53 317.354   9
  15   5  -6 835.291 186.800   8
  15   5  -5 1240.99 268.215   8
  15   5  -4 26.3555 137.304   5
  15   5  -4 13.8068 185.189   8
  15   5  -3-246.341 195.292   5
  15   5  -3 193.244 230.122   8
  15   5  -2-11.8183 148.822   5
  15   5  -2-39.7247 220.674   8
  15   5  -1 289.337 179.440   5
  15   5  -1 36.2207 209.819   8
  15   5   0 7522.81 680.120   9
  15   5   0 6020.04 590.606   8
  15   5   0 6785.31 584.449   5
  15   5   1 9536.82 782.595   9
  15   5   1 8605.96 665.963   8
  15   5   1 8802.60 672.103   5
  15   5   2 85.2822 193.543   5
  15   5   2 194.240 231.728   9
  15   5   2-495.876 250.290   8
  15   5   3 11412.8 848.334   9
  15   5   3 11437.0 787.945   5
  15   5   4 5016.68 589.341   9
  15   5   4 5174.86 531.021   5
  15   5   5 5198.82 580.591   9
  15   5   5 5293.03 553.281   5
  15   5   6 10585.7 826.607   9
  15   5   7 69.5439 205.180   9
  15   5   8 15205.4 1020.23   9
  15   5   9 701.196 316.159   9
  15   5  10 667.517 257.752   9
  15   5  11 218.082 165.630   9
  15   5  12 37.3037 168.806   9
  15   5  12 549.360 220.094   1
  15   6  -5 986.503 210.770   8
  15   6  -4-228.975 154.227   5
  15   6  -4 394.060 198.936   8
  15   6  -3 2560.63 333.216   5
  15   6  -3 3668.52 432.014   8
  15   6  -2 18211.4 979.925   9
  15   6  -2 18158.9 929.892   8
  15   6  -2 17061.0 895.621   5
  15   6  -1 6154.11 598.777   9
  15   6  -1 5972.02 552.045   5
  15   6   0 363.595 200.493   5
  15   6   0 158.519 178.042   9
  15   6   0 264.192 234.229   8
  15   6   1 6548.92 639.345   9
  15   6   1 5946.66 539.849   8
  15   6   1 6932.69 618.884   5
  15   6   2 8230.89 695.293   9
  15   6   2 6905.22 548.746   8
  15   6   2 7768.92 655.124   5
  15   6   3 51.3613 187.142   5
  15   6   3 270.808 208.877   9
  15   6   4 838.944 262.466   5
  15   6   4 1091.52 294.486   9
  15   6   5 309.157 188.733   5
  15   6   5 185.808 199.915   9
  15   6   6 193.701 202.400   9
  15   6   6 164.816 205.573   5
  15   6   7 612.808 286.717   9
  15   6   8 472.558 255.276   9
  15   6   9 841.723 303.688   9
  15   6  10 196.406 154.168   9
  15   6  11 2.39468 179.069   9
  15   7  -4 29522.7 959.443   8
  15   7  -3 121.748 129.802   5
  15   7  -3-77.9552 153.700   9
  15   7  -3 403.902 210.561   8
  15   7  -2 31605.7 1159.26   9
  15   7  -2 35194.8 1186.29   8
  15   7  -2 33131.6 1199.65   5
  15   7  -1 9296.16 661.034   9
  15   7  -1 9518.90 660.770   5
  15   7   0 3081.34 400.111   9
  15   7   0 3754.62 446.699   5
  15   7   1 3299.75 424.503   9
  15   7   1 2373.83 347.737   8
  15   7   1 3442.42 422.843   5
  15   7   2 1046.55 258.990   5
  15   7   2 1203.25 302.683   9
  15   7   3 8084.35 657.803   9
  15   7   3 8191.46 645.738   5
  15   7   4 1475.56 311.467   5
  15   7   4 1061.04 290.887   9
  15   7   5 2765.51 395.832   9
  15   7   5 3301.41 436.107   5
  15   7   6 1249.16 279.875   9
  15   7   6 1239.49 291.117   5
  15   7   7 918.198 295.787   9
  15   7   8 6046.39 589.611   9
  15   7   9 236.968 157.017   9
  15   7  10 2556.94 344.289   9
  15   8  -2 17334.1 809.087   5
  15   8  -1 12350.2 658.676   8
  15   8  -1 16208.9 817.107   5
  15   8   0 2282.50 328.196   5
  15   8   0 1324.31 240.085   8
  15   8   1 4039.26 410.639   9
  15   8   1 4641.37 471.684   5
  15   8   2 9047.15 606.613   9
  15   8   2 9934.08 682.199   5
  15   8   3 5117.16 469.326   9
  15   8   3 5761.27 532.333   5
  15   8   4 2264.11 363.469   5
  15   8   4 1458.07 284.738   9
  15   8   5 7238.32 548.900   9
  15   8   5 9110.39 654.724   5
  15   8   6 781.673 219.931   9
  15   9   0 16198.2 759.457   5
  15   9   1 20953.1 888.120   5
  15   9   2 9578.67 612.456   5
  15   9   3 14809.2 764.385   5
  15   9   4 1414.49 281.523   5
  16   1   3 17426.9 817.830   9
  16   1   4 3665.24 430.271   9
  16   1   5 9236.14 616.726   9
  16   2   0 14.2864 118.945   9
  16   2   1 8038.59 573.848   9
  16   2   2 5890.18 510.335   9
  16   2   3 4272.63 444.971   9
  16   2   4 5545.35 514.789   9
  16   2   5 713.447 245.231   9
  16   2   6 3272.02 407.434   9
  16   2   7 1969.58 317.012   9
  16   2   8 29.0020 125.679   9
  16   3  -1 5573.98 464.487   9
  16   3   0 234.113 169.897   9
  16   3   1 937.234 229.610   9
  16   3   2 2014.77 329.209   9
  16   3   3 1307.09 289.913   9
  16   3   4 856.802 248.410   9
  16   3   5 5033.33 506.060   9
  16   3   6 4856.26 494.153   9
  16   3   7 808.783 259.898   9
  16   3   8 15426.9 836.673   9
  16   3   9-117.411 153.053   9
  16   4  -1 10750.8 646.116   9
  16   4   0 2705.12 363.144   9
  16   4   1 8397.79 615.697   9
  16   4   2 6402.08 553.051   9
  16   4   3 600.924 242.928   9
  16   4   4 45.7729 185.618   9
  16   4   5 1765.33 328.633   9
  16   4   6 4022.97 466.565   9
  16   4   7 4865.15 506.190   9
  16   4   8 10455.9 704.381   9
  16   4   9 232.762 115.222   9
  16   5   0 19903.0 882.171   9
  16   5   1 794.330 239.068   9
  16   5   2 20957.6 954.899   9
  16   5   3 11333.5 714.820   9
  16   5   4 1331.76 281.597   9
  16   5   5 4732.63 482.871   9
  16   5   6 1675.76 304.952   9
  16   5   7 5847.90 532.848   9
  16   5   8 5442.49 496.402   9
  16   6   2 352.896 191.235   9
  16   6   3 1334.46 262.309   9
  16   6   4 896.040 239.782   9
  16   6   5 1382.08 273.774   9
  16   6   6 534.194 202.340   9
   0   0   0    0.00    0.00   0
TITL wai178CuLT in P-1
REM P-1 (#2 in standard setting)
CELL 1.54184  13.081504  13.541657  20.083425  85.8143  81.3283  79.1745
ZERR    2.00   0.000495   0.000498   0.000762   0.0031   0.0031   0.0031
LATT  1
SFAC C H N O P Cl Fe Co Ru
UNIT 120.00 140.00 8.00 18.00 6.00 4.00 2.00 2.00 2.00
TREF
HKLF 4
END
;
_shelx_hkl_checksum              53729
_shelx_shelxl_version_number     2014/7
_olex2_date_sample_data_collection 2016-01-25
_olex2_submission_special_instructions 'No special instructions were received'
loop_
_space_group_symop_operation_xyz
'x, y, z'
'-x, -y, -z'
loop_
_atom_site_label
_atom_site_type_symbol
_atom_site_fract_x
_atom_site_fract_y
_atom_site_fract_z
_atom_site_U_iso_or_equiv
_atom_site_adp_type
_atom_site_occupancy
_atom_site_site_symmetry_order
_atom_site_calc_flag
_atom_site_refinement_flags_posn
_atom_site_refinement_flags_adp
Ru1 Ru 0.37134(2) 0.59690(2) 0.32523(2) 0.01271(8) Uani 1 1 d . .
Co1 Co 0.48014(5) 0.33546(4) 0.23608(3) 0.01645(14) Uani 1 1 d . .
Fe1 Fe 0.24529(4) 0.82149(4) 0.26891(3) 0.01214(12) Uani 1 1 d . .
Cl1 Cl 0.47553(7) 0.67229(7) 0.38373(5) 0.02192(19) Uani 1 1 d . .
Cl2 Cl 0.24745(7) 0.59328(6) 0.42108(4) 0.02023(18) Uani 1 1 d . .
P1 P 0.31644(7) 0.40623(7) 0.25644(5) 0.01599(19) Uani 1 1 d . .
P2 P 0.49651(7) 0.35750(7) 0.33865(5) 0.01629(19) Uani 1 1 d . .
P3 P 0.53298(7) 0.47664(7) 0.20560(5) 0.01639(19) Uani 1 1 d . .
O1 O 0.2512(2) 0.3983(2) 0.19580(14) 0.0223(6) Uani 1 1 d . .
O2 O 0.2576(2) 0.3386(2) 0.31217(14) 0.0213(6) Uani 1 1 d . .
O3 O 0.4569(2) 0.27071(19) 0.38854(14) 0.0190(5) Uani 1 1 d . .
O4 O 0.6199(2) 0.33769(19) 0.34344(14) 0.0212(6) Uani 1 1 d . .
O5 O 0.6596(2) 0.4633(2) 0.19654(15) 0.0218(6) Uani 1 1 d . .
O6 O 0.5126(2) 0.50337(19) 0.12949(14) 0.0212(6) Uani 1 1 d . .
O7 O 0.2893(2) 0.51569(19) 0.27448(14) 0.0177(5) Uani 1 1 d . .
O8 O 0.4438(2) 0.45733(19) 0.36704(14) 0.0198(5) Uani 1 1 d . .
O9 O 0.4928(2) 0.57042(19) 0.24639(14) 0.0186(5) Uani 1 1 d . .
N1 N 0.3278(2) 0.8342(2) 0.17681(15) 0.0143(6) Uani 1 1 d . .
N2 N 0.1386(2) 0.7656(2) 0.22861(16) 0.0138(6) Uani 1 1 d . .
N3 N 0.1543(2) 0.8234(2) 0.35775(15) 0.0143(6) Uani 1 1 d . .
N4 N 0.3463(2) 0.8875(2) 0.30663(16) 0.0141(6) Uani 1 1 d . .
N5 N 0.1573(2) 0.9681(2) 0.25091(16) 0.0161(6) Uani 1 1 d . .
N6 N 0.3106(2) 0.7078(2) 0.29173(15) 0.0149(6) Uani 1 1 d . .
C1 C 0.6121(4) 0.2388(3) 0.1928(3) 0.0393(12) Uani 1 1 d . U
H1 H 0.6822 0.2498 0.1903 0.047 Uiso 1 1 calc R .
C2 C 0.5470(6) 0.2701(3) 0.1449(3) 0.0494(15) Uani 1 1 d . U
H2 H 0.5652 0.3058 0.1036 0.059 Uiso 1 1 calc R .
C3 C 0.4536(5) 0.2424(5) 0.1655(4) 0.0618(19) Uani 1 1 d . U
H3 H 0.3950 0.2551 0.1413 0.074 Uiso 1 1 calc R .
C4 C 0.4569(5) 0.1913(4) 0.2291(4) 0.0602(19) Uani 1 1 d . U
H4 H 0.4016 0.1641 0.2558 0.072 Uiso 1 1 calc R .
C5 C 0.5590(5) 0.1888(3) 0.2454(2) 0.0421(13) Uani 1 1 d . U
H5 H 0.5858 0.1584 0.2848 0.051 Uiso 1 1 calc R .
C6 C 0.0501(3) 0.9864(3) 0.2625(2) 0.0264(9) Uani 1 1 d . .
H6 H 0.0147 0.9314 0.2755 0.032 Uiso 1 1 calc R .
C7 C -0.0084(4) 1.0805(4) 0.2561(3) 0.0480(14) Uani 1 1 d . .
H7 H -0.0829 1.0895 0.2614 0.058 Uiso 1 1 calc R .
C8 C 0.0421(4) 1.1632(4) 0.2416(3) 0.0436(12) Uani 1 1 d . .
H8 H 0.0028 1.2296 0.2395 0.052 Uiso 1 1 calc R .
C9 C 0.1514(4) 1.1460(4) 0.2306(3) 0.0413(12) Uani 1 1 d . .
H9 H 0.1882 1.2005 0.2196 0.050 Uiso 1 1 calc R .
C10 C 0.2051(3) 1.0496(3) 0.2357(2) 0.0237(8) Uani 1 1 d . .
H10 H 0.2797 1.0388 0.2284 0.028 Uiso 1 1 calc R .
C11 C 0.2482(3) 0.4719(3) 0.1402(2) 0.0273(9) Uani 1 1 d . .
H11A H 0.3184 0.4668 0.1128 0.033 Uiso 1 1 calc R .
H11B H 0.2269 0.5407 0.1570 0.033 Uiso 1 1 calc R .
C12 C 0.1686(4) 0.4497(4) 0.0981(3) 0.0386(11) Uani 1 1 d . .
H12A H 0.1606 0.5010 0.0614 0.058 Uiso 1 1 calc GR .
H12B H 0.1007 0.4504 0.1266 0.058 Uiso 1 1 calc GR .
H12C H 0.1932 0.3832 0.0793 0.058 Uiso 1 1 calc GR .
C13 C 0.1461(3) 0.3754(3) 0.3349(3) 0.0313(10) Uani 1 1 d . .
H13A H 0.1049 0.3748 0.2975 0.038 Uiso 1 1 calc R .
H13B H 0.1361 0.4455 0.3491 0.038 Uiso 1 1 calc R .
C14 C 0.1090(4) 0.3093(5) 0.3928(3) 0.0441(13) Uani 1 1 d . .
H14A H 0.1291 0.2388 0.3807 0.066 Uiso 1 1 calc GR .
H14B H 0.0323 0.3265 0.4034 0.066 Uiso 1 1 calc GR .
H14C H 0.1412 0.3192 0.4322 0.066 Uiso 1 1 calc GR .
C15 C 0.3823(3) 0.2937(3) 0.4499(2) 0.0227(8) Uani 1 1 d . .
H15A H 0.3227 0.3467 0.4399 0.027 Uiso 1 1 calc R .
H15B H 0.4173 0.3176 0.4844 0.027 Uiso 1 1 calc R .
C16 C 0.3444(4) 0.1983(3) 0.4745(2) 0.0299(9) Uani 1 1 d . .
H16A H 0.3169 0.1716 0.4381 0.045 Uiso 1 1 calc GR .
H16B H 0.2885 0.2119 0.5128 0.045 Uiso 1 1 calc GR .
H16C H 0.4028 0.1489 0.4887 0.045 Uiso 1 1 calc GR .
C17 C 0.6519(3) 0.3508(3) 0.4092(2) 0.0261(9) Uani 1 1 d . .
H17A H 0.6131 0.3130 0.4454 0.031 Uiso 1 1 calc R .
H17B H 0.6363 0.4228 0.4197 0.031 Uiso 1 1 calc R .
C18 C 0.7674(3) 0.3119(3) 0.4047(2) 0.0298(9) Uani 1 1 d . .
H18A H 0.8054 0.3536 0.3716 0.045 Uiso 1 1 calc GR .
H18B H 0.7827 0.2422 0.3907 0.045 Uiso 1 1 calc GR .
H18C H 0.7898 0.3143 0.4489 0.045 Uiso 1 1 calc GR .
C19 C 0.7119(3) 0.5068(3) 0.2430(2) 0.0241(8) Uani 1 1 d . .
H19A H 0.6769 0.4985 0.2898 0.029 Uiso 1 1 calc R .
H19B H 0.7093 0.5795 0.2317 0.029 Uiso 1 1 calc R .
C20 C 0.8247(3) 0.4520(4) 0.2362(2) 0.0312(10) Uani 1 1 d . .
H20A H 0.8577 0.4588 0.1893 0.047 Uiso 1 1 calc GR .
H20B H 0.8263 0.3806 0.2492 0.047 Uiso 1 1 calc GR .
H20C H 0.8632 0.4813 0.2657 0.047 Uiso 1 1 calc GR .
C21 C 0.5288(4) 0.6030(3) 0.1017(2) 0.0297(9) Uani 1 1 d . .
H21A H 0.5820 0.6258 0.1243 0.036 Uiso 1 1 calc R .
H21B H 0.4622 0.6518 0.1102 0.036 Uiso 1 1 calc R .
C22 C 0.5653(4) 0.5994(4) 0.0276(2) 0.0341(10) Uani 1 1 d . .
H22A H 0.5105 0.5813 0.0050 0.051 Uiso 1 1 calc GR .
H22B H 0.6296 0.5490 0.0193 0.051 Uiso 1 1 calc GR .
H22C H 0.5796 0.6656 0.0100 0.051 Uiso 1 1 calc GR .
C31 C 0.4266(3) 0.8578(3) 0.1613(2) 0.0173(7) Uani 1 1 d . .
C32 C 0.4598(3) 0.8542(3) 0.0901(2) 0.0191(8) Uani 1 1 d . .
H32 H 0.5260 0.8649 0.0671 0.023 Uiso 1 1 calc R .
C33 C 0.3804(3) 0.8329(3) 0.0619(2) 0.0191(8) Uani 1 1 d . .
H33 H 0.3786 0.8284 0.0151 0.023 Uiso 1 1 calc R .
C34 C 0.2976(3) 0.8181(3) 0.11654(19) 0.0179(7) Uani 1 1 d . .
C35 C 0.2068(3) 0.7850(3) 0.10809(19) 0.0175(7) Uani 1 1 d . .
C36 C 0.1362(3) 0.7550(3) 0.16143(19) 0.0168(7) Uani 1 1 d . .
C37 C 0.0547(3) 0.7008(3) 0.1540(2) 0.0202(8) Uani 1 1 d . .
H37 H 0.0356 0.6848 0.1128 0.024 Uiso 1 1 calc R .
C38 C 0.0100(3) 0.6768(3) 0.2167(2) 0.0190(7) Uani 1 1 d . .
H38 H -0.0445 0.6385 0.2278 0.023 Uiso 1 1 calc R .
C39 C 0.0599(3) 0.7198(3) 0.26347(19) 0.0160(7) Uani 1 1 d . .
C40 C 0.0278(3) 0.7220(3) 0.33263(19) 0.0161(7) Uani 1 1 d . .
C41 C 0.0710(3) 0.7737(3) 0.37550(19) 0.0153(7) Uani 1 1 d . .
C42 C 0.0312(3) 0.7850(3) 0.44579(19) 0.0161(7) Uani 1 1 d . .
H42 H -0.0266 0.7588 0.4703 0.019 Uiso 1 1 calc R .
C43 C 0.0921(3) 0.8400(3) 0.47037(19) 0.0159(7) Uani 1 1 d . .
H43 H 0.0841 0.8605 0.5154 0.019 Uiso 1 1 calc R .
C44 C 0.1705(3) 0.8619(3) 0.41670(18) 0.0144(7) Uani 1 1 d . .
C45 C 0.2545(3) 0.9087(3) 0.42240(19) 0.0157(7) Uani 1 1 d . .
C46 C 0.3373(3) 0.9179(3) 0.37138(19) 0.0161(7) Uani 1 1 d . .
C47 C 0.4285(3) 0.9583(3) 0.3791(2) 0.0191(8) Uani 1 1 d . .
H47 H 0.4401 0.9879 0.4181 0.023 Uiso 1 1 calc R .
C48 C 0.4944(3) 0.9463(3) 0.3211(2) 0.0195(8) Uani 1 1 d . .
H48 H 0.5623 0.9639 0.3120 0.023 Uiso 1 1 calc R .
C49 C 0.4435(3) 0.9021(3) 0.27517(19) 0.0150(7) Uani 1 1 d . .
C50 C 0.4837(3) 0.8871(3) 0.2076(2) 0.0169(7) Uani 1 1 d . .
C51 C 0.5917(3) 0.9088(3) 0.18334(19) 0.0172(7) Uani 1 1 d . .
C52 C 0.6791(3) 0.8498(3) 0.2076(2) 0.0250(8) Uani 1 1 d . .
H52 H 0.6702 0.7948 0.2387 0.030 Uiso 1 1 calc R .
C53 C 0.7787(3) 0.8712(4) 0.1865(2) 0.0322(10) Uani 1 1 d . .
H53 H 0.8377 0.8306 0.2031 0.039 Uiso 1 1 calc R .
C54 C 0.7931(3) 0.9517(3) 0.1410(2) 0.0294(9) Uani 1 1 d . .
H54 H 0.8615 0.9665 0.1271 0.035 Uiso 1 1 calc R .
C55 C 0.7065(3) 1.0106(3) 0.1161(2) 0.0247(8) Uani 1 1 d . .
H55 H 0.7159 1.0652 0.0847 0.030 Uiso 1 1 calc R .
C56 C 0.6063(3) 0.9894(3) 0.1373(2) 0.0187(7) Uani 1 1 d . .
H56 H 0.5475 1.0299 0.1204 0.022 Uiso 1 1 calc R .
C61 C 0.1838(3) 0.7730(3) 0.0382(2) 0.0211(8) Uani 1 1 d . .
C62 C 0.2321(3) 0.6893(3) 0.0027(2) 0.0270(9) Uani 1 1 d . .
H62 H 0.2839 0.6408 0.0212 0.032 Uiso 1 1 calc R .
C63 C 0.2052(4) 0.6754(4) -0.0606(2) 0.0340(10) Uani 1 1 d . .
H63 H 0.2379 0.6172 -0.0845 0.041 Uiso 1 1 calc R .
C64 C 0.1309(4) 0.7466(4) -0.0881(2) 0.0365(11) Uani 1 1 d . .
H64 H 0.1124 0.7371 -0.1308 0.044 Uiso 1 1 calc R .
C65 C 0.0835(4) 0.8317(4) -0.0534(2) 0.0333(10) Uani 1 1 d . .
H65 H 0.0335 0.8813 -0.0727 0.040 Uiso 1 1 calc R .
C66 C 0.1096(3) 0.8446(3) 0.0100(2) 0.0271(9) Uani 1 1 d . .
H66 H 0.0763 0.9027 0.0339 0.033 Uiso 1 1 calc R .
C71 C -0.0601(3) 0.6694(3) 0.36283(19) 0.0171(7) Uani 1 1 d . .
C72 C -0.0418(3) 0.5884(3) 0.4088(2) 0.0231(8) Uani 1 1 d . .
H72 H 0.0272 0.5655 0.4197 0.028 Uiso 1 1 calc R .
C73 C -0.1235(4) 0.5406(3) 0.4391(2) 0.0279(9) Uani 1 1 d . .
H73 H -0.1101 0.4854 0.4706 0.033 Uiso 1 1 calc R .
C74 C -0.2244(3) 0.5736(3) 0.4234(2) 0.0293(9) Uani 1 1 d . .
H74 H -0.2801 0.5410 0.4442 0.035 Uiso 1 1 calc R .
C75 C -0.2441(3) 0.6544(3) 0.3771(2) 0.0276(9) Uani 1 1 d . .
H75 H -0.3131 0.6767 0.3661 0.033 Uiso 1 1 calc R .
C76 C -0.1625(3) 0.7022(3) 0.3472(2) 0.0214(8) Uani 1 1 d . .
H76 H -0.1761 0.7575 0.3159 0.026 Uiso 1 1 calc R .
C81 C 0.2605(3) 0.9418(3) 0.49082(19) 0.0165(7) Uani 1 1 d . .
C82 C 0.3455(3) 0.9007(3) 0.5244(2) 0.0178(7) Uani 1 1 d . .
H82 H 0.4010 0.8530 0.5028 0.021 Uiso 1 1 calc R .
C83 C 0.3505(3) 0.9284(3) 0.5887(2) 0.0237(8) Uani 1 1 d . .
H83 H 0.4094 0.9002 0.6107 0.028 Uiso 1 1 calc R .
C84 C 0.2690(3) 0.9974(3) 0.6212(2) 0.0220(8) Uani 1 1 d . .
H84 H 0.2717 1.0158 0.6656 0.026 Uiso 1 1 calc R .
C85 C 0.1839(3) 1.0392(3) 0.5885(2) 0.0220(8) Uani 1 1 d . .
H85 H 0.1281 1.0861 0.6106 0.026 Uiso 1 1 calc R .
C86 C 0.1798(3) 1.0129(3) 0.5237(2) 0.0188(7) Uani 1 1 d . .
H86 H 0.1220 1.0431 0.5012 0.023 Uiso 1 1 calc R .
C1S C 0.6878(5) 0.9035(4) -0.0594(3) 0.0472(13) Uani 1 1 d . .
H1SA H 0.7035 0.9543 -0.0948 0.071 Uiso 1 1 calc GR .
H1SB H 0.6426 0.9364 -0.0209 0.071 Uiso 1 1 calc GR .
H1SC H 0.6517 0.8559 -0.0769 0.071 Uiso 1 1 calc GR .
C2S C 0.7874(4) 0.8485(4) -0.0374(2) 0.0372(11) Uani 1 1 d . .
H2SA H 0.8366 0.8215 -0.0770 0.045 Uiso 1 1 calc R .
H2SB H 0.8208 0.8950 -0.0156 0.045 Uiso 1 1 calc R .
O3S O 0.7651(3) 0.7680(3) 0.00904(18) 0.0366(7) Uani 1 1 d . .
C4S C 0.8566(4) 0.7166(4) 0.0349(3) 0.0393(11) Uani 1 1 d . .
H4SA H 0.8878 0.7642 0.0573 0.047 Uiso 1 1 calc R .
H4SB H 0.9094 0.6870 -0.0023 0.047 Uiso 1 1 calc R .
C5S C 0.8271(5) 0.6353(4) 0.0845(3) 0.0437(12) Uani 1 1 d . .
H5SA H 0.8056 0.5835 0.0608 0.066 Uiso 1 1 calc GR .
H5SB H 0.7687 0.6640 0.1180 0.066 Uiso 1 1 calc GR .
H5SC H 0.8876 0.6051 0.1071 0.066 Uiso 1 1 calc GR .
loop_
_atom_site_aniso_label
_atom_site_aniso_U_11
_atom_site_aniso_U_22
_atom_site_aniso_U_33
_atom_site_aniso_U_23
_atom_site_aniso_U_13
_atom_site_aniso_U_12
Ru1 0.01019(13) 0.01089(13) 0.01695(14) -0.00141(10) -0.00115(10) -0.00194(9)
Co1 0.0167(3) 0.0120(3) 0.0202(3) -0.0025(2) -0.0004(2) -0.0023(2)
Fe1 0.0100(3) 0.0115(3) 0.0149(3) -0.0009(2) -0.0002(2) -0.0028(2)
Cl1 0.0164(4) 0.0187(4) 0.0333(5) -0.0061(4) -0.0098(4) -0.0029(3)
Cl2 0.0202(4) 0.0192(4) 0.0187(4) 0.0004(3) 0.0020(3) -0.0013(3)
P1 0.0162(4) 0.0142(4) 0.0185(4) -0.0014(3) -0.0017(3) -0.0052(3)
P2 0.0167(4) 0.0113(4) 0.0209(4) 0.0001(3) -0.0038(4) -0.0018(3)
P3 0.0134(4) 0.0132(4) 0.0215(5) -0.0022(4) 0.0017(3) -0.0025(3)
O1 0.0247(14) 0.0188(13) 0.0260(14) -0.0015(11) -0.0072(12) -0.0073(11)
O2 0.0181(13) 0.0188(13) 0.0262(14) 0.0029(11) 0.0013(11) -0.0065(10)
O3 0.0198(13) 0.0152(12) 0.0194(13) -0.0016(10) 0.0010(11) 0.0005(10)
O4 0.0198(13) 0.0179(13) 0.0257(14) 0.0018(11) -0.0057(11) -0.0021(10)
O5 0.0126(12) 0.0219(13) 0.0294(15) -0.0074(11) 0.0041(11) -0.0028(10)
O6 0.0211(13) 0.0154(12) 0.0257(14) -0.0009(11) 0.0005(11) -0.0025(10)
O7 0.0159(12) 0.0156(12) 0.0233(13) -0.0037(10) -0.0044(10) -0.0046(10)
O8 0.0231(13) 0.0160(13) 0.0207(13) 0.0025(11) -0.0103(11) 0.0000(10)
O9 0.0179(13) 0.0146(12) 0.0214(13) -0.0054(11) 0.0046(10) -0.0024(10)
N1 0.0141(14) 0.0119(13) 0.0168(15) -0.0027(12) 0.0012(12) -0.0037(11)
N2 0.0103(14) 0.0133(14) 0.0173(15) 0.0017(12) -0.0015(11) -0.0024(11)
N3 0.0126(14) 0.0173(14) 0.0129(14) -0.0056(12) 0.0009(11) -0.0024(11)
N4 0.0109(14) 0.0113(13) 0.0199(15) -0.0020(12) 0.0012(12) -0.0034(11)
N5 0.0153(15) 0.0144(14) 0.0177(15) 0.0008(12) -0.0011(12) -0.0019(11)
N6 0.0106(14) 0.0218(16) 0.0145(14) -0.0087(12) 0.0000(11) -0.0073(12)
C1 0.029(2) 0.024(2) 0.060(3) -0.022(2) 0.011(2) -0.0010(17)
C2 0.093(4) 0.017(2) 0.030(2) -0.0096(19) 0.001(3) 0.006(2)
C3 0.059(3) 0.049(3) 0.081(4) -0.044(3) -0.039(3) 0.020(3)
C4 0.046(3) 0.030(2) 0.099(4) -0.042(3) 0.046(3) -0.024(2)
C5 0.071(3) 0.016(2) 0.029(2) -0.0094(18) -0.005(2) 0.020(2)
C6 0.0181(19) 0.024(2) 0.037(2) 0.0019(18) -0.0064(17) -0.0019(16)
C7 0.026(2) 0.036(3) 0.076(4) 0.007(3) -0.002(3) 0.001(2)
C8 0.043(3) 0.030(2) 0.055(3) -0.002(2) -0.010(2) 0.002(2)
C9 0.041(3) 0.032(2) 0.052(3) -0.002(2) -0.009(2) -0.007(2)
C10 0.0210(19) 0.0207(19) 0.030(2) -0.0007(17) -0.0045(16) -0.0048(15)
C11 0.030(2) 0.029(2) 0.026(2) 0.0003(17) -0.0080(18) -0.0080(17)
C12 0.044(3) 0.043(3) 0.035(2) 0.001(2) -0.020(2) -0.010(2)
C13 0.016(2) 0.029(2) 0.044(3) 0.002(2) 0.0067(18) -0.0036(16)
C14 0.026(2) 0.066(3) 0.038(3) 0.013(3) 0.008(2) -0.018(2)
C15 0.025(2) 0.0217(19) 0.0200(19) -0.0042(16) 0.0028(16) -0.0040(15)
C16 0.033(2) 0.027(2) 0.028(2) -0.0022(18) 0.0066(18) -0.0073(18)
C17 0.027(2) 0.0198(19) 0.032(2) 0.0047(17) -0.0089(18) -0.0046(16)
C18 0.024(2) 0.033(2) 0.035(2) 0.0035(19) -0.0095(18) -0.0094(17)
C19 0.023(2) 0.0205(19) 0.029(2) -0.0020(16) -0.0003(17) -0.0073(15)
C20 0.017(2) 0.039(2) 0.038(2) 0.001(2) -0.0058(18) -0.0060(17)
C21 0.035(2) 0.0184(19) 0.032(2) 0.0019(17) 0.0037(19) -0.0033(17)
C22 0.044(3) 0.031(2) 0.029(2) 0.0001(19) -0.003(2) -0.012(2)
C31 0.0127(17) 0.0152(17) 0.0228(19) -0.0024(15) 0.0036(14) -0.0036(13)
C32 0.0180(18) 0.0171(17) 0.0212(19) 0.0016(15) 0.0042(15) -0.0070(14)
C33 0.0226(19) 0.0162(17) 0.0175(18) 0.0061(14) 0.0010(15) -0.0068(14)
C34 0.0217(19) 0.0150(17) 0.0169(18) 0.0038(14) -0.0048(15) -0.0031(14)
C35 0.0180(18) 0.0142(16) 0.0189(18) -0.0005(14) 0.0009(15) -0.0022(13)
C36 0.0137(17) 0.0176(17) 0.0189(18) -0.0020(14) 0.0003(14) -0.0036(14)
C37 0.0189(18) 0.0232(19) 0.0212(19) -0.0049(15) -0.0064(15) -0.0061(15)
C38 0.0146(17) 0.0238(19) 0.0202(18) -0.0033(15) -0.0024(14) -0.0066(14)
C39 0.0129(16) 0.0129(16) 0.0208(18) -0.0011(14) 0.0021(14) -0.0023(13)
C40 0.0112(16) 0.0170(17) 0.0205(18) -0.0022(14) -0.0015(14) -0.0034(13)
C41 0.0131(16) 0.0146(16) 0.0177(18) 0.0001(14) -0.0028(14) -0.0009(13)
C42 0.0121(16) 0.0187(17) 0.0172(17) -0.0017(14) -0.0017(14) -0.0020(13)
C43 0.0121(16) 0.0205(18) 0.0149(17) -0.0019(14) -0.0042(14) 0.0001(13)
C44 0.0113(16) 0.0137(16) 0.0167(17) -0.0052(14) -0.0003(13) 0.0017(13)
C45 0.0140(17) 0.0110(16) 0.0212(18) 0.0003(14) -0.0026(14) -0.0004(13)
C46 0.0161(17) 0.0107(16) 0.0204(18) -0.0018(14) -0.0018(14) 0.0003(13)
C47 0.0162(18) 0.0209(18) 0.0202(18) -0.0040(15) -0.0008(15) -0.0040(14)
C48 0.0154(17) 0.0180(17) 0.026(2) -0.0020(15) -0.0028(15) -0.0051(14)
C49 0.0121(16) 0.0116(16) 0.0215(18) -0.0008(14) -0.0018(14) -0.0029(13)
C50 0.0148(17) 0.0096(16) 0.0259(19) -0.0002(14) -0.0006(15) -0.0028(13)
C51 0.0149(17) 0.0161(17) 0.0209(18) -0.0054(14) 0.0005(14) -0.0040(13)
C52 0.020(2) 0.027(2) 0.026(2) 0.0049(17) -0.0012(16) -0.0023(16)
C53 0.016(2) 0.040(2) 0.037(2) 0.003(2) -0.0031(18) 0.0016(17)
C54 0.0131(18) 0.039(2) 0.036(2) -0.002(2) 0.0038(17) -0.0115(17)
C55 0.022(2) 0.026(2) 0.026(2) 0.0003(17) 0.0032(16) -0.0105(16)
C56 0.0181(18) 0.0162(17) 0.0219(18) -0.0009(15) -0.0027(15) -0.0032(14)
C61 0.0189(18) 0.025(2) 0.0208(19) 0.0014(16) -0.0002(15) -0.0117(15)
C62 0.028(2) 0.031(2) 0.022(2) -0.0039(17) 0.0008(17) -0.0094(17)
C63 0.038(2) 0.044(3) 0.023(2) -0.013(2) 0.0024(19) -0.014(2)
C64 0.033(2) 0.065(3) 0.018(2) -0.001(2) -0.0033(18) -0.028(2)
C65 0.029(2) 0.048(3) 0.026(2) 0.009(2) -0.0073(18) -0.018(2)
C66 0.026(2) 0.032(2) 0.025(2) 0.0003(18) -0.0044(17) -0.0119(17)
C71 0.0173(18) 0.0183(17) 0.0179(17) -0.0051(14) -0.0021(14) -0.0076(14)
C72 0.0208(19) 0.026(2) 0.024(2) -0.0020(16) -0.0003(16) -0.0095(16)
C73 0.033(2) 0.027(2) 0.023(2) -0.0060(17) 0.0082(17) -0.0146(18)
C74 0.026(2) 0.035(2) 0.031(2) -0.0130(19) 0.0081(17) -0.0185(18)
C75 0.0160(18) 0.039(2) 0.031(2) -0.0164(19) 0.0019(16) -0.0120(17)
C76 0.0148(18) 0.028(2) 0.0217(19) -0.0071(16) 0.0008(15) -0.0063(15)
C81 0.0168(17) 0.0151(17) 0.0184(18) -0.0004(14) -0.0024(14) -0.0052(14)
C82 0.0145(17) 0.0151(17) 0.0221(18) 0.0010(14) 0.0022(14) -0.0030(13)
C83 0.0215(19) 0.0193(18) 0.031(2) 0.0016(17) -0.0101(17) -0.0026(15)
C84 0.0219(19) 0.0248(19) 0.0205(19) -0.0067(16) -0.0030(16) -0.0054(15)
C85 0.0209(19) 0.0216(19) 0.0234(19) -0.0045(16) -0.0003(16) -0.0041(15)
C86 0.0127(17) 0.0201(18) 0.0224(19) 0.0009(15) -0.0014(14) -0.0013(14)
C1S 0.051(3) 0.042(3) 0.044(3) 0.005(2) -0.008(3) 0.001(2)
C2S 0.048(3) 0.037(3) 0.027(2) 0.004(2) -0.003(2) -0.014(2)
O3S 0.0361(18) 0.0361(17) 0.0415(19) 0.0072(15) -0.0116(15) -0.0148(14)
C4S 0.040(3) 0.041(3) 0.042(3) 0.009(2) -0.015(2) -0.018(2)
C5S 0.049(3) 0.051(3) 0.039(3) 0.014(2) -0.016(2) -0.027(2)
loop_
_atom_type_symbol
_atom_type_description
_atom_type_scat_dispersion_real
_atom_type_scat_dispersion_imag
_atom_type_scat_source
C C 0.0181 0.0091 'International Tables Vol C Tables 4.2.6.8 and 6.1.1.4'
H H 0.0000 0.0000 'International Tables Vol C Tables 4.2.6.8 and 6.1.1.4'
Cl Cl 0.3639 0.7018 'International Tables Vol C Tables 4.2.6.8 and 6.1.1.4'
Co Co -2.3653 3.6143 'International Tables Vol C Tables 4.2.6.8 and 6.1.1.4'
Fe Fe -1.1336 3.1974 'International Tables Vol C Tables 4.2.6.8 and 6.1.1.4'
N N 0.0311 0.0180 'International Tables Vol C Tables 4.2.6.8 and 6.1.1.4'
O O 0.0492 0.0322 'International Tables Vol C Tables 4.2.6.8 and 6.1.1.4'
P P 0.2955 0.4335 'International Tables Vol C Tables 4.2.6.8 and 6.1.1.4'
Ru Ru 0.0552 3.2960 'International Tables Vol C Tables 4.2.6.8 and 6.1.1.4'
loop_
_geom_angle_atom_site_label_1
_geom_angle_atom_site_label_2
_geom_angle_atom_site_label_3
_geom_angle
Cl2 Ru1 Cl1 90.77(3)
O7 Ru1 Cl1 174.03(7)
O7 Ru1 Cl2 90.44(8)
O7 Ru1 O8 87.64(10)
O8 Ru1 Cl1 86.67(7)
O8 Ru1 Cl2 83.72(8)
O9 Ru1 Cl1 90.48(8)
O9 Ru1 Cl2 168.35(8)
O9 Ru1 O7 87.17(10)
O9 Ru1 O8 84.80(11)
N6 Ru1 Cl1 94.47(10)
N6 Ru1 Cl2 95.54(10)
N6 Ru1 O7 91.23(12)
N6 Ru1 O8 178.65(12)
N6 Ru1 O9 95.91(12)
P1 Co1 P3 93.52(4)
P2 Co1 P1 88.90(4)
P2 Co1 P3 89.49(4)
C1 Co1 P1 158.35(15)
C1 Co1 P2 109.27(17)
C1 Co1 P3 98.17(14)
C1 Co1 C2 38.5(2)
C2 Co1 P1 122.99(19)
C2 Co1 P2 147.68(19)
C2 Co1 P3 93.22(16)
C3 Co1 P1 93.81(18)
C3 Co1 P2 148.9(2)
C3 Co1 P3 121.2(2)
C3 Co1 C1 64.5(2)
C3 Co1 C2 37.6(3)
C4 Co1 P1 97.62(16)
C4 Co1 P2 108.9(2)
C4 Co1 P3 158.59(18)
C4 Co1 C1 65.93(19)
C4 Co1 C2 65.4(2)
C4 Co1 C3 40.1(3)
C4 Co1 C5 40.2(3)
C5 Co1 P1 133.66(18)
C5 Co1 P2 89.73(14)
C5 Co1 P3 132.79(18)
C5 Co1 C1 38.9(2)
C5 Co1 C2 65.18(19)
C5 Co1 C3 66.3(2)
N1 Fe1 N5 88.35(12)
N2 Fe1 N1 89.83(13)
N2 Fe1 N5 87.88(12)
N3 Fe1 N1 173.75(12)
N3 Fe1 N2 89.56(13)
N3 Fe1 N4 90.80(12)
N3 Fe1 N5 85.41(12)
N4 Fe1 N1 89.34(13)
N4 Fe1 N2 175.64(12)
N4 Fe1 N5 87.82(12)
N6 Fe1 N1 97.24(13)
N6 Fe1 N2 94.25(13)
N6 Fe1 N3 89.01(14)
N6 Fe1 N4 90.10(13)
N6 Fe1 N5 174.01(14)
O1 P1 Co1 113.13(11)
O2 P1 Co1 108.56(11)
O2 P1 O1 98.42(15)
O7 P1 Co1 119.17(11)
O7 P1 O1 105.30(15)
O7 P1 O2 110.29(15)
O3 P2 Co1 111.19(11)
O3 P2 O4 102.33(15)
O4 P2 Co1 107.04(12)
O8 P2 Co1 116.89(11)
O8 P2 O3 107.85(15)
O8 P2 O4 110.57(15)
O5 P3 Co1 111.63(11)
O6 P3 Co1 107.34(11)
O6 P3 O5 100.40(15)
O9 P3 Co1 121.50(11)
O9 P3 O5 105.17(15)
O9 P3 O6 108.77(15)
C11 O1 P1 121.1(2)
C13 O2 P1 117.2(3)
C15 O3 P2 121.8(2)
C17 O4 P2 117.5(2)
C19 O5 P3 121.1(2)
C21 O6 P3 116.5(3)
P1 O7 Ru1 129.01(16)
P2 O8 Ru1 134.55(17)
P3 O9 Ru1 129.80(15)
C31 N1 Fe1 127.3(3)
C34 N1 Fe1 126.6(2)
C34 N1 C31 106.0(3)
C36 N2 Fe1 127.1(2)
C36 N2 C39 106.3(3)
C39 N2 Fe1 126.2(3)
C41 N3 Fe1 126.3(2)
C41 N3 C44 105.9(3)
C44 N3 Fe1 127.3(2)
C46 N4 Fe1 126.7(2)
C49 N4 Fe1 126.6(3)
C49 N4 C46 106.4(3)
C6 N5 Fe1 121.2(3)
C10 N5 Fe1 121.6(3)
C10 N5 C6 116.7(3)
Fe1 N6 Ru1 172.7(2)
C2 C1 Co1 71.3(3)
C2 C1 C5 108.9(5)
C5 C1 Co1 70.2(3)
C1 C2 Co1 70.2(3)
C3 C2 Co1 70.5(3)
C3 C2 C1 109.3(5)
C2 C3 Co1 71.9(3)
C2 C3 C4 108.5(5)
C4 C3 Co1 69.1(3)
C3 C4 Co1 70.9(3)
C3 C4 C5 106.5(5)
C5 C4 Co1 70.7(3)
C1 C5 Co1 70.9(3)
C1 C5 C4 106.8(5)
C4 C5 Co1 69.1(3)
N5 C6 C7 122.7(4)
C6 C7 C8 119.5(5)
C9 C8 C7 118.4(5)
C10 C9 C8 118.9(5)
N5 C10 C9 123.5(4)
O1 C11 C12 106.8(4)
O2 C13 C14 109.1(4)
O3 C15 C16 106.7(3)
O4 C17 C18 107.7(4)
O5 C19 C20 107.2(3)
O6 C21 C22 110.1(4)
N1 C31 C32 110.0(3)
N1 C31 C50 125.0(3)
C50 C31 C32 124.9(3)
C33 C32 C31 107.5(3)
C32 C33 C34 106.9(3)
N1 C34 C33 109.5(3)
N1 C34 C35 126.3(4)
C35 C34 C33 124.0(4)
C34 C35 C36 123.6(4)
C34 C35 C61 119.9(3)
C36 C35 C61 116.4(3)
N2 C36 C35 125.8(3)
N2 C36 C37 109.7(3)
C35 C36 C37 124.3(4)
C38 C37 C36 107.0(3)
C37 C38 C39 107.5(3)
N2 C39 C38 109.3(3)
N2 C39 C40 125.4(4)
C40 C39 C38 125.1(3)
C39 C40 C41 123.4(4)
C39 C40 C71 118.9(3)
C41 C40 C71 117.6(3)
N3 C41 C40 126.2(3)
N3 C41 C42 110.0(3)
C40 C41 C42 123.8(3)
C43 C42 C41 106.8(3)
C42 C43 C44 107.9(3)
N3 C44 C43 109.4(3)
N3 C44 C45 124.4(3)
C45 C44 C43 126.0(3)
C44 C45 C46 125.0(3)
C44 C45 C81 116.4(3)
C46 C45 C81 118.3(3)
N4 C46 C45 125.7(3)
N4 C46 C47 109.4(3)
C45 C46 C47 124.9(4)
C48 C47 C46 107.4(3)
C47 C48 C49 107.5(3)
N4 C49 C48 109.2(3)
N4 C49 C50 126.4(3)
C50 C49 C48 124.1(3)
C31 C50 C51 119.0(3)
C49 C50 C31 123.3(3)
C49 C50 C51 117.7(3)
C52 C51 C50 120.2(3)
C52 C51 C56 119.0(4)
C56 C51 C50 120.7(3)
C53 C52 C51 120.3(4)
C52 C53 C54 120.6(4)
C53 C54 C55 119.6(4)
C56 C55 C54 119.9(4)
C55 C56 C51 120.5(4)
C62 C61 C35 120.8(4)
C62 C61 C66 119.2(4)
C66 C61 C35 119.9(4)
C61 C62 C63 120.5(4)
C64 C63 C62 119.9(4)
C63 C64 C65 120.1(4)
C64 C65 C66 119.8(5)
C61 C66 C65 120.5(4)
C72 C71 C40 119.9(3)
C72 C71 C76 118.9(4)
C76 C71 C40 121.2(4)
C71 C72 C73 120.7(4)
C74 C73 C72 119.9(4)
C73 C74 C75 120.1(4)
C76 C75 C74 119.8(4)
C75 C76 C71 120.6(4)
C82 C81 C45 120.5(3)
C82 C81 C86 118.3(3)
C86 C81 C45 121.2(3)
C83 C82 C81 121.1(3)
C82 C83 C84 120.0(4)
C85 C84 C83 119.7(4)
C84 C85 C86 120.3(4)
C85 C86 C81 120.6(4)
O3S C2S C1S 109.2(4)
C4S O3S C2S 111.6(4)
O3S C4S C5S 108.7(4)
loop_
_geom_bond_atom_site_label_1
_geom_bond_atom_site_label_2
_geom_bond_distance
Ru1 Cl1 2.3368(9)
Ru1 Cl2 2.3260(9)
Ru1 O7 2.083(2)
Ru1 O8 2.124(3)
Ru1 O9 2.066(3)
Ru1 N6 1.704(3)
Co1 P1 2.1665(11)
Co1 P2 2.1504(11)
Co1 P3 2.1692(11)
Co1 C1 2.076(4)
Co1 C2 2.089(5)
Co1 C3 2.072(5)
Co1 C4 2.048(5)
Co1 C5 2.069(4)
Fe1 N1 2.009(3)
Fe1 N2 2.000(3)
Fe1 N3 1.989(3)
Fe1 N4 1.990(3)
Fe1 N5 2.135(3)
Fe1 N6 1.683(3)
P1 O1 1.610(3)
P1 O2 1.594(3)
P1 O7 1.515(3)
P2 O3 1.598(3)
P2 O4 1.602(3)
P2 O8 1.507(3)
P3 O5 1.615(3)
P3 O6 1.595(3)
P3 O9 1.527(3)
O1 C11 1.442(5)
O2 C13 1.464(5)
O3 C15 1.464(5)
O4 C17 1.477(5)
O5 C19 1.453(5)
O6 C21 1.462(5)
N1 C31 1.375(5)
N1 C34 1.373(5)
N2 C36 1.373(5)
N2 C39 1.376(5)
N3 C41 1.375(5)
N3 C44 1.388(5)
N4 C46 1.375(5)
N4 C49 1.374(5)
N5 C6 1.365(5)
N5 C10 1.361(5)
C1 C2 1.373(8)
C1 C5 1.381(8)
C2 C3 1.342(10)
C3 C4 1.411(10)
C4 C5 1.414(9)
C6 C7 1.365(7)
C7 C8 1.396(8)
C8 C9 1.392(8)
C9 C10 1.366(7)
C11 C12 1.520(6)
C13 C14 1.493(6)
C15 C16 1.494(6)
C17 C18 1.495(6)
C19 C20 1.513(6)
C21 C22 1.494(6)
C31 C32 1.432(5)
C31 C50 1.398(6)
C32 C33 1.340(6)
C33 C34 1.452(5)
C34 C35 1.382(5)
C35 C36 1.394(5)
C35 C61 1.505(5)
C36 C37 1.434(5)
C37 C38 1.350(6)
C38 C39 1.433(5)
C39 C40 1.390(5)
C40 C41 1.390(5)
C40 C71 1.494(5)
C41 C42 1.438(5)
C42 C43 1.352(5)
C43 C44 1.427(5)
C44 C45 1.391(5)
C45 C46 1.391(5)
C45 C81 1.493(5)
C46 C47 1.435(5)
C47 C48 1.342(6)
C48 C49 1.438(5)
C49 C50 1.395(5)
C50 C51 1.498(5)
C51 C52 1.397(6)
C51 C56 1.400(6)
C52 C53 1.386(6)
C53 C54 1.391(7)
C54 C55 1.394(6)
C55 C56 1.391(5)
C61 C62 1.381(6)
C61 C66 1.392(6)
C62 C63 1.402(6)
C63 C64 1.382(8)
C64 C65 1.383(7)
C65 C66 1.398(6)
C71 C72 1.390(6)
C71 C76 1.404(6)
C72 C73 1.392(6)
C73 C74 1.388(7)
C74 C75 1.395(7)
C75 C76 1.388(6)
C81 C82 1.392(5)
C81 C86 1.406(5)
C82 C83 1.386(6)
C83 C84 1.393(6)
C84 C85 1.386(6)
C85 C86 1.386(6)
C1S C2S 1.485(8)
C2S O3S 1.425(6)
O3S C4S 1.418(6)
C4S C5S 1.496(7)
