#------------------------------------------------------------------------------
#$Date: 2017-05-05 00:33:21 +0300 (Fri, 05 May 2017) $
#$Revision: 196112 $
#$URL: file:///home/coder/svn-repositories/cod/cif/4/34/56/4345636.cif $
#------------------------------------------------------------------------------
#
# This file is available in the Crystallography Open Database (COD),
# http://www.crystallography.net/
#
# All data on this site have been placed in the public domain by the
# contributors.
#
data_4345636
loop_
_publ_author_name
'Gallagher, Audrey T.'
'Malliakas, Christos D.'
'Harris, T. David'
_publ_section_title
;
 CO Binding at a Four-Coordinate Cobaltous Porphyrin Site in a
 Metal-Organic Framework: Structural, EPR, and Gas Adsorption Analysis.
;
_journal_issue                   8
_journal_name_full               'Inorganic chemistry'
_journal_page_first              4655
_journal_page_last               4662
_journal_paper_doi               10.1021/acs.inorgchem.7b00292
_journal_volume                  56
_journal_year                    2017
_chemical_formula_moiety         '0.25(C587.61 H288 Co12 N48 O267.61 Zr48)'
_chemical_formula_sum            'C146.9 H72 Co3 N12 O66.9 Zr12'
_chemical_formula_weight         4346.86
_space_group_crystal_system      cubic
_space_group_IT_number           229
_space_group_name_Hall           '-I 4 2 3'
_space_group_name_H-M_alt        'I m -3 m'
_symmetry_space_group_name_Hall  '-I 4 2 3'
_symmetry_space_group_name_H-M   'I m -3 m'
_atom_sites_solution_hydrogens   geom
_audit_creation_date             2017-01-13
_audit_creation_method
;
Olex2 1.2
(compiled 2015.09.30 svn.r3233 for OlexSys, GUI svn.r5103)
;
_cell_angle_alpha                90
_cell_angle_beta                 90
_cell_angle_gamma                90
_cell_formula_units_Z            4
_cell_length_a                   38.4988(8)
_cell_length_b                   38.4988(8)
_cell_length_c                   38.4988(8)
_cell_measurement_reflns_used    7883
_cell_measurement_temperature    200
_cell_measurement_theta_max      61.389
_cell_measurement_theta_min      2.812
_cell_volume                     57061(2)
_computing_cell_refinement       'SAINT V8.34A (Bruker, 2013)'
_computing_data_collection       'APEX2 V2014.11-0 (Bruker, 2014)'
_computing_data_reduction        'Bruker SAINT'
_computing_molecular_graphics    'Olex2 (Dolomanov et al., 2009)'
_computing_publication_material  'Olex2 (Dolomanov et al., 2009)'
_computing_structure_refinement  'XL (Sheldrick, 2008)'
_diffrn_ambient_temperature      200.0
_diffrn_detector_area_resol_mean 8
_diffrn_measured_fraction_theta_full 1.000
_diffrn_measured_fraction_theta_max 1.000
_diffrn_measurement_device_type  'Bruker Kappa APEX CCD area detector'
_diffrn_measurement_method       '\w and \f scans'
_diffrn_radiation_monochromator  'QuazarTM optics'
_diffrn_radiation_type           CuK\a
_diffrn_radiation_wavelength     1.54178
_diffrn_reflns_av_R_equivalents  0.1630
_diffrn_reflns_av_unetI/netI     0.0528
_diffrn_reflns_Laue_measured_fraction_full 1.000
_diffrn_reflns_Laue_measured_fraction_max 1.000
_diffrn_reflns_limit_h_max       43
_diffrn_reflns_limit_h_min       -41
_diffrn_reflns_limit_k_max       41
_diffrn_reflns_limit_k_min       -43
_diffrn_reflns_limit_l_max       38
_diffrn_reflns_limit_l_min       -43
_diffrn_reflns_number            141824
_diffrn_reflns_point_group_measured_fraction_full 1.000
_diffrn_reflns_point_group_measured_fraction_max 1.000
_diffrn_reflns_theta_full        61.385
_diffrn_reflns_theta_max         61.385
_diffrn_reflns_theta_min         2.295
_diffrn_source                   microsource
_diffrn_standards_number         0
_exptl_absorpt_coefficient_mu    2.618
_exptl_absorpt_correction_T_max  0.3189
_exptl_absorpt_correction_T_min  0.1875
_exptl_absorpt_correction_type   integration
_exptl_absorpt_process_details
'SADABS-2014/5 (Bruker,2014/5) was used for absorption correction. wR2(int) was 0.1779 before and 0.0742 after correction. The Ratio of minimum to maximum transmission is 0.5880. The \l/2 correction factor is Not present.'
_exptl_crystal_colour            red
_exptl_crystal_colour_primary    red
_exptl_crystal_density_diffrn    0.506
_exptl_crystal_description       cube
_exptl_crystal_F_000             8535
_exptl_crystal_size_max          0.392
_exptl_crystal_size_mid          0.233
_exptl_crystal_size_min          0.224
_refine_diff_density_max         2.051
_refine_diff_density_min         -0.950
_refine_diff_density_rms         0.096
_refine_ls_extinction_method     none
_refine_ls_goodness_of_fit_ref   1.288
_refine_ls_hydrogen_treatment    constr
_refine_ls_matrix_type           full
_refine_ls_number_parameters     105
_refine_ls_number_reflns         4147
_refine_ls_number_restraints     116
_refine_ls_restrained_S_all      1.377
_refine_ls_R_factor_all          0.1203
_refine_ls_R_factor_gt           0.1013
_refine_ls_shift/su_max          0.000
_refine_ls_shift/su_mean         0.000
_refine_ls_structure_factor_coef Fsqd
_refine_ls_weighting_details
'w=1/[\s^2^(Fo^2^)+(0.2000P)^2^] where P=(Fo^2^+2Fc^2^)/3'
_refine_ls_weighting_scheme      calc
_refine_ls_wR_factor_gt          0.2959
_refine_ls_wR_factor_ref         0.3145
_reflns_Friedel_coverage         0.000
_reflns_number_gt                3007
_reflns_number_total             4147
_reflns_threshold_expression     'I > 2\s(I)'
_cod_data_source_file            ic7b00292_si_005.cif
_cod_data_source_block           PCN224CoCO_200K
_cod_depositor_comments
'Adding full bibliography for 4345635--4345637.cif.'
_cod_original_cell_volume        57061(4)
_cod_original_formula_sum        'C146.90 H72 Co3 N12 O66.90 Zr12'
_cod_database_code               4345636
_shelx_space_group_comment
;
The symmetry employed for this shelxl refinement is uniquely defined
by the following loop, which should always be used as a source of
symmetry information in preference to the above space-group names.
They are only intended as comments.
;
_olex2_refinement_description
;
1. Fixed Uiso
 At 1.2 times of:
  All C(H) groups
2. Restrained distances
 O5-C9
 1.18 with sigma of 0.02
3. Rigid bond restraints
 All non-hydrogen atoms
 with sigma for 1-2 distances of 0.01 and sigma for 1-3 distances of 0.01
4. Uiso/Uaniso restraints and constraints
All non-hydrogen atoms have similar U: within 2A with sigma of 0.04 and sigma
for terminal atoms of 0.08
Uanis(Zr2) = Uanis(Zr1)
Uanis(O1) = Uanis(O3)
5. Others
 Sof(Zr2)=0.5*(1-FVAR(2))
 Sof(Zr1)=0.5*FVAR(2)
 Fixed Sof: C9(0.12095) O5(0.12095)
6.a Aromatic/amide H refined with riding coordinates:
 C1(H1), C6(H6), C5(H5)
;
_shelx_res_file
;
    PCN224CoCO_200K.res created by SHELXL-2014/7

TITL PCN224CoCO_200K in Im-3m #229
REM reset to Im-3m #229
CELL 1.54178 38.4988 38.4988 38.4988 90 90 90
ZERR 4 0.0008 0.0008 0.0008 0 0 0
LATT 2
SYMM -Y,+X,+Z
SYMM -X,-Y,+Z
SYMM +Y,-X,+Z
SYMM +X,-Z,+Y
SYMM +X,-Y,-Z
SYMM +X,+Z,-Y
SYMM +Z,+Y,-X
SYMM -X,+Y,-Z
SYMM -Z,+Y,+X
SYMM +Z,+X,+Y
SYMM +Y,+Z,+X
SYMM -Y,-Z,+X
SYMM +Z,-X,-Y
SYMM -Y,+Z,-X
SYMM -Z,-X,+Y
SYMM -Z,+X,-Y
SYMM +Y,-Z,-X
SYMM +Y,+X,-Z
SYMM -Y,-X,-Z
SYMM -X,+Z,+Y
SYMM -X,-Z,-Y
SYMM +Z,-Y,+X
SYMM -Z,-Y,-X
SFAC C H Co N O Zr
UNIT 587.61 288 12 48 267.61 48
DFIX 1.18 O5 C9
DELU
SIMU
EADP Zr2 Zr1
EADP O1 O3

L.S. 100
PLAN  20
TEMP -73.15
BOND
fmap 2
acta
REM <olex2.extras>
REM <HklSrc "%.\\PCN224CoCO_200K.hkl">
REM </olex2.extras>

WGHT    0.200000
FVAR       0.00701   0.49266
ZR1   6    0.299335    0.299335    0.233588    20.50000    0.07315    0.07315 =
         0.07685    0.03809    0.03809    0.03360
ZR2   6    0.215037    0.278369    0.215037   -20.50000    0.07315    0.07315 =
         0.07685    0.03809    0.03809    0.03360
C4    1    0.409676    0.250000    0.090324    10.50000    0.03588    0.24848 =
         0.03588    0.00881    0.00569    0.00881
N1    4    0.500000    0.249526    0.050997    10.50000    0.03036    0.27167 =
         0.03264    0.00559    0.00000    0.00000
C2    1    0.471554    0.249006    0.072325    11.00000    0.03576    0.26687 =
         0.03789    0.00981    0.01193    0.00594
O1    5    0.327623    0.277720    0.185414    11.00000    0.13262    0.21295 =
         0.11000    0.08634    0.07523    0.09027
C1    1    0.483042    0.246950    0.108649    11.00000    0.04799    0.31529 =
         0.02860    0.00680    0.00381   -0.00118
AFIX  43
H1    2    0.468454    0.245827    0.128519    11.00000   -1.20000
AFIX   0
C3    1    0.437338    0.250000    0.062662    10.50000    0.03585    0.24982 =
         0.03585   -0.00158    0.00734   -0.00158
C7    1    0.359191    0.250000    0.140809    10.50000    0.07497    0.19442 =
         0.07497    0.06158    0.05139    0.06158
C6    1    0.365977    0.220754    0.122772    11.00000    0.07777    0.21123 =
         0.08664    0.02664    0.04523    0.02772
AFIX  43
H6    2    0.352939    0.200267    0.127155    11.00000   -1.20000
AFIX   0
C5    1    0.392137    0.220543    0.097665    11.00000    0.07112    0.23626 =
         0.10462    0.00296    0.04455    0.01447
AFIX  43
H5    2    0.397601    0.199646    0.085734    11.00000   -1.20000
AFIX   0
O3    5    0.244424    0.308042    0.244424    10.50000    0.13262    0.21295 =
         0.11000    0.08634    0.07523    0.09027
O4    5    0.281741    0.281741    0.281741    10.16667    0.04922    0.04922 =
         0.04922    0.02069    0.02069    0.02069
O2    5    0.305563    0.342458    0.249781    11.00000    0.42819    0.15622 =
         0.20561    0.04656    0.04551   -0.07850
CO1   3    0.500000    0.250000    0.000000    10.12500    0.02344    0.27469 =
         0.02344    0.00000    0.00000    0.00000
C9    1    0.500000    0.305569    0.000000    10.12095    0.03369    0.27061 =
         0.04556    0.00000    0.00000    0.00000
O5    5    0.500000    0.336649    0.000000    10.12095    0.34051    0.27394 =
         0.27832    0.00000    0.00000    0.00000
C8    1    0.331735    0.250000    0.168265    10.50000    0.10322    0.18804 =
         0.10322    0.07266    0.07532    0.07266
HKLF 4

REM  PCN224CoCO_200K in Im-3m #229
REM R1 =  0.1013 for    3007 Fo > 4sig(Fo)  and  0.1203 for all    4147 data
REM    105 parameters refined using    116 restraints

END

WGHT      0.2000      0.0000

REM Highest difference peak  2.051,  deepest hole -0.950,  1-sigma level  0.096
Q1    1   0.2871  0.2871  0.2782  10.50000  0.05    1.95
Q2    1   0.2235  0.2882  0.2149  11.00000  0.05    1.57
Q3    1   0.2089  0.2916  0.2288  11.00000  0.05    1.56
Q4    1   0.3198  0.2937  0.2937  10.50000  0.05    1.12
Q5    1   0.3065  0.3065  0.2849  10.50000  0.05    0.97
Q6    1   0.3134  0.2724  0.1720  11.00000  0.05    0.66
Q7    1   0.3401  0.3401  0.2515  10.50000  0.05    0.61
Q8    1   0.3210  0.3210  0.2327  10.50000  0.05    0.56
Q9    1   0.3369  0.2781  0.1945  11.00000  0.05    0.54
Q10   1   0.2479  0.3313  0.2479  10.50000  0.05    0.53
Q11   1   0.3183  0.3183  0.2424  10.50000  0.05    0.47
Q12   1   0.2954  0.2561  0.1588  11.00000  0.05    0.47
Q13   1   0.2657  0.3521  0.2657  10.50000  0.05    0.44
Q14   1   0.3229  0.3590  0.2647  11.00000  0.05    0.38
Q15   1   0.3299  0.2526  0.2091  11.00000  0.05    0.38
Q16   1   0.2596  0.2937  0.2518  11.00000  0.05    0.37
Q17   1   0.2995  0.2540  0.1500  11.00000  0.05    0.36
Q18   1   0.3213  0.3678  0.2589  11.00000  0.05    0.35
Q19   1   0.2777  0.3401  0.2416  11.00000  0.05    0.31
Q20   1   0.2798  0.3394  0.2474  11.00000  0.05    0.31
;
_shelx_res_checksum              34113
_shelx_hkl_file
;
   0   2   0  731.06   85.83
   0   2   2  282.78   12.12
   0   3   1    0.90    0.10
   0   3   3    8.05    0.01
   0   4   0  285.07   34.04
   0   4   2   20.86    0.16
   0   4   4   17.35    0.68
   0   5   1    1.00    0.01
   0   5   3    0.02    0.02
   0   5   5   12.59    0.24
   0   6   0   44.65   14.45
   0   6   2    7.12    0.09
   0   6   4    3.71    0.04
   0   6   6    1.69    0.19
   0   7   1    1.24    0.02
   0   7   3    0.02    0.02
   0   7   5    4.37    0.09
   0   7   7   15.21    0.58
   0   8   0   28.81    3.79
   0   8   2   21.72    0.69
   0   8   4    9.06    0.24
   0   8   6    7.80    0.10
   0   8   8    1.05    0.28
   0   9   1    5.07    0.13
   0   9   3    0.53    0.02
   0   9   5    2.35    0.06
   0   9   7    1.82    0.09
   0   9   9   17.98    0.79
   0  10   0   19.16    1.23
   0  10   2   39.61    1.26
   0  10   4   21.31    0.57
   0  10   6   19.30    0.50
   0  10   8    5.19    0.15
   0  10  10    4.09    0.26
   0  11   1    0.50    0.02
   0  11   3    6.06    0.09
   0  11   5    3.90    0.11
   0  11   7    3.35    0.10
   0  11   9    0.77    0.04
   0  11  11    3.48    0.08
   0  12   0    0.00    0.05
   0  12   2   32.68    0.95
   0  12   4    1.53    0.06
   0  12   6    8.92    0.22
   0  12   8    0.16    0.03
   0  12  10    3.18    0.10
   0  12  12   35.22    1.40
   0  13   1    1.32    0.06
   0  13   3    0.48    0.04
   0  13   5   10.07    0.29
   0  13   7    2.31    0.08
   0  13   9    0.14    0.03
   0  13  11    2.83    0.10
   0  13  13   12.90    0.41
   0  14   0    9.48    0.77
   0  14   2   22.48    0.53
   0  14   4   15.57    0.41
   0  14   6    6.40    0.16
   0  14   8    1.88    0.09
   0  14  10    2.01    0.05
   0  14  12   25.50    0.59
   0  14  14   15.64    0.43
   0  15   1    0.00    0.03
   0  15   3    8.29    0.18
   0  15   5    2.70    0.10
   0  15   7    7.27    0.15
   0  15   9    0.22    0.02
   0  15  11   14.97    0.30
   0  15  13   16.63    0.34
   0  15  15    9.02    0.35
   0  16   0    0.06    0.06
   0  16   2   16.80    0.42
   0  16   4    0.07    0.02
   0  16   6    8.02    0.26
   0  16   8    1.55    0.04
   0  16  10   12.94    0.26
   0  16  12   18.61    0.38
   0  16  14    8.33    0.18
   0  16  16   21.43    0.71
   0  17   1    3.26    0.07
   0  17   3    1.07    0.04
   0  17   5   17.81    0.33
   0  17   7    0.23    0.02
   0  17   9    0.51    0.02
   0  17  11    7.34    0.14
   0  17  13    8.34    0.18
   0  17  15   15.57    0.33
   0  17  17    4.62    0.16
   0  18   0    5.85    0.25
   0  18   2    4.25    0.07
   0  18   4    9.27    0.21
   0  18   6    0.02    0.02
   0  18   8    0.04    0.02
   0  18  10    6.22    0.14
   0  18  12    4.78    0.10
   0  18  14    7.53    0.18
   0  18  16    5.04    0.12
   0  18  18   10.16    0.31
   0  19   1    0.00    0.02
   0  19   3    8.70    0.12
   0  19   5    0.66    0.03
   0  19   7    1.81    0.03
   0  19   9    1.06    0.03
   0  19  11    0.25    0.03
   0  19  13    6.51    0.13
   0  19  15    3.19    0.09
   0  19  17    7.34    0.13
   0  19  19    0.48    0.03
   0  20   0    1.33    0.13
   0  20   2    1.34    0.03
   0  20   4    1.78    0.05
   0  20   6    0.01    0.02
   0  20   8    2.66    0.06
   0  20  10    0.32    0.02
   0  20  12    7.22    0.16
   0  20  14    1.45    0.04
   0  20  16    5.59    0.11
   0  20  18    1.07    0.02
   0  20  20    6.59    0.16
   0  21   1    0.58    0.02
   0  21   3    0.14    0.02
   0  21   5    1.34    0.03
   0  21   7    0.03    0.02
   0  21   9    0.69    0.02
   0  21  11    1.11    0.03
   0  21  13    0.09    0.02
   0  21  15    1.37    0.03
   0  21  17    0.29    0.02
   0  21  19    3.37    0.05
   0  21  21    0.06    0.02
   0  22   0    0.32    0.03
   0  22   2    0.03    0.02
   0  22   4    0.31    0.02
   0  22   6    0.85    0.03
   0  22   8    0.05    0.02
   0  22  10    1.11    0.04
   0  22  12    0.20    0.02
   0  22  14    0.38    0.02
   0  22  16    0.02    0.02
   0  22  18    1.14    0.03
   0  22  20    0.04    0.02
   0  22  22    0.49    0.03
   0  23   1    0.00    0.02
   0  23   3    0.00    0.02
   0  23   5    0.15    0.02
   0  23   7    0.66    0.02
   0  23   9    0.07    0.02
   0  23  11    0.08    0.02
   0  23  13    0.00    0.01
   0  23  15    0.45    0.02
   0  23  17    0.05    0.02
   0  23  19    0.18    0.02
   0  23  21    0.21    0.02
   0  23  23    1.36    0.04
   0  24   0    1.39    0.06
   0  24   2    0.37    0.02
   0  24   4    1.69    0.04
   0  24   6    0.04    0.02
   0  24   8    0.87    0.03
   0  24  10    0.11    0.01
   0  24  12    0.19    0.01
   0  24  14    0.62    0.02
   0  24  16    0.06    0.02
   0  24  18    0.69    0.03
   0  24  20    0.12    0.02
   0  24  22    1.73    0.04
   0  24  24    0.01    0.02
   0  25   1    0.05    0.02
   0  25   3    1.33    0.03
   0  25   5    0.10    0.02
   0  25   7    0.86    0.02
   0  25   9    0.05    0.01
   0  25  11    0.00    0.01
   0  25  13    0.73    0.02
   0  25  15    0.35    0.02
   0  25  17    1.10    0.03
   0  25  19    0.75    0.02
   0  25  21    1.27    0.03
   0  25  23    0.00    0.02
   0  25  25    0.47    0.02
   0  26   0    0.89    0.05
   0  26   2    1.10    0.03
   0  26   4    0.22    0.02
   0  26   6    1.45    0.04
   0  26   8    0.16    0.02
   0  26  10    0.10    0.01
   0  26  12    0.15    0.02
   0  26  14    0.49    0.02
   0  26  16    2.39    0.05
   0  26  18    3.12    0.06
   0  26  20    2.94    0.06
   0  26  22    0.57    0.02
   0  26  24    0.60    0.02
   0  26  26    0.02    0.03
   0  27   1    0.32    0.02
   0  27   3    0.13    0.02
   0  27   5    2.04    0.04
   0  27   7    0.05    0.02
   0  27   9    0.25    0.02
   0  27  11    0.00    0.01
   0  27  13    0.07    0.01
   0  27  15    1.46    0.03
   0  27  17    1.85    0.04
   0  27  19    1.93    0.05
   0  27  21    0.67    0.03
   0  27  23    0.54    0.02
   0  27  25    0.02    0.01
   0  27  27    0.13    0.02
   0  28   0    2.23    0.12
   0  28   2    0.02    0.02
   0  28   4    2.05    0.05
   0  28   6    0.11    0.02
   0  28   8    1.15    0.03
   0  28  10    0.40    0.02
   0  28  12    0.08    0.02
   0  28  14    0.89    0.02
   0  28  16    1.86    0.04
   0  28  18    3.58    0.08
   0  28  20    2.44    0.06
   0  28  22    1.42    0.04
   0  28  24    0.12    0.02
   0  28  26    0.46    0.02
   0  28  28    1.98    0.06
   0  29   1    0.30    0.02
   0  29   3    0.51    0.02
   0  29   5    0.03    0.02
   0  29   7    0.34    0.02
   0  29   9    0.14    0.01
   0  29  11    0.03    0.01
   0  29  13    0.21    0.02
   0  29  15    0.38    0.02
   0  29  17    1.69    0.04
   0  29  19    1.13    0.04
   0  29  21    0.92    0.03
   0  29  23    0.26    0.02
   0  29  25    0.03    0.02
   0  29  27    0.65    0.02
   0  29  29    1.01    0.04
   0  30   0    0.96    0.08
   0  30   2    0.01    0.02
   0  30   4    0.49    0.02
   0  30   6    0.02    0.02
   0  30   8    0.06    0.02
   0  30  10    0.00    0.02
   0  30  12    0.16    0.02
   0  30  14    0.61    0.02
   0  30  16    3.58    0.08
   0  30  18    2.67    0.06
   0  30  20    2.96    0.07
   0  30  22    1.12    0.03
   0  30  24    0.04    0.02
   0  30  26    0.89    0.03
   0  30  28    1.88    0.05
   0  30  30    2.61    0.10
   0  31   1    0.21    0.02
   0  31   3    0.04    0.02
   0  31   5    0.09    0.02
   0  31   7    0.19    0.02
   0  31   9    0.04    0.01
   0  31  11    0.06    0.02
   0  31  13    0.03    0.02
   0  31  15    0.77    0.02
   0  31  17    0.20    0.02
   0  31  19    1.16    0.03
   0  31  21    0.48    0.02
   0  31  23    0.22    0.02
   0  31  25    0.24    0.02
   0  31  27    0.39    0.02
   0  31  29    1.18    0.05
   0  31  31    0.56    0.13
   0  32   0    0.70    0.04
   0  32   2    0.04    0.02
   0  32   4    0.30    0.02
   0  32   6    0.44    0.02
   0  32   8    0.11    0.02
   0  32  10    0.29    0.02
   0  32  12    0.08    0.02
   0  32  14    1.02    0.03
   0  32  16    0.35    0.02
   0  32  18    2.41    0.06
   0  32  20    1.00    0.03
   0  32  22    0.64    0.02
   0  32  24    0.30    0.02
   0  32  26    0.58    0.03
   0  32  28    2.01    0.05
   0  33   1    0.07    0.02
   0  33   3    0.19    0.02
   0  33   5    0.07    0.02
   0  33   7    0.03    0.02
   0  33   9    0.38    0.02
   0  33  11    0.27    0.02
   0  33  13    0.10    0.02
   0  33  15    0.17    0.02
   0  33  17    0.59    0.02
   0  33  19    0.19    0.02
   0  33  21    0.55    0.02
   0  33  23    0.05    0.02
   0  33  25    0.00    0.02
   0  33  27    0.49    0.02
   0  34   0    0.24    0.05
   0  34   2    0.06    0.02
   0  34   4    0.17    0.02
   0  34   6    0.01    0.02
   0  34   8    0.04    0.02
   0  34  10    0.00    0.02
   0  34  12    0.40    0.02
   0  34  14    0.00    0.02
   0  34  16    1.61    0.04
   0  34  18    0.68    0.02
   0  34  20    0.98    0.03
   0  34  22    0.01    0.02
   0  34  24    0.00    0.02
   0  34  26    0.59    0.02
   0  35   1    0.17    0.02
   0  35   3    0.08    0.02
   0  35   5    0.07    0.02
   0  35   7    0.02    0.02
   0  35   9    0.11    0.02
   0  35  11    0.01    0.02
   0  35  13    0.76    0.02
   0  35  15    0.13    0.02
   0  35  17    0.02    0.02
   0  35  19    0.14    0.02
   0  35  21    0.03    0.02
   0  35  23    0.07    0.02
   0  35  25    0.15    0.02
   0  36   0    1.21    0.08
   0  36   2    0.07    0.02
   0  36   4    0.60    0.03
   0  36   6    0.04    0.02
   0  36   8    0.35    0.02
   0  36  10    0.03    0.02
   0  36  12    0.57    0.02
   0  36  14    0.10    0.02
   0  36  16    0.06    0.02
   0  36  18    0.10    0.02
   0  36  20    0.03    0.02
   0  36  22    0.02    0.02
   0  36  24    0.21    0.02
   0  37   1    0.15    0.02
   0  37   3    0.10    0.02
   0  37   5    0.16    0.02
   0  37   7    0.06    0.02
   0  37   9    0.03    0.02
   0  37  11    0.28    0.02
   0  37  13    0.03    0.02
   0  37  15    0.22    0.02
   0  37  17    0.00    0.02
   0  37  19    0.10    0.02
   0  37  21    0.00    0.02
   0  37  23    0.06    0.02
   0  38   0    0.10    0.04
   0  38   2    0.05    0.02
   0  38   4    0.30    0.02
   0  38   6    0.03    0.02
   0  38   8    0.12    0.02
   0  38  10    0.06    0.02
   0  38  12    0.11    0.02
   0  38  14    0.07    0.02
   0  38  16    0.05    0.02
   0  38  18    0.05    0.02
   0  38  20    0.00    0.02
   0  39   1    0.04    0.02
   0  39   3    0.09    0.02
   0  39   5    0.16    0.02
   0  39   7    0.06    0.02
   0  39   9    0.07    0.02
   0  39  11    0.04    0.02
   0  39  13    0.04    0.02
   0  39  15    0.03    0.04
   0  39  17    0.13    0.02
   0  39  19    0.00    0.03
   0  40   0    0.13    0.04
   0  40   2    0.00    0.02
   0  40   4    0.24    0.02
   0  40   6    0.01    0.02
   0  40   8    0.12    0.02
   0  40  10    0.00    0.02
   0  40  12    0.10    0.02
   0  40  14    0.02    0.02
   0  40  16    0.27    0.02
   0  41   1    0.02    0.02
   0  41   3    0.12    0.02
   0  41   5    0.00    0.02
   0  41   7    0.11    0.02
   0  41   9    0.01    0.03
   0  41  11    0.00    0.02
   0  41  13    0.09    0.02
   0  41  15    0.02    0.02
   0  42   0    0.34    0.05
   0  42   2    0.02    0.02
   0  42   4    0.16    0.02
   0  42   6    0.00    0.02
   0  42   8    0.08    0.02
   0  42  10    0.00    0.02
   0  42  12    0.05    0.02
   0  43   1    0.09    0.02
   0  43   3    0.01    0.02
   0  43   5    0.03    0.02
   0  43   7    0.02    0.02
   1   2   1   37.15    0.39
   1   3   2    1.07    0.05
   1   4   1   25.96    0.34
   1   4   3    1.15    0.02
   1   5   2    1.46    0.02
   1   5   4    1.81    0.02
   1   6   1   16.84    0.22
   1   6   3    1.00    0.02
   1   6   5    0.87    0.02
   1   7   2    0.98    0.01
   1   7   4    0.72    0.01
   1   7   6    0.39    0.02
   1   8   1    8.65    0.16
   1   8   3    2.83    0.04
   1   8   5    0.65    0.02
   1   8   7    1.12    0.04
   1   9   2    3.66    0.04
   1   9   4    1.53    0.03
   1   9   6    0.71    0.02
   1   9   8    0.06    0.02
   1  10   1    4.89    0.08
   1  10   3    4.03    0.07
   1  10   5    0.17    0.02
   1  10   7    0.72    0.03
   1  10   9    0.24    0.02
   1  11   2    0.52    0.02
   1  11   4    0.49    0.02
   1  11   6    0.08    0.02
   1  11   8    0.42    0.02
   1  11  10    0.77    0.03
   1  12   1    2.91    0.06
   1  12   3    3.25    0.05
   1  12   5    0.01    0.02
   1  12   7    0.18    0.02
   1  12   9    0.04    0.02
   1  12  11    0.43    0.03
   1  13   2    1.26    0.02
   1  13   4    0.77    0.03
   1  13   6    0.82    0.02
   1  13   8    0.44    0.02
   1  13  10    0.30    0.02
   1  13  12    0.18    0.01
   1  14   1    1.24    0.03
   1  14   3    2.69    0.04
   1  14   5    0.00    0.02
   1  14   7    0.15    0.02
   1  14   9    0.03    0.02
   1  14  11    0.11    0.01
   1  14  13    0.19    0.01
   1  15   2    0.02    0.02
   1  15   4    0.00    0.02
   1  15   6    0.01    0.02
   1  15   8    0.13    0.01
   1  15  10    0.26    0.01
   1  15  12    0.32    0.01
   1  15  14    0.30    0.02
   1  16   1    0.49    0.03
   1  16   3    1.94    0.03
   1  16   5    0.01    0.01
   1  16   7    0.04    0.01
   1  16   9    0.03    0.01
   1  16  11    0.03    0.01
   1  16  13    0.25    0.01
   1  16  15    0.16    0.01
   1  17   2    2.93    0.03
   1  17   4    1.75    0.03
   1  17   6    1.12    0.02
   1  17   8    0.26    0.01
   1  17  10    0.04    0.01
   1  17  12    0.01    0.01
   1  17  14    0.01    0.01
   1  17  16    0.01    0.01
   1  18   1    0.31    0.02
   1  18   3    0.85    0.02
   1  18   5    0.01    0.01
   1  18   7    0.01    0.01
   1  18   9    0.01    0.01
   1  18  11    0.00    0.01
   1  18  13    0.22    0.01
   1  18  15    0.06    0.01
   1  18  17    0.00    0.02
   1  19   2    0.01    0.01
   1  19   4    0.02    0.01
   1  19   6    0.05    0.01
   1  19   8    0.13    0.01
   1  19  10    0.20    0.01
   1  19  12    0.20    0.01
   1  19  14    0.08    0.01
   1  19  16    0.00    0.02
   1  19  18    0.01    0.01
   1  20   1    0.25    0.02
   1  20   3    0.17    0.01
   1  20   5    0.17    0.01
   1  20   7    0.14    0.01
   1  20   9    0.15    0.01
   1  20  11    0.05    0.01
   1  20  13    0.23    0.01
   1  20  15    0.02    0.02
   1  20  17    0.00    0.01
   1  20  19    0.01    0.01
   1  21   2    0.45    0.01
   1  21   4    0.10    0.01
   1  21   6    0.00    0.01
   1  21   8    0.01    0.01
   1  21  10    0.03    0.01
   1  21  12    0.03    0.01
   1  21  14    0.00    0.02
   1  21  16    0.09    0.01
   1  21  18    0.07    0.01
   1  21  20    0.02    0.01
   1  22   1    0.24    0.02
   1  22   3    0.01    0.01
   1  22   5    0.46    0.01
   1  22   7    0.29    0.01
   1  22   9    0.30    0.01
   1  22  11    0.14    0.01
   1  22  13    0.17    0.01
   1  22  15    0.03    0.01
   1  22  17    0.01    0.01
   1  22  19    0.03    0.01
   1  22  21    0.00    0.01
   1  23   2    0.02    0.01
   1  23   4    0.10    0.01
   1  23   6    0.09    0.01
   1  23   8    0.18    0.01
   1  23  10    0.20    0.01
   1  23  12    0.10    0.01
   1  23  14    0.00    0.01
   1  23  16    0.03    0.01
   1  23  18    0.05    0.01
   1  23  20    0.05    0.01
   1  23  22    0.00    0.01
   1  24   1    0.23    0.02
   1  24   3    0.17    0.01
   1  24   5    0.51    0.02
   1  24   7    0.50    0.02
   1  24   9    0.43    0.01
   1  24  11    0.12    0.01
   1  24  13    0.07    0.01
   1  24  15    0.03    0.01
   1  24  17    0.04    0.01
   1  24  19    0.06    0.01
   1  24  21    0.01    0.01
   1  24  23    0.00    0.01
   1  25   2    0.05    0.01
   1  25   4    0.07    0.01
   1  25   6    0.08    0.01
   1  25   8    0.10    0.01
   1  25  10    0.06    0.01
   1  25  12    0.01    0.01
   1  25  14    0.02    0.01
   1  25  16    0.09    0.01
   1  25  18    0.12    0.01
   1  25  20    0.09    0.01
   1  25  22    0.03    0.01
   1  25  24    0.00    0.01
   1  26   1    0.07    0.01
   1  26   3    0.06    0.01
   1  26   5    0.15    0.01
   1  26   7    0.17    0.01
   1  26   9    0.11    0.01
   1  26  11    0.01    0.01
   1  26  13    0.00    0.01
   1  26  15    0.04    0.01
   1  26  17    0.09    0.02
   1  26  19    0.11    0.01
   1  26  21    0.04    0.01
   1  26  23    0.01    0.01
   1  26  25    0.00    0.01
   1  27   2    0.27    0.01
   1  27   4    0.24    0.01
   1  27   6    0.22    0.01
   1  27   8    0.16    0.01
   1  27  10    0.11    0.01
   1  27  12    0.08    0.01
   1  27  14    0.01    0.01
   1  27  16    0.01    0.01
   1  27  18    0.03    0.01
   1  27  20    0.03    0.01
   1  27  22    0.01    0.01
   1  27  24    0.00    0.01
   1  27  26    0.00    0.01
   1  28   1    0.00    0.02
   1  28   3    0.00    0.01
   1  28   5    0.00    0.01
   1  28   7    0.00    0.01
   1  28   9    0.00    0.01
   1  28  11    0.01    0.01
   1  28  13    0.01    0.01
   1  28  15    0.06    0.01
   1  28  17    0.08    0.01
   1  28  19    0.08    0.01
   1  28  21    0.04    0.01
   1  28  23    0.01    0.01
   1  28  25    0.00    0.01
   1  28  27    0.00    0.01
   1  29   2    0.25    0.01
   1  29   4    0.18    0.01
   1  29   6    0.18    0.01
   1  29   8    0.15    0.01
   1  29  10    0.11    0.01
   1  29  12    0.09    0.01
   1  29  14    0.13    0.01
   1  29  16    0.17    0.01
   1  29  18    0.13    0.01
   1  29  20    0.09    0.01
   1  29  22    0.03    0.01
   1  29  24    0.01    0.01
   1  29  26    0.00    0.01
   1  29  28    0.00    0.01
   1  30   1    0.00    0.02
   1  30   3    0.01    0.01
   1  30   5    0.00    0.01
   1  30   7    0.00    0.01
   1  30   9    0.00    0.01
   1  30  11    0.01    0.01
   1  30  13    0.03    0.01
   1  30  15    0.09    0.01
   1  30  17    0.08    0.01
   1  30  19    0.07    0.01
   1  30  21    0.03    0.01
   1  30  23    0.02    0.01
   1  30  25    0.01    0.01
   1  30  27    0.01    0.01
   1  30  29    0.00    0.01
   1  31   2    0.21    0.01
   1  31   4    0.14    0.01
   1  31   6    0.05    0.01
   1  31   8    0.02    0.01
   1  31  10    0.00    0.01
   1  31  12    0.00    0.01
   1  31  14    0.01    0.01
   1  31  16    0.01    0.01
   1  31  18    0.01    0.01
   1  31  20    0.01    0.01
   1  31  22    0.00    0.01
   1  31  24    0.01    0.01
   1  31  26    0.01    0.01
   1  31  28    0.01    0.01
   1  31  30    0.02    0.01
   1  32   1    0.00    0.02
   1  32   3    0.02    0.01
   1  32   5    0.00    0.01
   1  32   7    0.00    0.01
   1  32   9    0.00    0.01
   1  32  11    0.01    0.01
   1  32  13    0.03    0.01
   1  32  15    0.05    0.01
   1  32  17    0.03    0.01
   1  32  19    0.02    0.01
   1  32  21    0.00    0.01
   1  32  23    0.00    0.01
   1  32  25    0.00    0.01
   1  32  27    0.00    0.01
   1  32  29    0.00    0.01
   1  33   2    0.08    0.01
   1  33   4    0.11    0.01
   1  33   6    0.08    0.01
   1  33   8    0.08    0.01
   1  33  10    0.12    0.01
   1  33  12    0.12    0.01
   1  33  14    0.08    0.01
   1  33  16    0.05    0.01
   1  33  18    0.03    0.01
   1  33  20    0.00    0.01
   1  33  22    0.00    0.01
   1  33  24    0.00    0.01
   1  33  26    0.01    0.01
   1  33  28    0.01    0.01
   1  34   1    0.00    0.02
   1  34   3    0.00    0.01
   1  34   5    0.01    0.01
   1  34   7    0.00    0.01
   1  34   9    0.01    0.01
   1  34  11    0.01    0.01
   1  34  13    0.02    0.01
   1  34  15    0.01    0.01
   1  34  17    0.00    0.01
   1  34  19    0.00    0.01
   1  34  21    0.02    0.01
   1  34  23    0.02    0.01
   1  34  25    0.02    0.01
   1  34  27    0.01    0.01
   1  35   2    0.15    0.01
   1  35   4    0.10    0.01
   1  35   6    0.06    0.01
   1  35   8    0.02    0.01
   1  35  10    0.01    0.01
   1  35  12    0.01    0.01
   1  35  14    0.02    0.01
   1  35  16    0.03    0.01
   1  35  18    0.05    0.01
   1  35  20    0.06    0.01
   1  35  22    0.05    0.01
   1  35  24    0.02    0.01
   1  35  26    0.02    0.01
   1  36   1    0.00    0.02
   1  36   3    0.00    0.01
   1  36   5    0.00    0.01
   1  36   7    0.01    0.01
   1  36   9    0.02    0.01
   1  36  11    0.02    0.01
   1  36  13    0.02    0.01
   1  36  15    0.00    0.01
   1  36  17    0.01    0.01
   1  36  19    0.02    0.01
   1  36  21    0.04    0.01
   1  36  23    0.03    0.01
   1  36  25    0.03    0.02
   1  37   2    0.13    0.01
   1  37   4    0.10    0.01
   1  37   6    0.12    0.01
   1  37   8    0.12    0.01
   1  37  10    0.10    0.01
   1  37  12    0.07    0.01
   1  37  14    0.04    0.01
   1  37  16    0.01    0.01
   1  37  18    0.00    0.01
   1  37  20    0.00    0.02
   1  37  22    0.00    0.01
   1  38   1    0.00    0.02
   1  38   3    0.00    0.01
   1  38   5    0.00    0.01
   1  38   7    0.00    0.01
   1  38   9    0.00    0.01
   1  38  11    0.01    0.01
   1  38  13    0.01    0.01
   1  38  15    0.00    0.02
   1  38  17    0.00    0.01
   1  38  19    0.01    0.02
   1  38  21    0.02    0.02
   1  39   2    0.04    0.01
   1  39   4    0.03    0.01
   1  39   6    0.01    0.01
   1  39   8    0.00    0.01
   1  39  10    0.00    0.01
   1  39  12    0.00    0.01
   1  39  14    0.01    0.02
   1  39  16    0.02    0.02
   1  39  18    0.03    0.02
   1  39  20    0.03    0.02
   1  40   1    0.00    0.02
   1  40   3    0.00    0.01
   1  40   5    0.00    0.01
   1  40   7    0.00    0.01
   1  40   9    0.00    0.01
   1  40  11    0.00    0.01
   1  40  13    0.01    0.02
   1  40  15    0.00    0.02
   1  40  17    0.01    0.02
   1  41   2    0.02    0.01
   1  41   4    0.02    0.01
   1  41   6    0.02    0.01
   1  41   8    0.03    0.01
   1  41  10    0.03    0.01
   1  41  12    0.02    0.01
   1  41  14    0.01    0.01
   1  42   1    0.00    0.02
   1  42   3    0.00    0.01
   1  42   5    0.00    0.01
   1  42   7    0.00    0.01
   1  42   9    0.01    0.01
   1  42  11    0.00    0.01
   1  43   2    0.09    0.01
   1  43   4    0.09    0.01
   1  43   6    0.05    0.02
   1  43   8    0.02    0.01
   2   2   2  676.05   39.37
   2   3   3    4.28    0.04
   2   4   2   88.43    1.53
   2   4   4   28.11    0.78
   2   5   3    0.40    0.01
   2   5   5    5.10    0.16
   2   6   2    1.84    0.11
   2   6   4    1.30    0.03
   2   6   6    0.92    0.03
   2   7   3    0.14    0.01
   2   7   5    3.07    0.07
   2   7   7   16.49    0.56
   2   8   2    8.12    0.24
   2   8   4   19.08    0.52
   2   8   6    6.40    0.14
   2   8   8    0.76    0.09
   2   9   3    0.15    0.02
   2   9   5    0.62    0.02
   2   9   7    1.90    0.07
   2   9   9   14.47    0.35
   2  10   2    0.04    0.05
   2  10   4   10.29    0.20
   2  10   6    4.12    0.09
   2  10   8    1.10    0.04
   2  10  10   10.84    0.38
   2  11   3    3.98    0.06
   2  11   5    1.49    0.04
   2  11   7    2.42    0.06
   2  11   9    0.39    0.03
   2  11  11    2.57    0.08
   2  12   2   16.50    0.39
   2  12   4   15.08    0.23
   2  12   6   10.45    0.19
   2  12   8    1.89    0.05
   2  12  10    1.03    0.03
   2  12  12   11.36    0.25
   2  13   3    0.69    0.04
   2  13   5    7.70    0.13
   2  13   7    3.01    0.07
   2  13   9    0.23    0.02
   2  13  11    1.81    0.04
   2  13  13    9.64    0.22
   2  14   2    1.79    0.04
   2  14   4   17.53    0.27
   2  14   6    1.53    0.03
   2  14   8    0.09    0.02
   2  14  10    5.97    0.12
   2  14  12   22.93    0.38
   2  14  14   30.08    0.69
   2  15   3    8.53    0.16
   2  15   5    2.32    0.06
   2  15   7    7.87    0.13
   2  15   9    0.03    0.01
   2  15  11   11.03    0.15
   2  15  13   12.19    0.18
   2  15  15    6.58    0.14
   2  16   2   16.14    0.43
   2  16   4    7.80    0.13
   2  16   6   13.83    0.28
   2  16   8    0.05    0.01
   2  16  10    6.17    0.10
   2  16  12    6.26    0.09
   2  16  14    8.54    0.12
   2  16  16   13.11    0.29
   2  17   3    1.11    0.03
   2  17   5   14.91    0.18
   2  17   7    0.30    0.01
   2  17   9    0.26    0.01
   2  17  11    5.21    0.08
   2  17  13    6.17    0.11
   2  17  15   12.49    0.18
   2  17  17    2.87    0.09
   2  18   2    0.63    0.03
   2  18   4    5.91    0.09
   2  18   6    1.03    0.03
   2  18   8    0.85    0.02
   2  18  10    8.23    0.14
   2  18  12    3.64    0.05
   2  18  14   12.92    0.20
   2  18  16    4.61    0.07
   2  18  18   12.73    0.25
   2  19   3    8.18    0.09
   2  19   5    0.30    0.02
   2  19   7    1.50    0.03
   2  19   9    0.94    0.02
   2  19  11    0.17    0.01
   2  19  13    5.57    0.08
   2  19  15    2.86    0.05
   2  19  17    6.07    0.08
   2  19  19    0.41    0.02
   2  20   2    1.71    0.04
   2  20   4    0.04    0.01
   2  20   6    0.57    0.02
   2  20   8    0.77    0.02
   2  20  10    0.01    0.01
   2  20  12    2.35    0.05
   2  20  14    1.36    0.03
   2  20  16    3.03    0.05
   2  20  18    0.81    0.01
   2  20  20    4.29    0.08
   2  21   3    0.08    0.01
   2  21   5    0.63    0.01
   2  21   7    0.13    0.01
   2  21   9    0.54    0.01
   2  21  11    0.91    0.02
   2  21  13    0.05    0.01
   2  21  15    1.29    0.02
   2  21  17    0.11    0.01
   2  21  19    2.73    0.03
   2  21  21    0.14    0.02
   2  22   2    1.33    0.03
   2  22   4    0.24    0.01
   2  22   6    1.30    0.02
   2  22   8    0.06    0.01
   2  22  10    1.00    0.03
   2  22  12    0.00    0.01
   2  22  14    0.98    0.02
   2  22  16    0.00    0.01
   2  22  18    1.35    0.02
   2  22  20    0.10    0.01
   2  22  22    0.56    0.02
   2  23   3    0.05    0.01
   2  23   5    0.58    0.01
   2  23   7    0.22    0.01
   2  23   9    0.16    0.01
   2  23  11    0.07    0.01
   2  23  13    0.01    0.01
   2  23  15    0.36    0.01
   2  23  17    0.02    0.01
   2  23  19    0.19    0.01
   2  23  21    0.23    0.01
   2  23  23    1.14    0.03
   2  24   2    0.92    0.03
   2  24   4    1.24    0.03
   2  24   6    0.02    0.01
   2  24   8    0.48    0.02
   2  24  10    0.01    0.01
   2  24  12    0.00    0.01
   2  24  14    0.52    0.01
   2  24  16    0.21    0.01
   2  24  18    0.70    0.02
   2  24  20    0.19    0.01
   2  24  22    1.53    0.03
   2  24  24    0.03    0.02
   2  25   3    1.18    0.02
   2  25   5    0.06    0.01
   2  25   7    0.77    0.01
   2  25   9    0.02    0.01
   2  25  11    0.00    0.01
   2  25  13    0.61    0.01
   2  25  15    0.26    0.01
   2  25  17    0.99    0.02
   2  25  19    0.60    0.02
   2  25  21    1.04    0.02
   2  25  23    0.02    0.01
   2  25  25    0.30    0.02
   2  26   2    2.72    0.05
   2  26   4    0.00    0.01
   2  26   6    2.42    0.03
   2  26   8    0.44    0.01
   2  26  10    0.41    0.01
   2  26  12    0.04    0.01
   2  26  14    0.05    0.01
   2  26  16    1.48    0.02
   2  26  18    1.94    0.03
   2  26  20    2.20    0.04
   2  26  22    0.32    0.01
   2  26  24    0.38    0.01
   2  26  26    0.04    0.02
   2  27   3    0.19    0.01
   2  27   5    1.78    0.02
   2  27   7    0.01    0.01
   2  27   9    0.13    0.01
   2  27  11    0.01    0.01
   2  27  13    0.06    0.01
   2  27  15    1.09    0.02
   2  27  17    1.43    0.03
   2  27  19    1.41    0.03
   2  27  21    0.51    0.01
   2  27  23    0.38    0.01
   2  27  25    0.00    0.01
   2  27  27    0.17    0.02
   2  28   2    0.88    0.03
   2  28   4    0.23    0.01
   2  28   6    0.30    0.01
   2  28   8    0.09    0.01
   2  28  10    0.00    0.01
   2  28  12    0.12    0.01
   2  28  14    1.46    0.02
   2  28  16    2.49    0.03
   2  28  18    3.80    0.05
   2  28  20    2.73    0.04
   2  28  22    1.41    0.03
   2  28  24    0.13    0.01
   2  28  26    0.33    0.01
   2  28  28    1.36    0.04
   2  29   3    0.58    0.01
   2  29   5    0.00    0.01
   2  29   7    0.42    0.01
   2  29   9    0.17    0.01
   2  29  11    0.02    0.01
   2  29  13    0.19    0.01
   2  29  15    0.30    0.01
   2  29  17    1.52    0.03
   2  29  19    1.00    0.02
   2  29  21    0.87    0.02
   2  29  23    0.24    0.01
   2  29  25    0.01    0.01
   2  29  27    0.48    0.01
   2  29  29    0.57    0.02
   2  30   2    1.07    0.03
   2  30   4    0.13    0.01
   2  30   6    0.71    0.02
   2  30   8    0.65    0.02
   2  30  10    0.24    0.01
   2  30  12    0.00    0.01
   2  30  14    0.13    0.01
   2  30  16    2.40    0.04
   2  30  18    1.74    0.03
   2  30  20    2.22    0.04
   2  30  22    0.70    0.02
   2  30  24    0.01    0.01
   2  30  26    0.93    0.02
   2  30  28    1.62    0.03
   2  30  30    2.63    0.07
   2  31   3    0.02    0.01
   2  31   5    0.13    0.01
   2  31   7    0.25    0.01
   2  31   9    0.05    0.01
   2  31  11    0.06    0.01
   2  31  13    0.03    0.01
   2  31  15    0.64    0.02
   2  31  17    0.14    0.01
   2  31  19    0.96    0.02
   2  31  21    0.41    0.01
   2  31  23    0.20    0.01
   2  31  25    0.22    0.01
   2  31  27    0.37    0.02
   2  31  29    0.94    0.03
   2  32   2    0.26    0.02
   2  32   4    0.02    0.01
   2  32   6    0.03    0.01
   2  32   8    0.01    0.01
   2  32  10    0.04    0.01
   2  32  12    0.00    0.01
   2  32  14    1.32    0.02
   2  32  16    0.49    0.02
   2  32  18    2.35    0.04
   2  32  20    1.06    0.02
   2  32  22    0.64    0.02
   2  32  24    0.19    0.01
   2  32  26    0.39    0.02
   2  32  28    1.38    0.03
   2  33   3    0.10    0.01
   2  33   5    0.01    0.01
   2  33   7    0.00    0.01
   2  33   9    0.26    0.01
   2  33  11    0.18    0.01
   2  33  13    0.10    0.01
   2  33  15    0.20    0.01
   2  33  17    0.42    0.01
   2  33  19    0.12    0.01
   2  33  21    0.41    0.02
   2  33  23    0.06    0.01
   2  33  25    0.00    0.01
   2  33  27    0.38    0.02
   2  34   2    0.62    0.02
   2  34   4    0.09    0.01
   2  34   6    0.12    0.01
   2  34   8    0.30    0.01
   2  34  10    0.14    0.01
   2  34  12    0.07    0.01
   2  34  14    0.17    0.01
   2  34  16    0.83    0.02
   2  34  18    0.22    0.01
   2  34  20    0.56    0.02
   2  34  22    0.05    0.01
   2  34  24    0.00    0.01
   2  34  26    0.49    0.01
   2  35   3    0.09    0.01
   2  35   5    0.03    0.01
   2  35   7    0.00    0.01
   2  35   9    0.04    0.01
   2  35  11    0.00    0.01
   2  35  13    0.54    0.01
   2  35  15    0.15    0.01
   2  35  17    0.02    0.01
   2  35  19    0.13    0.01
   2  35  21    0.03    0.01
   2  35  23    0.09    0.01
   2  35  25    0.07    0.01
   2  36   2    0.35    0.02
   2  36   4    0.01    0.01
   2  36   6    0.19    0.01
   2  36   8    0.00    0.01
   2  36  10    0.11    0.01
   2  36  12    0.08    0.01
   2  36  14    0.48    0.02
   2  36  16    0.01    0.01
   2  36  18    0.26    0.01
   2  36  20    0.00    0.01
   2  36  22    0.08    0.02
   2  36  24    0.07    0.01
   2  37   3    0.13    0.01
   2  37   5    0.11    0.01
   2  37   7    0.08    0.01
   2  37   9    0.02    0.01
   2  37  11    0.26    0.01
   2  37  13    0.04    0.01
   2  37  15    0.16    0.01
   2  37  17    0.02    0.01
   2  37  19    0.04    0.01
   2  37  21    0.01    0.01
   2  37  23    0.02    0.01
   2  38   2    0.58    0.03
   2  38   4    0.00    0.01
   2  38   6    0.33    0.01
   2  38   8    0.00    0.01
   2  38  10    0.24    0.01
   2  38  12    0.00    0.01
   2  38  14    0.21    0.01
   2  38  16    0.00    0.01
   2  38  18    0.16    0.01
   2  38  20    0.01    0.01
   2  39   3    0.09    0.01
   2  39   5    0.17    0.01
   2  39   7    0.04    0.01
   2  39   9    0.06    0.01
   2  39  11    0.03    0.01
   2  39  13    0.04    0.01
   2  39  15    0.02    0.02
   2  39  17    0.13    0.02
   2  39  19    0.00    0.02
   2  40   2    0.14    0.02
   2  40   4    0.02    0.01
   2  40   6    0.21    0.01
   2  40   8    0.00    0.01
   2  40  10    0.09    0.01
   2  40  12    0.00    0.02
   2  40  14    0.04    0.02
   2  40  16    0.08    0.02
   2  41   3    0.07    0.01
   2  41   5    0.02    0.01
   2  41   7    0.05    0.01
   2  41   9    0.04    0.01
   2  41  11    0.00    0.01
   2  41  13    0.07    0.02
   2  41  15    0.02    0.01
   2  42   2    0.11    0.02
   2  42   4    0.00    0.01
   2  42   6    0.09    0.01
   2  42   8    0.00    0.02
   2  42  10    0.04    0.02
   2  42  12    0.01    0.02
   2  43   3    0.01    0.01
   2  43   5    0.05    0.01
   2  43   7    0.01    0.02
   3   4   3    0.80    0.02
   3   5   4    1.59    0.01
   3   6   3    0.14    0.02
   3   6   5    1.80    0.03
   3   7   4    1.72    0.02
   3   7   6    4.68    0.09
   3   8   3    0.11    0.03
   3   8   5    1.48    0.03
   3   8   7    5.61    0.11
   3   9   4    0.02    0.02
   3   9   6    0.35    0.02
   3   9   8    2.78    0.07
   3  10   3    0.97    0.04
   3  10   5    2.28    0.05
   3  10   7    3.32    0.07
   3  10   9    4.19    0.09
   3  11   4    1.39    0.03
   3  11   6    0.59    0.02
   3  11   8    0.04    0.02
   3  11  10    0.43    0.02
   3  12   3    0.93    0.04
   3  12   5    2.20    0.05
   3  12   7    1.55    0.04
   3  12   9    1.75    0.05
   3  12  11    0.33    0.03
   3  13   4    0.49    0.03
   3  13   6    0.09    0.02
   3  13   8    0.02    0.02
   3  13  10    0.13    0.02
   3  13  12    0.64    0.02
   3  14   3    0.94    0.03
   3  14   5    1.10    0.03
   3  14   7    0.98    0.03
   3  14   9    0.53    0.02
   3  14  11    0.01    0.01
   3  14  13    0.35    0.02
   3  15   4    6.73    0.11
   3  15   6    3.27    0.06
   3  15   8    0.85    0.02
   3  15  10    0.23    0.01
   3  15  12    0.02    0.01
   3  15  14    0.03    0.01
   3  16   3    1.05    0.04
   3  16   5    0.59    0.02
   3  16   7    0.23    0.02
   3  16   9    0.15    0.01
   3  16  11    0.15    0.01
   3  16  13    0.00    0.01
   3  16  15    0.01    0.01
   3  17   4    0.64    0.02
   3  17   6    0.05    0.01
   3  17   8    0.33    0.01
   3  17  10    1.07    0.02
   3  17  12    0.87    0.02
   3  17  14    0.61    0.02
   3  17  16    0.56    0.02
   3  18   3    0.29    0.02
   3  18   5    0.06    0.01
   3  18   7    0.17    0.01
   3  18   9    0.15    0.01
   3  18  11    0.31    0.02
   3  18  13    0.05    0.01
   3  18  15    0.08    0.02
   3  18  17    0.26    0.02
   3  19   4    4.85    0.05
   3  19   6    1.26    0.02
   3  19   8    0.28    0.01
   3  19  10    0.03    0.01
   3  19  12    0.00    0.01
   3  19  14    0.04    0.02
   3  19  16    0.16    0.02
   3  19  18    0.08    0.01
   3  20   3    0.16    0.02
   3  20   5    0.66    0.02
   3  20   7    1.34    0.03
   3  20   9    1.10    0.02
   3  20  11    0.93    0.02
   3  20  13    0.08    0.01
   3  20  15    0.02    0.02
   3  20  17    0.21    0.01
   3  20  19    0.00    0.01
   3  21   4    0.04    0.01
   3  21   6    0.69    0.02
   3  21   8    0.88    0.02
   3  21  10    0.69    0.02
   3  21  12    0.53    0.02
   3  21  14    0.04    0.01
   3  21  16    0.11    0.01
   3  21  18    0.26    0.01
   3  21  20    0.01    0.01
   3  22   3    1.44    0.04
   3  22   5    2.72    0.04
   3  22   7    2.69    0.04
   3  22   9    2.06    0.03
   3  22  11    1.67    0.03
   3  22  13    0.12    0.01
   3  22  15    0.02    0.01
   3  22  17    0.34    0.01
   3  22  19    0.05    0.01
   3  22  21    0.03    0.01
   3  23   4    0.40    0.01
   3  23   6    0.69    0.02
   3  23   8    1.06    0.02
   3  23  10    0.87    0.02
   3  23  12    0.17    0.01
   3  23  14    0.03    0.01
   3  23  16    0.32    0.01
   3  23  18    0.59    0.01
   3  23  20    0.39    0.01
   3  23  22    0.04    0.01
   3  24   3    2.10    0.05
   3  24   5    2.52    0.04
   3  24   7    3.13    0.05
   3  24   9    2.33    0.03
   3  24  11    1.10    0.02
   3  24  13    0.07    0.01
   3  24  15    0.02    0.01
   3  24  17    0.43    0.01
   3  24  19    0.28    0.01
   3  24  21    0.11    0.01
   3  24  23    0.01    0.01
   3  25   4    1.15    0.02
   3  25   6    1.70    0.02
   3  25   8    1.77    0.02
   3  25  10    1.25    0.02
   3  25  12    0.44    0.01
   3  25  14    0.02    0.01
   3  25  16    0.10    0.01
   3  25  18    0.37    0.01
   3  25  20    0.37    0.01
   3  25  22    0.16    0.01
   3  25  24    0.01    0.01
   3  26   3    0.66    0.02
   3  26   5    0.99    0.02
   3  26   7    1.17    0.02
   3  26   9    0.64    0.01
   3  26  11    0.13    0.01
   3  26  13    0.01    0.01
   3  26  15    0.11    0.01
   3  26  17    0.62    0.02
   3  26  19    0.58    0.02
   3  26  21    0.31    0.01
   3  26  23    0.08    0.01
   3  26  25    0.02    0.01
   3  27   4    0.14    0.01
   3  27   6    0.01    0.01
   3  27   8    0.01    0.01
   3  27  10    0.04    0.01
   3  27  12    0.05    0.01
   3  27  14    0.25    0.01
   3  27  16    0.67    0.02
   3  27  18    0.87    0.02
   3  27  20    0.58    0.02
   3  27  22    0.33    0.01
   3  27  24    0.08    0.01
   3  27  26    0.00    0.01
   3  28   3    0.06    0.02
   3  28   5    0.21    0.01
   3  28   7    0.11    0.01
   3  28   9    0.02    0.01
   3  28  11    0.00    0.01
   3  28  13    0.12    0.01
   3  28  15    0.34    0.01
   3  28  17    0.71    0.02
   3  28  19    0.59    0.02
   3  28  21    0.42    0.01
   3  28  23    0.15    0.01
   3  28  25    0.06    0.01
   3  28  27    0.02    0.01
   3  29   4    0.58    0.01
   3  29   6    0.26    0.01
   3  29   8    0.07    0.01
   3  29  10    0.03    0.01
   3  29  12    0.00    0.01
   3  29  14    0.08    0.01
   3  29  16    0.26    0.01
   3  29  18    0.33    0.01
   3  29  20    0.23    0.01
   3  29  22    0.09    0.01
   3  29  24    0.01    0.01
   3  29  26    0.00    0.01
   3  29  28    0.04    0.01
   3  30   3    0.02    0.02
   3  30   5    0.02    0.01
   3  30   7    0.00    0.01
   3  30   9    0.00    0.01
   3  30  11    0.02    0.01
   3  30  13    0.22    0.01
   3  30  15    0.40    0.01
   3  30  17    0.50    0.01
   3  30  19    0.33    0.01
   3  30  21    0.21    0.01
   3  30  23    0.08    0.01
   3  30  25    0.02    0.01
   3  30  27    0.00    0.01
   3  30  29    0.01    0.01
   3  31   4    0.03    0.01
   3  31   6    0.12    0.01
   3  31   8    0.18    0.01
   3  31  10    0.20    0.01
   3  31  12    0.34    0.01
   3  31  14    0.50    0.01
   3  31  16    0.37    0.01
   3  31  18    0.24    0.01
   3  31  20    0.15    0.01
   3  31  22    0.02    0.01
   3  31  24    0.00    0.01
   3  31  26    0.02    0.01
   3  31  28    0.03    0.01
   3  31  30    0.01    0.01
   3  32   3    0.00    0.02
   3  32   5    0.00    0.01
   3  32   7    0.00    0.01
   3  32   9    0.00    0.01
   3  32  11    0.07    0.01
   3  32  13    0.23    0.01
   3  32  15    0.19    0.01
   3  32  17    0.18    0.01
   3  32  19    0.08    0.01
   3  32  21    0.01    0.01
   3  32  23    0.00    0.01
   3  32  25    0.01    0.01
   3  32  27    0.02    0.01
   3  32  29    0.00    0.01
   3  33   4    0.01    0.01
   3  33   6    0.00    0.01
   3  33   8    0.01    0.01
   3  33  10    0.10    0.01
   3  33  12    0.14    0.01
   3  33  14    0.09    0.01
   3  33  16    0.04    0.01
   3  33  18    0.00    0.01
   3  33  20    0.01    0.01
   3  33  22    0.03    0.01
   3  33  24    0.06    0.01
   3  33  26    0.07    0.01
   3  33  28    0.05    0.02
   3  34   3    0.02    0.02
   3  34   5    0.01    0.01
   3  34   7    0.04    0.01
   3  34   9    0.11    0.01
   3  34  11    0.17    0.01
   3  34  13    0.18    0.01
   3  34  15    0.08    0.01
   3  34  17    0.03    0.01
   3  34  19    0.01    0.01
   3  34  21    0.05    0.01
   3  34  23    0.12    0.01
   3  34  25    0.09    0.02
   3  34  27    0.06    0.02
   3  35   4    0.11    0.01
   3  35   6    0.14    0.01
   3  35   8    0.23    0.01
   3  35  10    0.30    0.01
   3  35  12    0.21    0.01
   3  35  14    0.09    0.01
   3  35  16    0.02    0.01
   3  35  18    0.02    0.01
   3  35  20    0.06    0.01
   3  35  22    0.09    0.02
   3  35  24    0.06    0.01
   3  35  26    0.05    0.01
   3  36   3    0.00    0.02
   3  36   5    0.00    0.01
   3  36   7    0.04    0.01
   3  36   9    0.11    0.01
   3  36  11    0.10    0.01
   3  36  13    0.08    0.01
   3  36  15    0.02    0.01
   3  36  17    0.01    0.01
   3  36  19    0.10    0.01
   3  36  21    0.18    0.01
   3  36  23    0.18    0.02
   3  37   4    0.11    0.01
   3  37   6    0.00    0.01
   3  37   8    0.01    0.01
   3  37  10    0.02    0.01
   3  37  12    0.01    0.01
   3  37  14    0.00    0.01
   3  37  16    0.04    0.01
   3  37  18    0.14    0.01
   3  37  20    0.18    0.01
   3  37  22    0.13    0.01
   3  38   3    0.01    0.02
   3  38   5    0.00    0.01
   3  38   7    0.01    0.01
   3  38   9    0.04    0.01
   3  38  11    0.06    0.01
   3  38  13    0.06    0.01
   3  38  15    0.00    0.01
   3  38  17    0.03    0.01
   3  38  19    0.14    0.01
   3  38  21    0.19    0.01
   3  39   4    0.11    0.01
   3  39   6    0.14    0.01
   3  39   8    0.22    0.01
   3  39  10    0.23    0.01
   3  39  12    0.16    0.01
   3  39  14    0.07    0.01
   3  39  16    0.01    0.01
   3  39  18    0.02    0.02
   3  40   3    0.00    0.02
   3  40   5    0.00    0.01
   3  40   7    0.01    0.01
   3  40   9    0.02    0.01
   3  40  11    0.05    0.02
   3  40  13    0.02    0.02
   3  40  15    0.00    0.02
   3  40  17    0.05    0.02
   3  41   4    0.03    0.01
   3  41   6    0.02    0.01
   3  41   8    0.00    0.01
   3  41  10    0.00    0.01
   3  41  12    0.00    0.02
   3  41  14    0.04    0.02
   3  42   3    0.01    0.02
   3  42   5    0.00    0.01
   3  42   7    0.01    0.01
   3  42   9    0.04    0.01
   3  42  11    0.03    0.01
   3  43   4    0.01    0.01
   3  43   6    0.02    0.02
   3  43   8    0.03    0.03
   4   4   4   56.27    5.00
   4   5   5    0.02    0.02
   4   6   4    8.78    0.35
   4   6   6   18.02    0.80
   4   7   5    0.10    0.02
   4   7   7    5.51    0.19
   4   8   4    4.20    0.33
   4   8   6    0.92    0.02
   4   8   8    6.05    0.23
   4   9   5    0.05    0.02
   4   9   7    0.37    0.03
   4   9   9    8.33    0.20
   4  10   4    6.46    0.29
   4  10   6    0.46    0.03
   4  10   8    0.18    0.02
   4  10  10    1.45    0.06
   4  11   5    0.15    0.01
   4  11   7    0.45    0.03
   4  11   9    0.22    0.02
   4  11  11    2.41    0.06
   4  12   4    4.22    0.10
   4  12   6    1.48    0.04
   4  12   8    0.02    0.02
   4  12  10    0.07    0.02
   4  12  12    9.54    0.25
   4  13   5    4.14    0.08
   4  13   7    1.86    0.06
   4  13   9    0.36    0.03
   4  13  11    0.17    0.02
   4  13  13    2.80    0.06
   4  14   4   22.28    0.57
   4  14   6    2.87    0.05
   4  14   8    0.38    0.02
   4  14  10    0.13    0.02
   4  14  12   12.28    0.21
   4  14  14   14.02    0.32
   4  15   5    2.38    0.05
   4  15   7    6.45    0.10
   4  15   9    0.18    0.01
   4  15  11    4.08    0.06
   4  15  13    4.01    0.06
   4  15  15    2.23    0.07
   4  16   4    1.04    0.03
   4  16   6    3.10    0.06
   4  16   8    1.64    0.04
   4  16  10    4.83    0.08
   4  16  12    8.46    0.12
   4  16  14    9.39    0.13
   4  16  16   21.52    0.45
   4  17   5   11.73    0.14
   4  17   7    0.26    0.02
   4  17   9    0.02    0.01
   4  17  11    1.64    0.03
   4  17  13    2.25    0.04
   4  17  15    6.51    0.09
   4  17  17    1.15    0.04
   4  18   4   19.71    0.44
   4  18   6    1.09    0.03
   4  18   8    1.33    0.04
   4  18  10    0.00    0.01
   4  18  12    0.02    0.01
   4  18  14    3.07    0.05
   4  18  16    2.62    0.05
   4  18  18    4.50    0.09
   4  19   5    0.03    0.01
   4  19   7    0.76    0.02
   4  19   9    0.61    0.02
   4  19  11    0.01    0.01
   4  19  13    2.44    0.04
   4  19  15    0.91    0.03
   4  19  17    3.42    0.05
   4  19  19    0.00    0.02
   4  20   4    1.11    0.04
   4  20   6    0.00    0.01
   4  20   8    1.22    0.04
   4  20  10    0.23    0.01
   4  20  12    1.89    0.04
   4  20  14    0.66    0.02
   4  20  16    4.56    0.06
   4  20  18    0.25    0.01
   4  20  20    4.04    0.08
   4  21   5    0.04    0.01
   4  21   7    0.79    0.02
   4  21   9    0.15    0.01
   4  21  11    0.44    0.02
   4  21  13    0.00    0.01
   4  21  15    0.75    0.01
   4  21  17    0.02    0.01
   4  21  19    1.31    0.02
   4  21  21    0.29    0.02
   4  22   4    0.18    0.02
   4  22   6    0.46    0.02
   4  22   8    0.54    0.02
   4  22  10    0.01    0.01
   4  22  12    0.29    0.02
   4  22  14    0.09    0.01
   4  22  16    0.01    0.01
   4  22  18    0.32    0.01
   4  22  20    0.14    0.01
   4  22  22    0.47    0.02
   4  23   5    1.41    0.02
   4  23   7    0.04    0.01
   4  23   9    0.45    0.02
   4  23  11    0.07    0.01
   4  23  13    0.03    0.01
   4  23  15    0.17    0.01
   4  23  17    0.04    0.01
   4  23  19    0.19    0.01
   4  23  21    0.36    0.01
   4  23  23    0.47    0.02
   4  24   4    2.42    0.06
   4  24   6    0.03    0.01
   4  24   8    0.41    0.02
   4  24  10    0.02    0.01
   4  24  12    0.03    0.01
   4  24  14    0.26    0.01
   4  24  16    0.01    0.01
   4  24  18    0.43    0.02
   4  24  20    0.00    0.01
   4  24  22    0.82    0.02
   4  24  24    0.20    0.02
   4  25   5    0.01    0.01
   4  25   7    0.76    0.01
   4  25   9    0.00    0.01
   4  25  11    0.04    0.01
   4  25  13    0.52    0.01
   4  25  15    0.15    0.01
   4  25  17    0.54    0.02
   4  25  19    0.27    0.01
   4  25  21    0.49    0.02
   4  25  23    0.16    0.01
   4  25  25    0.08    0.02
   4  26   4    1.44    0.04
   4  26   6    0.07    0.01
   4  26   8    0.30    0.01
   4  26  10    0.24    0.01
   4  26  12    0.67    0.01
   4  26  14    0.57    0.01
   4  26  16    1.43    0.03
   4  26  18    1.86    0.03
   4  26  20    1.55    0.03
   4  26  22    0.18    0.01
   4  26  24    0.19    0.01
   4  26  26    0.03    0.02
   4  27   5    1.55    0.02
   4  27   7    0.01    0.01
   4  27   9    0.05    0.01
   4  27  11    0.04    0.01
   4  27  13    0.04    0.01
   4  27  15    0.68    0.01
   4  27  17    0.70    0.02
   4  27  19    0.74    0.02
   4  27  21    0.20    0.01
   4  27  23    0.14    0.01
   4  27  25    0.00    0.01
   4  27  27    0.10    0.02
   4  28   4    3.06    0.06
   4  28   6    0.26    0.01
   4  28   8    1.00    0.02
   4  28  10    0.44    0.01
   4  28  12    0.07    0.01
   4  28  14    0.37    0.01
   4  28  16    0.56    0.01
   4  28  18    1.58    0.03
   4  28  20    1.06    0.02
   4  28  22    0.54    0.02
   4  28  24    0.01    0.01
   4  28  26    0.27    0.01
   4  28  28    1.01    0.03
   4  29   5    0.00    0.01
   4  29   7    0.57    0.01
   4  29   9    0.21    0.01
   4  29  11    0.01    0.01
   4  29  13    0.09    0.01
   4  29  15    0.10    0.01
   4  29  17    0.73    0.02
   4  29  19    0.50    0.02
   4  29  21    0.44    0.01
   4  29  23    0.12    0.01
   4  29  25    0.02    0.01
   4  29  27    0.26    0.01
   4  29  29    0.31    0.02
   4  30   4    0.05    0.02
   4  30   6    0.10    0.01
   4  30   8    0.07    0.01
   4  30  10    0.00    0.01
   4  30  12    0.12    0.01
   4  30  14    0.28    0.01
   4  30  16    1.81    0.03
   4  30  18    1.33    0.02
   4  30  20    1.47    0.03
   4  30  22    0.49    0.01
   4  30  24    0.01    0.01
   4  30  26    0.42    0.01
   4  30  28    0.86    0.02
   4  30  30    1.29    0.05
   4  31   5    0.07    0.01
   4  31   7    0.23    0.01
   4  31   9    0.02    0.01
   4  31  11    0.03    0.01
   4  31  13    0.05    0.01
   4  31  15    0.37    0.01
   4  31  17    0.03    0.01
   4  31  19    0.49    0.01
   4  31  21    0.20    0.01
   4  31  23    0.14    0.01
   4  31  25    0.11    0.01
   4  31  27    0.12    0.01
   4  31  29    0.46    0.02
   4  32   4    0.30    0.02
   4  32   6    0.33    0.01
   4  32   8    0.00    0.01
   4  32  10    0.11    0.01
   4  32  12    0.04    0.01
   4  32  14    0.63    0.02
   4  32  16    0.06    0.01
   4  32  18    1.16    0.02
   4  32  20    0.40    0.01
   4  32  22    0.37    0.01
   4  32  24    0.12    0.01
   4  32  26    0.11    0.02
   4  32  28    0.72    0.03
   4  33   5    0.01    0.01
   4  33   7    0.09    0.01
   4  33   9    0.04    0.01
   4  33  11    0.02    0.01
   4  33  13    0.17    0.01
   4  33  15    0.14    0.01
   4  33  17    0.31    0.01
   4  33  19    0.04    0.01
   4  33  21    0.33    0.01
   4  33  23    0.02    0.01
   4  33  25    0.03    0.02
   4  33  27    0.11    0.02
   4  34   4    0.02    0.02
   4  34   6    0.00    0.01
   4  34   8    0.03    0.01
   4  34  10    0.00    0.01
   4  34  12    0.20    0.01
   4  34  14    0.06    0.01
   4  34  16    0.58    0.02
   4  34  18    0.12    0.01
   4  34  20    0.37    0.01
   4  34  22    0.01    0.01
   4  34  24    0.05    0.01
   4  34  26    0.10    0.01
   4  35   5    0.00    0.01
   4  35   7    0.00    0.01
   4  35   9    0.01    0.01
   4  35  11    0.03    0.01
   4  35  13    0.37    0.01
   4  35  15    0.15    0.01
   4  35  17    0.01    0.01
   4  35  19    0.11    0.01
   4  35  21    0.01    0.01
   4  35  23    0.16    0.01
   4  35  25    0.00    0.01
   4  36   4    0.32    0.02
   4  36   6    0.00    0.01
   4  36   8    0.04    0.01
   4  36  10    0.04    0.01
   4  36  12    0.16    0.01
   4  36  14    0.23    0.01
   4  36  16    0.03    0.01
   4  36  18    0.07    0.01
   4  36  20    0.01    0.01
   4  36  22    0.07    0.01
   4  36  24    0.01    0.02
   4  37   5    0.09    0.01
   4  37   7    0.06    0.01
   4  37   9    0.02    0.01
   4  37  11    0.12    0.01
   4  37  13    0.06    0.01
   4  37  15    0.11    0.01
   4  37  17    0.04    0.01
   4  37  19    0.02    0.01
   4  37  21    0.04    0.01
   4  37  23    0.00    0.01
   4  38   4    0.57    0.02
   4  38   6    0.02    0.01
   4  38   8    0.46    0.02
   4  38  10    0.05    0.01
   4  38  12    0.38    0.02
   4  38  14    0.00    0.01
   4  38  16    0.11    0.01
   4  38  18    0.02    0.01
   4  38  20    0.01    0.01
   4  39   5    0.08    0.01
   4  39   7    0.09    0.01
   4  39   9    0.02    0.01
   4  39  11    0.06    0.01
   4  39  13    0.03    0.02
   4  39  15    0.01    0.01
   4  39  17    0.08    0.02
   4  39  19    0.00    0.01
   4  40   4    0.24    0.02
   4  40   6    0.02    0.01
   4  40   8    0.04    0.01
   4  40  10    0.01    0.01
   4  40  12    0.05    0.01
   4  40  14    0.01    0.02
   4  40  16    0.29    0.02
   4  41   5    0.05    0.01
   4  41   7    0.01    0.01
   4  41   9    0.05    0.01
   4  41  11    0.01    0.02
   4  41  13    0.04    0.01
   4  41  15    0.04    0.03
   4  42   4    0.14    0.03
   4  42   6    0.01    0.02
   4  42   8    0.11    0.02
   4  42  10    0.01    0.01
   4  43   5    0.04    0.02
   4  43   7    0.00    0.01
   5   6   5    4.19    0.12
   5   7   6    2.96    0.09
   5   8   5    3.57    0.15
   5   8   7    4.31    0.11
   5   9   6    1.44    0.04
   5   9   8    3.12    0.07
   5  10   5    4.77    0.12
   5  10   7    3.10    0.07
   5  10   9    2.68    0.07
   5  11   6    0.04    0.02
   5  11   8    0.41    0.02
   5  11  10    2.74    0.06
   5  12   5    6.93    0.19
   5  12   7    3.46    0.09
   5  12   9    0.72    0.03
   5  12  11    2.99    0.06
   5  13   6    0.78    0.03
   5  13   8    0.22    0.02
   5  13  10    0.11    0.02
   5  13  12    1.36    0.03
   5  14   5    3.69    0.11
   5  14   7    2.33    0.07
   5  14   9    0.01    0.01
   5  14  11    0.39    0.02
   5  14  13    0.84    0.03
   5  15   6    0.92    0.03
   5  15   8    0.01    0.02
   5  15  10    0.13    0.01
   5  15  12    0.40    0.02
   5  15  14    0.84    0.02
   5  16   5    1.20    0.03
   5  16   7    0.18    0.02
   5  16   9    0.23    0.02
   5  16  11    0.01    0.01
   5  16  13    0.06    0.01
   5  16  15    0.67    0.02
   5  17   6    7.02    0.08
   5  17   8    1.97    0.03
   5  17  10    0.38    0.01
   5  17  12    0.53    0.02
   5  17  14    0.36    0.02
   5  17  16    0.01    0.01
   5  18   5    0.06    0.02
   5  18   7    0.61    0.02
   5  18   9    1.52    0.03
   5  18  11    0.07    0.01
   5  18  13    0.00    0.01
   5  18  15    0.18    0.01
   5  18  17    0.02    0.01
   5  19   6    0.37    0.01
   5  19   8    0.89    0.02
   5  19  10    1.19    0.02
   5  19  12    0.66    0.02
   5  19  14    0.11    0.01
   5  19  16    0.01    0.01
   5  19  18    0.15    0.01
   5  20   5    1.83    0.05
   5  20   7    3.36    0.05
   5  20   9    3.97    0.06
   5  20  11    0.79    0.02
   5  20  13    0.03    0.01
   5  20  15    0.16    0.01
   5  20  17    0.01    0.01
   5  20  19    0.24    0.01
   5  21   6    0.24    0.01
   5  21   8    0.40    0.02
   5  21  10    0.19    0.02
   5  21  12    0.02    0.01
   5  21  14    0.12    0.01
   5  21  16    0.52    0.01
   5  21  18    0.43    0.01
   5  21  20    0.06    0.01
   5  22   5    5.93    0.10
   5  22   7    5.41    0.07
   5  22   9    4.85    0.07
   5  22  11    1.93    0.04
   5  22  13    0.12    0.01
   5  22  15    0.29    0.01
   5  22  17    0.14    0.01
   5  22  19    0.26    0.01
   5  22  21    0.02    0.01
   5  23   6    1.53    0.02
   5  23   8    2.30    0.04
   5  23  10    1.78    0.03
   5  23  12    0.26    0.01
   5  23  14    0.01    0.01
   5  23  16    0.17    0.01
   5  23  18    0.40    0.01
   5  23  20    0.45    0.01
   5  23  22    0.04    0.01
   5  24   5    3.50    0.08
   5  24   7    3.98    0.06
   5  24   9    2.97    0.04
   5  24  11    0.73    0.02
   5  24  13    0.01    0.01
   5  24  15    0.31    0.01
   5  24  17    0.46    0.01
   5  24  19    0.79    0.02
   5  24  21    0.22    0.01
   5  24  23    0.06    0.01
   5  25   6    0.13    0.01
   5  25   8    0.49    0.01
   5  25  10    0.25    0.01
   5  25  12    0.01    0.01
   5  25  14    0.24    0.01
   5  25  16    0.57    0.01
   5  25  18    1.00    0.02
   5  25  20    1.08    0.02
   5  25  22    0.53    0.01
   5  25  24    0.03    0.01
   5  26   5    2.14    0.04
   5  26   7    2.32    0.03
   5  26   9    1.20    0.02
   5  26  11    0.16    0.01
   5  26  13    0.00    0.01
   5  26  15    0.26    0.01
   5  26  17    0.71    0.02
   5  26  19    1.22    0.02
   5  26  21    0.56    0.02
   5  26  23    0.19    0.01
   5  26  25    0.03    0.01
   5  27   6    1.92    0.02
   5  27   8    1.43    0.02
   5  27  10    0.64    0.01
   5  27  12    0.21    0.01
   5  27  14    0.00    0.01
   5  27  16    0.24    0.01
   5  27  18    0.60    0.02
   5  27  20    0.58    0.02
   5  27  22    0.39    0.01
   5  27  24    0.08    0.01
   5  27  26    0.01    0.01
   5  28   5    0.95    0.03
   5  28   7    0.63    0.01
   5  28   9    0.18    0.01
   5  28  11    0.04    0.01
   5  28  13    0.03    0.01
   5  28  15    0.47    0.01
   5  28  17    0.78    0.02
   5  28  19    1.00    0.02
   5  28  21    0.72    0.02
   5  28  23    0.29    0.01
   5  28  25    0.06    0.01
   5  28  27    0.06    0.01
   5  29   6    0.02    0.01
   5  29   8    0.10    0.01
   5  29  10    0.13    0.01
   5  29  12    0.30    0.01
   5  29  14    0.56    0.01
   5  29  16    0.89    0.02
   5  29  18    0.88    0.02
   5  29  20    0.68    0.02
   5  29  22    0.31    0.01
   5  29  24    0.08    0.01
   5  29  26    0.00    0.01
   5  29  28    0.03    0.01
   5  30   5    0.01    0.02
   5  30   7    0.00    0.01
   5  30   9    0.01    0.01
   5  30  11    0.02    0.01
   5  30  13    0.17    0.01
   5  30  15    0.55    0.01
   5  30  17    0.50    0.01
   5  30  19    0.51    0.01
   5  30  21    0.32    0.01
   5  30  23    0.15    0.01
   5  30  25    0.02    0.01
   5  30  27    0.01    0.01
   5  30  29    0.01    0.02
   5  31   6    0.01    0.01
   5  31   8    0.04    0.01
   5  31  10    0.07    0.01
   5  31  12    0.25    0.01
   5  31  14    0.36    0.01
   5  31  16    0.22    0.01
   5  31  18    0.16    0.01
   5  31  20    0.11    0.01
   5  31  22    0.02    0.01
   5  31  24    0.00    0.01
   5  31  26    0.02    0.01
   5  31  28    0.02    0.01
   5  31  30    0.01    0.02
   5  32   5    0.12    0.02
   5  32   7    0.10    0.01
   5  32   9    0.11    0.01
   5  32  11    0.25    0.01
   5  32  13    0.37    0.01
   5  32  15    0.31    0.01
   5  32  17    0.19    0.01
   5  32  19    0.14    0.01
   5  32  21    0.02    0.01
   5  32  23    0.00    0.01
   5  32  25    0.01    0.01
   5  32  27    0.00    0.02
   5  32  29    0.00    0.02
   5  33   6    0.00    0.01
   5  33   8    0.03    0.01
   5  33  10    0.17    0.01
   5  33  12    0.30    0.01
   5  33  14    0.14    0.01
   5  33  16    0.04    0.01
   5  33  18    0.01    0.01
   5  33  20    0.01    0.01
   5  33  22    0.03    0.01
   5  33  24    0.07    0.01
   5  33  26    0.04    0.01
   5  33  28    0.02    0.02
   5  34   5    0.00    0.02
   5  34   7    0.02    0.01
   5  34   9    0.13    0.01
   5  34  11    0.23    0.01
   5  34  13    0.16    0.01
   5  34  15    0.12    0.01
   5  34  17    0.02    0.01
   5  34  19    0.00    0.01
   5  34  21    0.05    0.02
   5  34  23    0.11    0.01
   5  34  25    0.08    0.01
   5  34  27    0.02    0.02
   5  35   6    0.02    0.01
   5  35   8    0.17    0.01
   5  35  10    0.30    0.01
   5  35  12    0.27    0.01
   5  35  14    0.10    0.01
   5  35  16    0.01    0.01
   5  35  18    0.02    0.01
   5  35  20    0.08    0.01
   5  35  22    0.11    0.01
   5  35  24    0.09    0.01
   5  36   5    0.00    0.02
   5  36   7    0.04    0.01
   5  36   9    0.17    0.01
   5  36  11    0.22    0.01
   5  36  13    0.11    0.01
   5  36  15    0.06    0.01
   5  36  17    0.01    0.01
   5  36  19    0.10    0.01
   5  36  21    0.22    0.01
   5  36  23    0.23    0.02
   5  37   6    0.34    0.01
   5  37   8    0.55    0.01
   5  37  10    0.48    0.01
   5  37  12    0.40    0.01
   5  37  14    0.20    0.01
   5  37  16    0.01    0.01
   5  37  18    0.03    0.01
   5  37  20    0.11    0.02
   5  37  22    0.14    0.01
   5  38   5    0.06    0.02
   5  38   7    0.13    0.01
   5  38   9    0.17    0.01
   5  38  11    0.21    0.01
   5  38  13    0.11    0.01
   5  38  15    0.00    0.01
   5  38  17    0.07    0.01
   5  38  19    0.26    0.02
   5  38  21    0.36    0.02
   5  39   6    0.01    0.01
   5  39   8    0.01    0.01
   5  39  10    0.02    0.01
   5  39  12    0.01    0.01
   5  39  14    0.02    0.02
   5  39  16    0.12    0.01
   5  39  18    0.26    0.02
   5  40   5    0.04    0.02
   5  40   7    0.10    0.01
   5  40   9    0.10    0.01
   5  40  11    0.16    0.01
   5  40  13    0.06    0.02
   5  40  15    0.00    0.02
   5  40  17    0.10    0.02
   5  41   6    0.05    0.01
   5  41   8    0.07    0.01
   5  41  10    0.13    0.01
   5  41  12    0.06    0.02
   5  41  14    0.00    0.02
   5  42   5    0.00    0.02
   5  42   7    0.01    0.02
   5  42   9    0.04    0.02
   5  42  11    0.02    0.01
   5  43   6    0.01    0.01
   6   6   6   29.99    1.94
   6   7   7    0.63    0.06
   6   8   6    9.03    0.23
   6   8   8   11.16    0.33
   6   9   7    1.08    0.03
   6   9   9    2.35    0.05
   6  10   6    0.30    0.03
   6  10   8    0.07    0.02
   6  10  10    5.05    0.18
   6  11   7    0.05    0.02
   6  11   9    0.16    0.02
   6  11  11    3.24    0.10
   6  12   6    0.79    0.05
   6  12   8    0.84    0.03
   6  12  10    0.33    0.03
   6  12  12    2.96    0.09
   6  13   7    0.24    0.03
   6  13   9    0.29    0.02
   6  13  11    0.26    0.02
   6  13  13    0.08    0.03
   6  14   6    0.73    0.04
   6  14   8    1.23    0.04
   6  14  10    0.30    0.02
   6  14  12    5.41    0.10
   6  14  14    7.29    0.17
   6  15   7    3.36    0.06
   6  15   9    0.69    0.02
   6  15  11    0.39    0.01
   6  15  13    0.11    0.01
   6  15  15    0.01    0.02
   6  16   6   10.28    0.29
   6  16   8    2.47    0.05
   6  16  10    0.04    0.01
   6  16  12    0.24    0.01
   6  16  14    1.58    0.03
   6  16  16    4.10    0.09
   6  17   7    0.33    0.02
   6  17   9    0.30    0.02
   6  17  11    0.01    0.01
   6  17  13    0.03    0.01
   6  17  15    0.92    0.02
   6  17  17    0.03    0.02
   6  18   6    0.42    0.03
   6  18   8    0.56    0.02
   6  18  10    0.35    0.02
   6  18  12    0.11    0.02
   6  18  14    3.13    0.05
   6  18  16    1.01    0.02
   6  18  18    7.10    0.14
   6  19   7    0.29    0.02
   6  19   9    0.22    0.01
   6  19  11    0.17    0.02
   6  19  13    0.33    0.02
   6  19  15    0.00    0.01
   6  19  17    1.15    0.02
   6  19  19    0.08    0.01
   6  20   6    2.55    0.06
   6  20   8    1.64    0.03
   6  20  10    4.13    0.06
   6  20  12    0.45    0.02
   6  20  14    0.40    0.02
   6  20  16    0.36    0.01
   6  20  18    0.08    0.01
   6  20  20    1.30    0.03
   6  21   7    1.38    0.02
   6  21   9    0.05    0.01
   6  21  11    0.15    0.02
   6  21  13    0.24    0.01
   6  21  15    0.17    0.01
   6  21  17    0.01    0.01
   6  21  19    0.68    0.01
   6  21  21    0.32    0.02
   6  22   6    0.20    0.02
   6  22   8    1.62    0.03
   6  22  10    0.24    0.02
   6  22  12    0.90    0.02
   6  22  14    0.06    0.01
   6  22  16    0.01    0.01
   6  22  18    0.81    0.02
   6  22  20    0.08    0.01
   6  22  22    1.32    0.04
   6  23   7    0.07    0.02
   6  23   9    0.20    0.02
   6  23  11    0.24    0.01
   6  23  13    0.01    0.01
   6  23  15    0.23    0.01
   6  23  17    0.01    0.01
   6  23  19    0.08    0.01
   6  23  21    0.60    0.01
   6  23  23    0.10    0.02
   6  24   6    0.88    0.03
   6  24   8    0.49    0.01
   6  24  10    1.18    0.02
   6  24  12    0.33    0.01
   6  24  14    0.46    0.01
   6  24  16    0.09    0.01
   6  24  18    0.10    0.01
   6  24  20    0.02    0.01
   6  24  22    0.17    0.01
   6  24  24    0.42    0.02
   6  25   7    1.14    0.02
   6  25   9    0.05    0.01
   6  25  11    0.00    0.01
   6  25  13    0.28    0.01
   6  25  15    0.07    0.01
   6  25  17    0.14    0.01
   6  25  19    0.00    0.01
   6  25  21    0.03    0.01
   6  25  23    0.52    0.01
   6  25  25    0.01    0.02
   6  26   6    1.61    0.04
   6  26   8    0.04    0.01
   6  26  10    0.02    0.01
   6  26  12    0.01    0.01
   6  26  14    0.00    0.01
   6  26  16    0.18    0.01
   6  26  18    0.09    0.01
   6  26  20    0.19    0.01
   6  26  22    0.04    0.01
   6  26  24    0.00    0.01
   6  26  26    0.20    0.02
   6  27   7    0.10    0.01
   6  27   9    0.16    0.01
   6  27  11    0.01    0.01
   6  27  13    0.02    0.01
   6  27  15    0.27    0.01
   6  27  17    0.11    0.01
   6  27  19    0.07    0.01
   6  27  21    0.00    0.01
   6  27  23    0.00    0.01
   6  27  25    0.07    0.01
   6  27  27    0.12    0.02
   6  28   6    0.29    0.02
   6  28   8    0.01    0.01
   6  28  10    0.07    0.01
   6  28  12    0.23    0.01
   6  28  14    0.64    0.02
   6  28  16    0.48    0.01
   6  28  18    0.61    0.02
   6  28  20    0.50    0.01
   6  28  22    0.19    0.01
   6  28  24    0.01    0.01
   6  28  26    0.14    0.01
   6  28  28    0.24    0.02
   6  29   7    0.23    0.01
   6  29   9    0.10    0.01
   6  29  11    0.00    0.01
   6  29  13    0.08    0.01
   6  29  15    0.00    0.01
   6  29  17    0.15    0.01
   6  29  19    0.07    0.01
   6  29  21    0.09    0.01
   6  29  23    0.01    0.01
   6  29  25    0.02    0.01
   6  29  27    0.09    0.01
   6  29  29    0.04    0.02
   6  30   6    0.44    0.02
   6  30   8    0.29    0.01
   6  30  10    0.00    0.01
   6  30  12    0.00    0.01
   6  30  14    0.01    0.01
   6  30  16    0.36    0.01
   6  30  18    0.11    0.01
   6  30  20    0.29    0.01
   6  30  22    0.08    0.01
   6  30  24    0.01    0.01
   6  30  26    0.14    0.01
   6  30  28    0.13    0.01
   6  30  30    0.27    0.03
   6  31   7    0.04    0.01
   6  31   9    0.03    0.01
   6  31  11    0.00    0.01
   6  31  13    0.02    0.01
   6  31  15    0.20    0.01
   6  31  17    0.00    0.01
   6  31  19    0.15    0.01
   6  31  21    0.07    0.01
   6  31  23    0.14    0.01
   6  31  25    0.01    0.01
   6  31  27    0.00    0.02
   6  31  29    0.07    0.02
   6  32   6    0.50    0.02
   6  32   8    0.02    0.01
   6  32  10    0.11    0.01
   6  32  12    0.08    0.01
   6  32  14    0.14    0.01
   6  32  16    0.01    0.01
   6  32  18    0.24    0.01
   6  32  20    0.07    0.01
   6  32  22    0.22    0.01
   6  32  24    0.01    0.01
   6  32  26    0.00    0.02
   6  32  28    0.07    0.02
   6  33   7    0.10    0.01
   6  33   9    0.04    0.01
   6  33  11    0.04    0.01
   6  33  13    0.10    0.01
   6  33  15    0.13    0.01
   6  33  17    0.14    0.01
   6  33  19    0.01    0.01
   6  33  21    0.27    0.01
   6  33  23    0.00    0.01
   6  33  25    0.16    0.01
   6  33  27    0.00    0.01
   6  34   6    0.04    0.02
   6  34   8    0.00    0.01
   6  34  10    0.05    0.01
   6  34  12    0.37    0.01
   6  34  14    0.03    0.01
   6  34  16    0.38    0.01
   6  34  18    0.01    0.01
   6  34  20    0.24    0.01
   6  34  22    0.00    0.01
   6  34  24    0.24    0.01
   6  34  26    0.00    0.01
   6  35   7    0.04    0.01
   6  35   9    0.02    0.01
   6  35  11    0.06    0.01
   6  35  13    0.16    0.01
   6  35  15    0.17    0.01
   6  35  17    0.01    0.01
   6  35  19    0.12    0.01
   6  35  21    0.00    0.02
   6  35  23    0.33    0.02
   6  35  25    0.05    0.01
   6  36   6    0.24    0.02
   6  36   8    0.11    0.01
   6  36  10    0.34    0.01
   6  36  12    0.01    0.01
   6  36  14    0.42    0.01
   6  36  16    0.00    0.01
   6  36  18    0.03    0.01
   6  36  20    0.01    0.01
   6  36  22    0.11    0.01
   6  36  24    0.02    0.02
   6  37   7    0.02    0.01
   6  37   9    0.19    0.01
   6  37  11    0.01    0.01
   6  37  13    0.12    0.01
   6  37  15    0.06    0.01
   6  37  17    0.02    0.01
   6  37  19    0.01    0.02
   6  37  21    0.04    0.02
   6  38   6    0.08    0.02
   6  38   8    0.13    0.01
   6  38  10    0.00    0.01
   6  38  12    0.09    0.01
   6  38  14    0.10    0.01
   6  38  16    0.01    0.01
   6  38  18    0.24    0.02
   6  38  20    0.05    0.02
   6  39   7    0.17    0.01
   6  39   9    0.01    0.01
   6  39  11    0.07    0.01
   6  39  13    0.01    0.01
   6  39  15    0.01    0.01
   6  39  17    0.09    0.01
   6  39  19    0.01    0.02
   6  40   6    0.47    0.02
   6  40   8    0.16    0.01
   6  40  10    0.33    0.02
   6  40  12    0.06    0.01
   6  40  14    0.05    0.02
   6  40  16    0.07    0.02
   6  41   7    0.01    0.01
   6  41   9    0.03    0.01
   6  41  11    0.00    0.01
   6  41  13    0.00    0.02
   6  42   6    0.01    0.02
   6  42   8    0.06    0.01
   6  42  10    0.01    0.01
   7   8   7    4.06    0.19
   7   9   8    6.94    0.14
   7  10   7    1.02    0.07
   7  10   9    5.59    0.11
   7  11   8    0.84    0.03
   7  11  10    2.11    0.04
   7  12   7    0.68    0.06
   7  12   9    2.34    0.05
   7  12  11    1.91    0.04
   7  13   8    0.03    0.02
   7  13  10    0.17    0.02
   7  13  12    1.58    0.04
   7  14   7    1.19    0.05
   7  14   9    1.34    0.03
   7  14  11    0.52    0.02
   7  14  13    1.86    0.04
   7  15   8    0.75    0.02
   7  15  10    0.32    0.02
   7  15  12    0.02    0.01
   7  15  14    0.34    0.02
   7  16   7    0.02    0.02
   7  16   9    0.10    0.02
   7  16  11    0.00    0.01
   7  16  13    0.44    0.02
   7  16  15    0.45    0.02
   7  17   8    0.00    0.01
   7  17  10    0.03    0.01
   7  17  12    0.02    0.01
   7  17  14    0.00    0.01
   7  17  16    0.27    0.02
   7  18   7    3.12    0.08
   7  18   9    0.99    0.03
   7  18  11    0.11    0.01
   7  18  13    0.12    0.01
   7  18  15    0.15    0.01
   7  18  17    0.57    0.01
   7  19   8    0.41    0.02
   7  19  10    0.46    0.02
   7  19  12    0.60    0.02
   7  19  14    0.85    0.02
   7  19  16    0.52    0.01
   7  19  18    0.00    0.01
   7  20   7    5.43    0.11
   7  20   9    2.50    0.04
   7  20  11    0.46    0.02
   7  20  13    0.10    0.02
   7  20  15    0.25    0.01
   7  20  17    0.44    0.01
   7  20  19    0.10    0.01
   7  21   8    0.83    0.02
   7  21  10    0.28    0.02
   7  21  12    0.10    0.02
   7  21  14    0.00    0.01
   7  21  16    0.12    0.01
   7  21  18    0.06    0.01
   7  21  20    0.04    0.01
   7  22   7    4.97    0.10
   7  22   9    2.31    0.04
   7  22  11    0.84    0.02
   7  22  13    0.04    0.01
   7  22  15    0.46    0.01
   7  22  17    0.55    0.01
   7  22  19    0.10    0.01
   7  22  21    0.17    0.01
   7  23   8    0.34    0.02
   7  23  10    0.27    0.01
   7  23  12    0.01    0.01
   7  23  14    0.23    0.01
   7  23  16    0.35    0.01
   7  23  18    0.44    0.01
   7  23  20    0.42    0.01
   7  23  22    0.04    0.01
   7  24   7    4.73    0.08
   7  24   9    2.41    0.03
   7  24  11    0.49    0.01
   7  24  13    0.01    0.01
   7  24  15    0.23    0.01
   7  24  17    0.65    0.01
   7  24  19    0.50    0.01
   7  24  21    0.34    0.01
   7  24  23    0.05    0.01
   7  25   8    1.36    0.02
   7  25  10    0.69    0.01
   7  25  12    0.05    0.01
   7  25  14    0.03    0.01
   7  25  16    0.19    0.01
   7  25  18    0.49    0.01
   7  25  20    0.63    0.02
   7  25  22    0.36    0.01
   7  25  24    0.01    0.01
   7  26   7    2.84    0.05
   7  26   9    1.27    0.02
   7  26  11    0.18    0.01
   7  26  13    0.00    0.01
   7  26  15    0.07    0.01
   7  26  17    0.65    0.02
   7  26  19    0.87    0.02
   7  26  21    0.64    0.02
   7  26  23    0.19    0.01
   7  26  25    0.07    0.01
   7  27   8    0.05    0.01
   7  27  10    0.00    0.01
   7  27  12    0.04    0.01
   7  27  14    0.23    0.01
   7  27  16    0.74    0.02
   7  27  18    0.99    0.02
   7  27  20    0.78    0.02
   7  27  22    0.63    0.02
   7  27  24    0.16    0.01
   7  27  26    0.00    0.01
   7  28   7    0.50    0.02
   7  28   9    0.17    0.01
   7  28  11    0.05    0.01
   7  28  13    0.00    0.01
   7  28  15    0.13    0.01
   7  28  17    0.51    0.01
   7  28  19    0.61    0.02
   7  28  21    0.70    0.02
   7  28  23    0.27    0.01
   7  28  25    0.13    0.01
   7  28  27    0.05    0.01
   7  29   8    0.08    0.01
   7  29  10    0.05    0.01
   7  29  12    0.01    0.01
   7  29  14    0.02    0.01
   7  29  16    0.18    0.01
   7  29  18    0.25    0.01
   7  29  20    0.23    0.01
   7  29  22    0.15    0.01
   7  29  24    0.06    0.01
   7  29  26    0.00    0.01
   7  29  28    0.03    0.01
   7  30   7    0.00    0.02
   7  30   9    0.00    0.01
   7  30  11    0.00    0.01
   7  30  13    0.03    0.01
   7  30  15    0.17    0.01
   7  30  17    0.23    0.01
   7  30  19    0.25    0.01
   7  30  21    0.31    0.01
   7  30  23    0.19    0.01
   7  30  25    0.08    0.01
   7  30  27    0.02    0.01
   7  30  29    0.02    0.01
   7  31   8    0.02    0.01
   7  31  10    0.00    0.01
   7  31  12    0.03    0.01
   7  31  14    0.10    0.01
   7  31  16    0.06    0.01
   7  31  18    0.06    0.01
   7  31  20    0.06    0.01
   7  31  22    0.03    0.01
   7  31  24    0.00    0.01
   7  31  26    0.00    0.01
   7  31  28    0.00    0.01
   7  31  30    0.00    0.01
   7  32   7    0.04    0.02
   7  32   9    0.02    0.01
   7  32  11    0.06    0.01
   7  32  13    0.13    0.01
   7  32  15    0.06    0.01
   7  32  17    0.09    0.01
   7  32  19    0.08    0.01
   7  32  21    0.04    0.01
   7  32  23    0.02    0.01
   7  32  25    0.02    0.01
   7  32  27    0.01    0.02
   7  32  29    0.01    0.02
   7  33   8    0.23    0.01
   7  33  10    0.57    0.02
   7  33  12    0.60    0.02
   7  33  14    0.30    0.01
   7  33  16    0.16    0.01
   7  33  18    0.06    0.01
   7  33  20    0.01    0.01
   7  33  22    0.00    0.01
   7  33  24    0.00    0.01
   7  33  26    0.00    0.02
   7  33  28    0.01    0.04
   7  34   7    0.06    0.02
   7  34   9    0.19    0.01
   7  34  11    0.22    0.01
   7  34  13    0.14    0.01
   7  34  15    0.07    0.01
   7  34  17    0.03    0.01
   7  34  19    0.00    0.01
   7  34  21    0.01    0.01
   7  34  23    0.03    0.02
   7  34  25    0.00    0.01
   7  35   8    0.19    0.01
   7  35  10    0.41    0.01
   7  35  12    0.31    0.01
   7  35  14    0.14    0.01
   7  35  16    0.04    0.01
   7  35  18    0.00    0.01
   7  35  20    0.06    0.01
   7  35  22    0.09    0.01
   7  35  24    0.05    0.01
   7  36   7    0.16    0.02
   7  36   9    0.37    0.01
   7  36  11    0.26    0.01
   7  36  13    0.14    0.01
   7  36  15    0.04    0.01
   7  36  17    0.01    0.01
   7  36  19    0.11    0.01
   7  36  21    0.21    0.02
   7  36  23    0.20    0.02
   7  37   8    0.12    0.01
   7  37  10    0.14    0.01
   7  37  12    0.07    0.01
   7  37  14    0.01    0.01
   7  37  16    0.03    0.01
   7  37  18    0.14    0.01
   7  37  20    0.24    0.02
   7  37  22    0.25    0.02
   7  38   7    0.18    0.02
   7  38   9    0.27    0.01
   7  38  11    0.23    0.01
   7  38  13    0.13    0.01
   7  38  15    0.00    0.01
   7  38  17    0.06    0.01
   7  38  19    0.27    0.01
   7  39   8    0.29    0.01
   7  39  10    0.29    0.01
   7  39  12    0.18    0.01
   7  39  14    0.03    0.01
   7  39  16    0.01    0.01
   7  39  18    0.10    0.01
   7  40   7    0.13    0.02
   7  40   9    0.13    0.02
   7  40  11    0.14    0.01
   7  40  13    0.06    0.02
   7  40  15    0.00    0.01
   7  41   8    0.00    0.01
   7  41  10    0.05    0.02
   7  41  12    0.01    0.01
   7  42   7    0.05    0.02
   7  42   9    0.10    0.02
   8   8   8   25.80    1.41
   8   9   9    0.73    0.04
   8  10   8    1.58    0.09
   8  10  10    1.59    0.10
   8  11   9    0.32    0.03
   8  11  11    1.96    0.04
   8  12   8    0.18    0.06
   8  12  10    0.07    0.02
   8  12  12    2.25    0.08
   8  13   9    0.21    0.02
   8  13  11    1.56    0.03
   8  13  13    1.50    0.04
   8  14   8    0.43    0.03
   8  14  10    0.48    0.02
   8  14  12    0.97    0.03
   8  14  14    0.26    0.02
   8  15   9    0.43    0.02
   8  15  11    0.12    0.02
   8  15  13    1.08    0.03
   8  15  15    1.53    0.04
   8  16   8    0.39    0.03
   8  16  10    0.48    0.02
   8  16  12    0.05    0.01
   8  16  14    0.02    0.01
   8  16  16    0.59    0.04
   8  17   9    0.46    0.02
   8  17  11    0.46    0.02
   8  17  13    0.85    0.02
   8  17  15    0.18    0.02
   8  17  17    1.66    0.04
   8  18   8    4.21    0.10
   8  18  10    3.37    0.05
   8  18  12    2.49    0.06
   8  18  14    0.44    0.02
   8  18  16    0.41    0.02
   8  18  18    0.86    0.03
   8  19   9    0.06    0.01
   8  19  11    1.20    0.02
   8  19  13    0.25    0.02
   8  19  15    1.02    0.02
   8  19  17    0.07    0.01
   8  19  19    0.38    0.02
   8  20   8    0.73    0.03
   8  20  10    4.06    0.06
   8  20  12    0.61    0.02
   8  20  14    1.03    0.02
   8  20  16    0.41    0.01
   8  20  18    0.05    0.01
   8  20  20    2.63    0.05
   8  21   9    0.34    0.02
   8  21  11    0.09    0.02
   8  21  13    1.13    0.02
   8  21  15    0.00    0.01
   8  21  17    0.10    0.01
   8  21  19    0.37    0.01
   8  21  21    0.11    0.02
   8  22   8    5.13    0.10
   8  22  10    3.04    0.04
   8  22  12    3.31    0.04
   8  22  14    0.36    0.01
   8  22  16    0.11    0.01
   8  22  18    0.22    0.01
   8  22  20    0.02    0.01
   8  22  22    1.78    0.05
   8  23   9    0.18    0.01
   8  23  11    0.31    0.01
   8  23  13    0.04    0.01
   8  23  15    0.18    0.01
   8  23  17    0.00    0.01
   8  23  19    0.01    0.01
   8  23  21    1.19    0.02
   8  23  23    0.03    0.02
   8  24   8    0.34    0.02
   8  24  10    1.19    0.02
   8  24  12    0.16    0.01
   8  24  14    0.17    0.01
   8  24  16    0.01    0.01
   8  24  18    0.02    0.01
   8  24  20    0.87    0.02
   8  24  22    0.06    0.01
   8  24  24    1.32    0.04
   8  25   9    0.12    0.01
   8  25  11    0.04    0.01
   8  25  13    0.08    0.01
   8  25  15    0.01    0.01
   8  25  17    0.01    0.01
   8  25  19    0.20    0.01
   8  25  21    0.15    0.01
   8  25  23    1.08    0.02
   8  25  25    0.20    0.02
   8  26   8    0.36    0.02
   8  26  10    0.22    0.01
   8  26  12    0.17    0.01
   8  26  14    0.03    0.01
   8  26  16    0.02    0.01
   8  26  18    0.02    0.01
   8  26  20    0.06    0.01
   8  26  22    0.25    0.01
   8  26  24    0.08    0.01
   8  26  26    0.17    0.02
   8  27   9    0.13    0.01
   8  27  11    0.04    0.01
   8  27  13    0.00    0.01
   8  27  15    0.06    0.01
   8  27  17    0.02    0.01
   8  27  19    0.08    0.01
   8  27  21    0.22    0.01
   8  27  23    0.15    0.01
   8  27  25    0.22    0.01
   8  27  27    0.08    0.02
   8  28   8    0.14    0.02
   8  28  10    0.12    0.01
   8  28  12    0.02    0.01
   8  28  14    0.01    0.01
   8  28  16    0.19    0.01
   8  28  18    0.08    0.01
   8  28  20    0.05    0.01
   8  28  22    0.02    0.01
   8  28  24    0.05    0.01
   8  28  26    0.04    0.01
   8  28  28    0.01    0.02
   8  29   9    0.08    0.01
   8  29  11    0.01    0.01
   8  29  13    0.02    0.01
   8  29  15    0.07    0.01
   8  29  17    0.00    0.01
   8  29  19    0.02    0.01
   8  29  21    0.01    0.01
   8  29  23    0.01    0.01
   8  29  25    0.02    0.01
   8  29  27    0.01    0.01
   8  29  29    0.02    0.03
   8  30   8    0.23    0.02
   8  30  10    0.00    0.01
   8  30  12    0.01    0.01
   8  30  14    0.19    0.01
   8  30  16    0.00    0.01
   8  30  18    0.04    0.01
   8  30  20    0.00    0.01
   8  30  22    0.01    0.01
   8  30  24    0.04    0.01
   8  30  26    0.01    0.01
   8  30  28    0.04    0.01
   8  30  30    0.01    0.02
   8  31   9    0.04    0.01
   8  31  11    0.00    0.01
   8  31  13    0.06    0.01
   8  31  15    0.03    0.01
   8  31  17    0.05    0.01
   8  31  19    0.02    0.01
   8  31  21    0.01    0.01
   8  31  23    0.14    0.01
   8  31  25    0.02    0.01
   8  31  27    0.09    0.01
   8  31  29    0.03    0.02
   8  32   8    0.27    0.02
   8  32  10    0.07    0.01
   8  32  12    0.01    0.01
   8  32  14    0.20    0.01
   8  32  16    0.03    0.01
   8  32  18    0.09    0.01
   8  32  20    0.01    0.01
   8  32  22    0.26    0.02
   8  32  24    0.04    0.01
   8  32  26    0.25    0.01
   8  32  28    0.08    0.02
   8  33   9    0.00    0.01
   8  33  11    0.01    0.01
   8  33  13    0.07    0.01
   8  33  15    0.12    0.01
   8  33  17    0.08    0.01
   8  33  19    0.00    0.01
   8  33  21    0.27    0.01
   8  33  23    0.05    0.01
   8  33  25    0.39    0.01
   8  33  27    0.13    0.01
   8  34   8    0.02    0.02
   8  34  10    0.01    0.01
   8  34  12    0.14    0.01
   8  34  14    0.09    0.01
   8  34  16    0.05    0.01
   8  34  18    0.04    0.01
   8  34  20    0.04    0.01
   8  34  22    0.00    0.02
   8  34  24    0.29    0.02
   8  34  26    0.12    0.01
   8  35   9    0.10    0.01
   8  35  11    0.11    0.01
   8  35  13    0.10    0.01
   8  35  15    0.08    0.01
   8  35  17    0.03    0.01
   8  35  19    0.06    0.01
   8  35  21    0.01    0.02
   8  35  23    0.32    0.01
   8  35  25    0.12    0.02
   8  36   8    0.04    0.02
   8  36  10    0.17    0.01
   8  36  12    0.01    0.01
   8  36  14    0.08    0.01
   8  36  16    0.19    0.01
   8  36  18    0.03    0.01
   8  36  20    0.09    0.01
   8  36  22    0.05    0.02
   8  37   9    0.28    0.01
   8  37  11    0.01    0.01
   8  37  13    0.10    0.01
   8  37  15    0.09    0.01
   8  37  17    0.00    0.01
   8  37  19    0.02    0.01
   8  37  21    0.03    0.01
   8  38   8    0.59    0.02
   8  38  10    0.23    0.01
   8  38  12    0.31    0.01
   8  38  14    0.01    0.01
   8  38  16    0.00    0.01
   8  38  18    0.15    0.02
   8  38  20    0.03    0.01
   8  39   9    0.04    0.01
   8  39  11    0.09    0.01
   8  39  13    0.01    0.01
   8  39  15    0.00    0.01
   8  39  17    0.09    0.02
   8  40   8    0.07    0.03
   8  40  10    0.19    0.02
   8  40  12    0.01    0.01
   8  40  14    0.00    0.01
   8  40  16    0.13    0.02
   8  41   9    0.04    0.01
   8  41  11    0.00    0.01
   8  41  13    0.00    0.01
   8  42   8    0.20    0.03
   9  10   9    2.53    0.10
   9  11  10    2.77    0.05
   9  12   9    0.65    0.03
   9  12  11    2.56    0.04
   9  13  10    0.00    0.01
   9  13  12    0.40    0.02
   9  14   9    0.19    0.03
   9  14  11    0.91    0.02
   9  14  13    0.53    0.02
   9  15  10    0.50    0.02
   9  15  12    0.12    0.02
   9  15  14    0.12    0.01
   9  16   9    0.11    0.02
   9  16  11    0.53    0.02
   9  16  13    0.32    0.02
   9  16  15    0.60    0.02
   9  17  10    0.69    0.02
   9  17  12    1.02    0.02
   9  17  14    0.42    0.02
   9  17  16    0.04    0.02
   9  18   9    0.24    0.02
   9  18  11    0.30    0.02
   9  18  13    0.27    0.02
   9  18  15    0.50    0.02
   9  18  17    0.45    0.01
   9  19  10    0.31    0.02
   9  19  12    0.33    0.02
   9  19  14    0.33    0.02
   9  19  16    0.07    0.01
   9  19  18    0.16    0.01
   9  20   9    1.18    0.05
   9  20  11    0.01    0.02
   9  20  13    0.24    0.01
   9  20  15    0.60    0.01
   9  20  17    0.40    0.01
   9  20  19    0.39    0.01
   9  21  10    0.84    0.02
   9  21  12    0.53    0.01
   9  21  14    0.59    0.01
   9  21  16    0.52    0.01
   9  21  18    0.17    0.01
   9  21  20    0.01    0.01
   9  22   9    1.01    0.03
   9  22  11    0.09    0.01
   9  22  13    0.17    0.01
   9  22  15    0.77    0.01
   9  22  17    0.56    0.01
   9  22  19    0.28    0.01
   9  22  21    0.12    0.01
   9  23  10    0.06    0.01
   9  23  12    0.02    0.01
   9  23  14    0.12    0.01
   9  23  16    0.11    0.01
   9  23  18    0.11    0.01
   9  23  20    0.10    0.01
   9  23  22    0.01    0.01
   9  24   9    1.27    0.03
   9  24  11    0.15    0.01
   9  24  13    0.01    0.01
   9  24  15    0.20    0.01
   9  24  17    0.33    0.01
   9  24  19    0.35    0.01
   9  24  21    0.11    0.01
   9  24  23    0.10    0.01
   9  25  10    0.02    0.01
   9  25  12    0.03    0.01
   9  25  14    0.15    0.01
   9  25  16    0.21    0.01
   9  25  18    0.34    0.01
   9  25  20    0.40    0.01
   9  25  22    0.18    0.01
   9  25  24    0.00    0.01
   9  26   9    0.57    0.02
   9  26  11    0.08    0.01
   9  26  13    0.02    0.01
   9  26  15    0.00    0.01
   9  26  17    0.19    0.01
   9  26  19    0.40    0.01
   9  26  21    0.22    0.01
   9  26  23    0.18    0.01
   9  26  25    0.08    0.01
   9  27  10    0.09    0.01
   9  27  12    0.11    0.01
   9  27  14    0.01    0.01
   9  27  16    0.06    0.01
   9  27  18    0.14    0.01
   9  27  20    0.17    0.01
   9  27  22    0.17    0.01
   9  27  24    0.05    0.01
   9  27  26    0.02    0.01
   9  28   9    0.14    0.02
   9  28  11    0.15    0.01
   9  28  13    0.11    0.01
   9  28  15    0.01    0.01
   9  28  17    0.03    0.01
   9  28  19    0.15    0.01
   9  28  21    0.26    0.01
   9  28  23    0.25    0.01
   9  28  25    0.14    0.01
   9  28  27    0.07    0.01
   9  29  10    0.11    0.01
   9  29  12    0.11    0.01
   9  29  14    0.01    0.01
   9  29  16    0.02    0.01
   9  29  18    0.05    0.01
   9  29  20    0.10    0.01
   9  29  22    0.09    0.01
   9  29  24    0.09    0.01
   9  29  26    0.01    0.01
   9  29  28    0.00    0.01
   9  30   9    0.06    0.02
   9  30  11    0.13    0.01
   9  30  13    0.07    0.01
   9  30  15    0.00    0.01
   9  30  17    0.00    0.01
   9  30  19    0.06    0.01
   9  30  21    0.17    0.01
   9  30  23    0.29    0.01
   9  30  25    0.19    0.01
   9  30  27    0.09    0.01
   9  30  29    0.02    0.01
   9  31  10    0.03    0.01
   9  31  12    0.06    0.01
   9  31  14    0.11    0.01
   9  31  16    0.05    0.01
   9  31  18    0.05    0.01
   9  31  20    0.08    0.01
   9  31  22    0.07    0.01
   9  31  24    0.05    0.01
   9  31  26    0.04    0.01
   9  31  28    0.04    0.01
   9  32   9    0.01    0.02
   9  32  11    0.01    0.01
   9  32  13    0.00    0.01
   9  32  15    0.01    0.01
   9  32  17    0.00    0.01
   9  32  19    0.02    0.01
   9  32  21    0.03    0.01
   9  32  23    0.10    0.01
   9  32  25    0.11    0.01
   9  32  27    0.07    0.01
   9  33  10    0.05    0.01
   9  33  12    0.09    0.01
   9  33  14    0.02    0.01
   9  33  16    0.00    0.01
   9  33  18    0.00    0.01
   9  33  20    0.00    0.01
   9  33  22    0.00    0.01
   9  33  24    0.00    0.02
   9  33  26    0.02    0.01
   9  34   9    0.14    0.02
   9  34  11    0.09    0.01
   9  34  13    0.01    0.01
   9  34  15    0.00    0.01
   9  34  17    0.00    0.01
   9  34  19    0.01    0.01
   9  34  21    0.02    0.01
   9  34  23    0.00    0.01
   9  34  25    0.01    0.01
   9  35  10    0.18    0.01
   9  35  12    0.09    0.01
   9  35  14    0.02    0.01
   9  35  16    0.00    0.01
   9  35  18    0.05    0.01
   9  35  20    0.08    0.01
   9  35  22    0.05    0.01
   9  35  24    0.00    0.01
   9  36   9    0.37    0.02
   9  36  11    0.21    0.01
   9  36  13    0.06    0.01
   9  36  15    0.01    0.01
   9  36  17    0.02    0.01
   9  36  19    0.10    0.02
   9  36  21    0.17    0.01
   9  36  23    0.10    0.01
   9  37  10    0.22    0.01
   9  37  12    0.14    0.01
   9  37  14    0.06    0.01
   9  37  16    0.00    0.02
   9  37  18    0.07    0.02
   9  37  20    0.13    0.01
   9  38   9    0.23    0.02
   9  38  11    0.20    0.01
   9  38  13    0.10    0.01
   9  38  15    0.01    0.01
   9  38  17    0.02    0.01
   9  38  19    0.13    0.02
   9  39  10    0.05    0.01
   9  39  12    0.03    0.01
   9  39  14    0.00    0.01
   9  39  16    0.02    0.01
   9  40   9    0.10    0.03
   9  40  11    0.12    0.01
   9  40  13    0.07    0.02
   9  40  15    0.00    0.01
   9  41  10    0.08    0.01
   9  41  12    0.04    0.02
  10  10  10    8.20    0.50
  10  11  11    0.00    0.02
  10  12  10    0.59    0.04
  10  12  12    0.04    0.02
  10  13  11    0.64    0.02
  10  13  13    2.02    0.06
  10  14  10    0.16    0.02
  10  14  12    0.34    0.02
  10  14  14    0.90    0.04
  10  15  11    0.99    0.03
  10  15  13    2.96    0.06
  10  15  15    4.31    0.11
  10  16  10    1.33    0.06
  10  16  12    3.50    0.07
  10  16  14    2.90    0.06
  10  16  16    1.26    0.04
  10  17  11    1.33    0.03
  10  17  13    2.26    0.05
  10  17  15    1.79    0.04
  10  17  17    4.12    0.07
  10  18  10    3.35    0.08
  10  18  12    5.74    0.10
  10  18  14    2.26    0.05
  10  18  16    2.50    0.04
  10  18  18    0.19    0.02
  10  19  11    1.99    0.04
  10  19  13    1.02    0.03
  10  19  15    2.44    0.04
  10  19  17    0.07    0.01
  10  19  19    0.57    0.02
  10  20  10    7.61    0.17
  10  20  12    4.82    0.08
  10  20  14    4.16    0.06
  10  20  16    0.09    0.01
  10  20  18    0.02    0.01
  10  20  20    1.15    0.03
  10  21  11    0.70    0.02
  10  21  13    1.90    0.03
  10  21  15    0.13    0.01
  10  21  17    0.30    0.01
  10  21  19    0.12    0.01
  10  21  21    0.07    0.02
  10  22  10    1.74    0.04
  10  22  12    2.96    0.04
  10  22  14    0.14    0.01
  10  22  16    0.01    0.01
  10  22  18    0.48    0.01
  10  22  20    0.20    0.01
  10  22  22    3.83    0.07
  10  23  11    0.48    0.01
  10  23  13    0.02    0.01
  10  23  15    0.11    0.01
  10  23  17    0.00    0.01
  10  23  19    0.00    0.01
  10  23  21    1.71    0.03
  10  23  23    0.40    0.02
  10  24  10    1.89    0.04
  10  24  12    0.40    0.01
  10  24  14    0.17    0.01
  10  24  16    0.01    0.01
  10  24  18    0.09    0.01
  10  24  20    1.33    0.02
  10  24  22    0.62    0.02
  10  24  24    1.68    0.04
  10  25  11    0.04    0.01
  10  25  13    0.01    0.01
  10  25  15    0.00    0.01
  10  25  17    0.00    0.01
  10  25  19    0.55    0.02
  10  25  21    0.56    0.02
  10  25  23    1.57    0.03
  10  25  25    0.37    0.02
  10  26  10    0.00    0.02
  10  26  12    0.03    0.01
  10  26  14    0.22    0.01
  10  26  16    0.30    0.01
  10  26  18    0.86    0.02
  10  26  20    0.81    0.02
  10  26  22    1.09    0.02
  10  26  24    0.30    0.01
  10  26  26    0.22    0.02
  10  27  11    0.12    0.01
  10  27  13    0.03    0.01
  10  27  15    0.00    0.01
  10  27  17    0.23    0.01
  10  27  19    0.50    0.02
  10  27  21    0.59    0.02
  10  27  23    0.42    0.02
  10  27  25    0.28    0.02
  10  27  27    0.04    0.02
  10  28  10    0.29    0.02
  10  28  12    0.16    0.01
  10  28  14    0.23    0.01
  10  28  16    0.97    0.02
  10  28  18    0.72    0.02
  10  28  20    0.39    0.01
  10  28  22    0.22    0.01
  10  28  24    0.05    0.01
  10  28  26    0.00    0.01
  10  28  28    0.13    0.02
  10  29  11    0.00    0.01
  10  29  13    0.01    0.01
  10  29  15    0.25    0.01
  10  29  17    0.10    0.01
  10  29  19    0.15    0.01
  10  29  21    0.11    0.01
  10  29  23    0.05    0.01
  10  29  25    0.00    0.01
  10  29  27    0.03    0.01
  10  29  29    0.25    0.02
  10  30  10    0.05    0.02
  10  30  12    0.00    0.01
  10  30  14    0.28    0.01
  10  30  16    0.10    0.01
  10  30  18    0.20    0.02
  10  30  20    0.03    0.01
  10  30  22    0.00    0.01
  10  30  24    0.09    0.01
  10  30  26    0.20    0.01
  10  30  28    0.45    0.01
  10  30  30    0.33    0.02
  10  31  11    0.01    0.01
  10  31  13    0.18    0.01
  10  31  15    0.00    0.01
  10  31  17    0.13    0.01
  10  31  19    0.00    0.01
  10  31  21    0.00    0.01
  10  31  23    0.12    0.01
  10  31  25    0.08    0.01
  10  31  27    0.26    0.01
  10  31  29    0.23    0.01
  10  32  10    0.01    0.02
  10  32  12    0.07    0.01
  10  32  14    0.00    0.01
  10  32  16    0.32    0.02
  10  32  18    0.02    0.01
  10  32  20    0.04    0.01
  10  32  22    0.08    0.01
  10  32  24    0.06    0.01
  10  32  26    0.49    0.02
  10  32  28    0.40    0.02
  10  33  11    0.00    0.01
  10  33  13    0.01    0.01
  10  33  15    0.19    0.01
  10  33  17    0.00    0.01
  10  33  19    0.03    0.01
  10  33  21    0.09    0.01
  10  33  23    0.04    0.01
  10  33  25    0.44    0.02
  10  33  27    0.26    0.01
  10  34  10    0.00    0.02
  10  34  12    0.02    0.01
  10  34  14    0.32    0.01
  10  34  16    0.03    0.01
  10  34  18    0.28    0.01
  10  34  20    0.00    0.01
  10  34  22    0.00    0.01
  10  34  24    0.29    0.01
  10  35  11    0.10    0.01
  10  35  13    0.11    0.01
  10  35  15    0.01    0.01
  10  35  17    0.10    0.01
  10  35  19    0.01    0.01
  10  35  21    0.00    0.01
  10  35  23    0.23    0.02
  10  36  10    0.17    0.02
  10  36  12    0.00    0.01
  10  36  14    0.04    0.01
  10  36  16    0.23    0.02
  10  36  18    0.05    0.01
  10  36  20    0.08    0.02
  10  36  22    0.03    0.01
  10  37  11    0.00    0.01
  10  37  13    0.04    0.01
  10  37  15    0.12    0.01
  10  37  17    0.00    0.01
  10  37  19    0.01    0.02
  10  37  21    0.03    0.02
  10  38  10    0.05    0.02
  10  38  12    0.07    0.01
  10  38  14    0.08    0.01
  10  38  16    0.02    0.02
  10  38  18    0.18    0.02
  10  39  11    0.06    0.01
  10  39  13    0.01    0.01
  10  39  15    0.00    0.01
  10  39  17    0.07    0.02
  10  40  10    0.26    0.03
  10  40  12    0.04    0.01
  10  40  14    0.02    0.02
  10  41  11    0.01    0.02
  11  12  11    0.43    0.02
  11  13  12    0.00    0.02
  11  14  11    0.15    0.02
  11  14  13    0.14    0.02
  11  15  12    0.70    0.02
  11  15  14    0.02    0.02
  11  16  11    0.14    0.03
  11  16  13    0.20    0.02
  11  16  15    0.15    0.02
  11  17  12    1.61    0.03
  11  17  14    0.43    0.02
  11  17  16    0.03    0.01
  11  18  11    0.53    0.03
  11  18  13    0.58    0.02
  11  18  15    0.39    0.01
  11  18  17    0.41    0.01
  11  19  12    1.78    0.04
  11  19  14    0.83    0.02
  11  19  16    0.15    0.01
  11  19  18    0.06    0.01
  11  20  11    0.35    0.03
  11  20  13    0.86    0.02
  11  20  15    0.80    0.02
  11  20  17    0.55    0.01
  11  20  19    0.35    0.01
  11  21  12    0.52    0.02
  11  21  14    0.27    0.01
  11  21  16    0.14    0.01
  11  21  18    0.03    0.01
  11  21  20    0.11    0.01
  11  22  11    0.00    0.01
  11  22  13    0.35    0.01
  11  22  15    0.65    0.01
  11  22  17    0.45    0.01
  11  22  19    0.17    0.02
  11  22  21    0.21    0.01
  11  23  12    0.70    0.01
  11  23  14    0.46    0.01
  11  23  16    0.28    0.01
  11  23  18    0.18    0.01
  11  23  20    0.07    0.01
  11  23  22    0.01    0.01
  11  24  11    0.01    0.01
  11  24  13    0.04    0.01
  11  24  15    0.13    0.01
  11  24  17    0.13    0.01
  11  24  19    0.13    0.01
  11  24  21    0.09    0.01
  11  24  23    0.07    0.01
  11  25  12    0.02    0.01
  11  25  14    0.03    0.01
  11  25  16    0.01    0.01
  11  25  18    0.01    0.01
  11  25  20    0.01    0.01
  11  25  22    0.00    0.01
  11  25  24    0.05    0.01
  11  26  11    0.08    0.02
  11  26  13    0.09    0.01
  11  26  15    0.05    0.01
  11  26  17    0.00    0.01
  11  26  19    0.02    0.01
  11  26  21    0.05    0.01
  11  26  23    0.06    0.01
  11  26  25    0.12    0.01
  11  27  12    0.21    0.01
  11  27  14    0.14    0.01
  11  27  16    0.01    0.01
  11  27  18    0.00    0.01
  11  27  20    0.01    0.01
  11  27  22    0.03    0.01
  11  27  24    0.01    0.01
  11  27  26    0.01    0.01
  11  28  11    0.38    0.02
  11  28  13    0.40    0.01
  11  28  15    0.22    0.01
  11  28  17    0.08    0.01
  11  28  19    0.00    0.01
  11  28  21    0.10    0.01
  11  28  23    0.17    0.01
  11  28  25    0.22    0.01
  11  28  27    0.10    0.01
  11  29  12    0.03    0.01
  11  29  14    0.01    0.01
  11  29  16    0.00    0.01
  11  29  18    0.02    0.01
  11  29  20    0.04    0.01
  11  29  22    0.06    0.01
  11  29  24    0.09    0.01
  11  29  26    0.05    0.01
  11  29  28    0.00    0.01
  11  30  11    0.47    0.02
  11  30  13    0.45    0.01
  11  30  15    0.26    0.01
  11  30  17    0.15    0.01
  11  30  19    0.01    0.01
  11  30  21    0.08    0.01
  11  30  23    0.26    0.01
  11  30  25    0.25    0.01
  11  30  27    0.13    0.01
  11  30  29    0.02    0.01
  11  31  12    0.01    0.01
  11  31  14    0.01    0.01
  11  31  16    0.02    0.01
  11  31  18    0.00    0.01
  11  31  20    0.01    0.01
  11  31  22    0.02    0.01
  11  31  24    0.07    0.01
  11  31  26    0.12    0.02
  11  31  28    0.08    0.01
  11  32  11    0.12    0.02
  11  32  13    0.18    0.01
  11  32  15    0.25    0.01
  11  32  17    0.16    0.01
  11  32  19    0.03    0.01
  11  32  21    0.00    0.01
  11  32  23    0.10    0.01
  11  32  25    0.16    0.02
  11  32  27    0.14    0.01
  11  33  12    0.01    0.01
  11  33  14    0.11    0.01
  11  33  16    0.13    0.01
  11  33  18    0.07    0.01
  11  33  20    0.04    0.01
  11  33  22    0.00    0.01
  11  33  24    0.02    0.01
  11  33  26    0.11    0.01
  11  34  11    0.00    0.02
  11  34  13    0.05    0.01
  11  34  15    0.10    0.01
  11  34  17    0.08    0.01
  11  34  19    0.09    0.01
  11  34  21    0.02    0.01
  11  34  23    0.00    0.01
  11  34  25    0.05    0.01
  11  35  12    0.03    0.01
  11  35  14    0.00    0.01
  11  35  16    0.02    0.01
  11  35  18    0.06    0.01
  11  35  20    0.04    0.01
  11  35  22    0.01    0.01
  11  35  24    0.02    0.05
  11  36  11    0.04    0.01
  11  36  13    0.00    0.01
  11  36  15    0.00    0.01
  11  36  17    0.03    0.01
  11  36  19    0.05    0.01
  11  36  21    0.04    0.01
  11  37  12    0.00    0.01
  11  37  14    0.00    0.01
  11  37  16    0.04    0.01
  11  37  18    0.07    0.01
  11  37  20    0.08    0.02
  11  38  11    0.12    0.02
  11  38  13    0.06    0.01
  11  38  15    0.00    0.01
  11  38  17    0.01    0.01
  11  39  12    0.04    0.02
  11  39  14    0.01    0.01
  11  39  16    0.00    0.01
  11  40  11    0.12    0.02
  11  40  13    0.07    0.02
  12  12  12    0.08    0.05
  12  13  13    0.61    0.04
  12  14  12    1.84    0.06
  12  14  14    4.30    0.10
  12  15  13    2.04    0.04
  12  15  15    3.39    0.10
  12  16  12    5.83    0.15
  12  16  14    6.22    0.11
  12  16  16    3.14    0.07
  12  17  13    2.71    0.05
  12  17  15    2.13    0.04
  12  17  17    4.24    0.08
  12  18  12    8.22    0.21
  12  18  14    5.10    0.07
  12  18  16    4.46    0.06
  12  18  18    0.06    0.02
  12  19  13    1.44    0.03
  12  19  15    2.86    0.04
  12  19  17    0.24    0.01
  12  19  19    0.96    0.03
  12  20  12    3.76    0.07
  12  20  14    4.13    0.05
  12  20  16    0.15    0.01
  12  20  18    0.09    0.01
  12  20  20    0.76    0.03
  12  21  13    1.66    0.03
  12  21  15    0.11    0.01
  12  21  17    0.31    0.01
  12  21  19    0.00    0.01
  12  21  21    0.13    0.02
  12  22  12    3.89    0.07
  12  22  14    0.55    0.01
  12  22  16    0.21    0.01
  12  22  18    0.05    0.02
  12  22  20    0.07    0.02
  12  22  22    2.72    0.06
  12  23  13    0.03    0.01
  12  23  15    0.07    0.01
  12  23  17    0.00    0.01
  12  23  19    0.00    0.01
  12  23  21    1.45    0.03
  12  23  23    0.49    0.02
  12  24  12    0.09    0.01
  12  24  14    0.16    0.01
  12  24  16    0.33    0.01
  12  24  18    0.44    0.01
  12  24  20    2.29    0.04
  12  24  22    1.10    0.02
  12  24  24    2.28    0.05
  12  25  13    0.00    0.01
  12  25  15    0.00    0.01
  12  25  17    0.02    0.01
  12  25  19    0.61    0.02
  12  25  21    0.68    0.02
  12  25  23    1.39    0.03
  12  25  25    0.34    0.02
  12  26  12    0.30    0.02
  12  26  14    0.52    0.01
  12  26  16    0.43    0.01
  12  26  18    1.10    0.02
  12  26  20    1.11    0.02
  12  26  22    1.00    0.02
  12  26  24    0.35    0.01
  12  26  26    0.09    0.02
  12  27  13    0.09    0.01
  12  27  15    0.02    0.01
  12  27  17    0.38    0.01
  12  27  19    0.51    0.02
  12  27  21    0.52    0.02
  12  27  23    0.33    0.02
  12  27  25    0.15    0.01
  12  27  27    0.01    0.02
  12  28  12    0.18    0.02
  12  28  14    0.27    0.01
  12  28  16    0.96    0.02
  12  28  18    0.73    0.02
  12  28  20    0.47    0.02
  12  28  22    0.21    0.01
  12  28  24    0.03    0.01
  12  28  26    0.08    0.01
  12  28  28    0.38    0.03
  12  29  13    0.07    0.01
  12  29  15    0.48    0.02
  12  29  17    0.28    0.01
  12  29  19    0.23    0.01
  12  29  21    0.14    0.01
  12  29  23    0.06    0.01
  12  29  25    0.00    0.01
  12  29  27    0.12    0.01
  12  29  29    0.41    0.03
  12  30  12    0.13    0.02
  12  30  14    0.82    0.02
  12  30  16    0.45    0.01
  12  30  18    0.49    0.01
  12  30  20    0.20    0.01
  12  30  22    0.06    0.01
  12  30  24    0.06    0.01
  12  30  26    0.32    0.01
  12  30  28    0.74    0.02
  12  31  13    0.31    0.01
  12  31  15    0.13    0.01
  12  31  17    0.40    0.01
  12  31  19    0.11    0.01
  12  31  21    0.08    0.01
  12  31  23    0.02    0.01
  12  31  25    0.06    0.01
  12  31  27    0.33    0.01
  12  32  12    0.62    0.02
  12  32  14    0.47    0.02
  12  32  16    1.08    0.02
  12  32  18    0.32    0.02
  12  32  20    0.29    0.02
  12  32  22    0.00    0.01
  12  32  24    0.03    0.01
  12  32  26    0.46    0.02
  12  33  13    0.01    0.01
  12  33  15    0.39    0.01
  12  33  17    0.06    0.01
  12  33  19    0.16    0.01
  12  33  21    0.01    0.01
  12  33  23    0.00    0.01
  12  33  25    0.31    0.02
  12  34  12    0.00    0.02
  12  34  14    0.38    0.01
  12  34  16    0.09    0.01
  12  34  18    0.30    0.01
  12  34  20    0.01    0.01
  12  34  22    0.01    0.01
  12  34  24    0.23    0.01
  12  35  13    0.18    0.01
  12  35  15    0.01    0.01
  12  35  17    0.21    0.02
  12  35  19    0.00    0.01
  12  35  21    0.00    0.01
  12  35  23    0.13    0.01
  12  36  12    0.21    0.02
  12  36  14    0.04    0.01
  12  36  16    0.47    0.02
  12  36  18    0.10    0.01
  12  36  20    0.12    0.01
  12  37  13    0.01    0.01
  12  37  15    0.18    0.01
  12  37  17    0.01    0.01
  12  37  19    0.02    0.02
  12  38  12    0.08    0.02
  12  38  14    0.04    0.01
  12  38  16    0.00    0.01
  12  38  18    0.05    0.01
  12  39  13    0.01    0.01
  12  39  15    0.00    0.01
  12  40  12    0.00    0.03
  13  14  13    0.02    0.02
  13  15  14    0.37    0.02
  13  16  13    0.07    0.03
  13  16  15    0.02    0.01
  13  17  14    1.09    0.02
  13  17  16    0.02    0.01
  13  18  13    0.46    0.02
  13  18  15    0.33    0.01
  13  18  17    0.18    0.01
  13  19  14    0.76    0.02
  13  19  16    0.06    0.01
  13  19  18    0.11    0.01
  13  20  13    0.94    0.02
  13  20  15    0.67    0.01
  13  20  17    0.33    0.01
  13  20  19    0.33    0.02
  13  21  14    1.02    0.02
  13  21  16    0.34    0.01
  13  21  18    0.05    0.01
  13  21  20    0.04    0.01
  13  22  13    0.63    0.02
  13  22  15    0.50    0.02
  13  22  17    0.26    0.01
  13  22  19    0.15    0.01
  13  22  21    0.08    0.01
  13  23  14    0.00    0.01
  13  23  16    0.01    0.01
  13  23  18    0.02    0.01
  13  23  20    0.02    0.02
  13  23  22    0.10    0.01
  13  24  13    0.04    0.02
  13  24  15    0.04    0.01
  13  24  17    0.03    0.01
  13  24  19    0.07    0.01
  13  24  21    0.02    0.01
  13  24  23    0.12    0.01
  13  25  14    0.01    0.01
  13  25  16    0.01    0.01
  13  25  18    0.00    0.01
  13  25  20    0.00    0.01
  13  25  22    0.00    0.01
  13  25  24    0.04    0.01
  13  26  13    0.20    0.02
  13  26  15    0.17    0.01
  13  26  17    0.04    0.01
  13  26  19    0.00    0.01
  13  26  21    0.01    0.01
  13  26  23    0.09    0.01
  13  26  25    0.10    0.01
  13  27  14    0.08    0.01
  13  27  16    0.02    0.01
  13  27  18    0.00    0.01
  13  27  20    0.00    0.01
  13  27  22    0.01    0.01
  13  27  24    0.00    0.01
  13  27  26    0.02    0.01
  13  28  13    0.65    0.02
  13  28  15    0.55    0.01
  13  28  17    0.28    0.01
  13  28  19    0.03    0.01
  13  28  21    0.02    0.01
  13  28  23    0.11    0.01
  13  28  25    0.15    0.02
  13  28  27    0.07    0.01
  13  29  14    0.09    0.01
  13  29  16    0.05    0.01
  13  29  18    0.02    0.01
  13  29  20    0.00    0.01
  13  29  22    0.01    0.01
  13  29  24    0.04    0.01
  13  29  26    0.03    0.01
  13  29  28    0.00    0.01
  13  30  13    0.77    0.03
  13  30  15    0.79    0.02
  13  30  17    0.56    0.02
  13  30  19    0.15    0.01
  13  30  21    0.00    0.01
  13  30  23    0.11    0.01
  13  30  25    0.17    0.02
  13  30  27    0.11    0.01
  13  30  29    0.01    0.02
  13  31  14    0.43    0.01
  13  31  16    0.46    0.01
  13  31  18    0.26    0.01
  13  31  20    0.05    0.01
  13  31  22    0.00    0.01
  13  31  24    0.03    0.01
  13  31  26    0.13    0.02
  13  31  28    0.12    0.01
  13  32  13    0.50    0.02
  13  32  15    0.71    0.02
  13  32  17    0.51    0.02
  13  32  19    0.13    0.01
  13  32  21    0.00    0.01
  13  32  23    0.07    0.01
  13  32  25    0.17    0.01
  13  32  27    0.16    0.05
  13  33  14    0.13    0.01
  13  33  16    0.19    0.02
  13  33  18    0.11    0.02
  13  33  20    0.04    0.01
  13  33  22    0.01    0.01
  13  33  24    0.06    0.01
  13  34  13    0.28    0.02
  13  34  15    0.36    0.01
  13  34  17    0.27    0.01
  13  34  19    0.12    0.01
  13  34  21    0.01    0.01
  13  34  23    0.01    0.01
  13  35  14    0.27    0.01
  13  35  16    0.26    0.01
  13  35  18    0.22    0.01
  13  35  20    0.08    0.01
  13  35  22    0.00    0.01
  13  36  13    0.03    0.02
  13  36  15    0.06    0.01
  13  36  17    0.08    0.01
  13  36  19    0.03    0.01
  13  36  21    0.00    0.01
  13  37  14    0.00    0.01
  13  37  16    0.01    0.01
  13  37  18    0.01    0.01
  13  38  13    0.02    0.02
  13  38  15    0.00    0.01
  13  38  17    0.00    0.01
  13  39  14    0.01    0.01
  14  14  14    6.04    0.25
  14  15  15    1.18    0.03
  14  16  14    6.72    0.12
  14  16  16    3.94    0.07
  14  17  15    0.97    0.02
  14  17  17    2.35    0.05
  14  18  14    3.49    0.06
  14  18  16    3.49    0.05
  14  18  18    0.01    0.02
  14  19  15    1.95    0.03
  14  19  17    0.12    0.02
  14  19  19    0.75    0.02
  14  20  14    4.72    0.09
  14  20  16    0.61    0.01
  14  20  18    0.30    0.01
  14  20  20    0.01    0.02
  14  21  15    0.06    0.01
  14  21  17    0.26    0.01
  14  21  19    0.05    0.01
  14  21  21    0.31    0.03
  14  22  14    0.01    0.01
  14  22  16    0.00    0.01
  14  22  18    0.15    0.01
  14  22  20    0.00    0.01
  14  22  22    2.07    0.05
  14  23  15    0.04    0.01
  14  23  17    0.03    0.01
  14  23  19    0.08    0.01
  14  23  21    0.58    0.02
  14  23  23    0.10    0.02
  14  24  14    0.09    0.02
  14  24  16    0.05    0.01
  14  24  18    0.07    0.01
  14  24  20    0.76    0.02
  14  24  22    0.51    0.02
  14  24  24    0.93    0.03
  14  25  15    0.00    0.01
  14  25  17    0.00    0.01
  14  25  19    0.29    0.01
  14  25  21    0.26    0.01
  14  25  23    0.51    0.02
  14  25  25    0.06    0.01
  14  26  14    0.48    0.02
  14  26  16    0.22    0.01
  14  26  18    0.64    0.02
  14  26  20    0.49    0.02
  14  26  22    0.58    0.02
  14  26  24    0.13    0.01
  14  26  26    0.03    0.02
  14  27  15    0.02    0.01
  14  27  17    0.31    0.01
  14  27  19    0.32    0.01
  14  27  21    0.24    0.01
  14  27  23    0.12    0.01
  14  27  25    0.03    0.01
  14  27  27    0.03    0.02
  14  28  14    0.33    0.02
  14  28  16    0.88    0.02
  14  28  18    0.64    0.02
  14  28  20    0.30    0.01
  14  28  22    0.17    0.01
  14  28  24    0.01    0.01
  14  28  26    0.10    0.02
  14  28  28    0.36    0.03
  14  29  15    0.63    0.02
  14  29  17    0.43    0.02
  14  29  19    0.33    0.01
  14  29  21    0.18    0.01
  14  29  23    0.06    0.01
  14  29  25    0.00    0.01
  14  29  27    0.11    0.02
  14  29  29    0.35    0.03
  14  30  14    2.03    0.05
  14  30  16    1.30    0.03
  14  30  18    1.10    0.03
  14  30  20    0.45    0.02
  14  30  22    0.18    0.01
  14  30  24    0.01    0.01
  14  30  26    0.22    0.02
  14  30  28    0.57    0.02
  14  31  15    0.33    0.01
  14  31  17    0.61    0.02
  14  31  19    0.24    0.02
  14  31  21    0.17    0.01
  14  31  23    0.00    0.01
  14  31  25    0.02    0.01
  14  31  27    0.21    0.02
  14  32  14    0.49    0.02
  14  32  16    0.97    0.02
  14  32  18    0.39    0.02
  14  32  20    0.30    0.02
  14  32  22    0.00    0.01
  14  32  24    0.01    0.01
  14  32  26    0.31    0.02
  14  33  15    0.66    0.02
  14  33  17    0.25    0.02
  14  33  19    0.35    0.02
  14  33  21    0.01    0.01
  14  33  23    0.00    0.01
  14  33  25    0.13    0.01
  14  34  14    1.15    0.03
  14  34  16    0.46    0.02
  14  34  18    0.68    0.02
  14  34  20    0.09    0.01
  14  34  22    0.04    0.01
  14  35  15    0.07    0.01
  14  35  17    0.30    0.01
  14  35  19    0.02    0.01
  14  35  21    0.02    0.01
  14  36  14    0.00    0.02
  14  36  16    0.17    0.01
  14  36  18    0.01    0.01
  14  36  20    0.01    0.01
  14  37  15    0.15    0.01
  14  37  17    0.00    0.01
  14  38  14    0.19    0.02
  14  38  16    0.02    0.01
  15  16  15    0.05    0.02
  15  17  16    0.06    0.01
  15  18  15    0.18    0.02
  15  18  17    0.19    0.01
  15  19  16    0.54    0.01
  15  19  18    0.00    0.01
  15  20  15    0.38    0.02
  15  20  17    0.33    0.02
  15  20  19    0.05    0.01
  15  21  16    0.00    0.01
  15  21  18    0.05    0.01
  15  21  20    0.15    0.02
  15  22  15    0.25    0.02
  15  22  17    0.23    0.01
  15  22  19    0.03    0.01
  15  22  21    0.13    0.02
  15  23  16    0.02    0.01
  15  23  18    0.00    0.01
  15  23  20    0.00    0.01
  15  23  22    0.02    0.01
  15  24  15    0.01    0.02
  15  24  17    0.03    0.01
  15  24  19    0.01    0.01
  15  24  21    0.04    0.01
  15  24  23    0.03    0.01
  15  25  16    0.00    0.01
  15  25  18    0.01    0.01
  15  25  20    0.01    0.01
  15  25  22    0.00    0.01
  15  25  24    0.02    0.01
  15  26  15    0.14    0.02
  15  26  17    0.02    0.01
  15  26  19    0.00    0.01
  15  26  21    0.02    0.01
  15  26  23    0.04    0.02
  15  26  25    0.06    0.01
  15  27  16    0.01    0.01
  15  27  18    0.00    0.01
  15  27  20    0.00    0.01
  15  27  22    0.01    0.01
  15  27  24    0.00    0.01
  15  27  26    0.01    0.01
  15  28  15    0.64    0.02
  15  28  17    0.31    0.02
  15  28  19    0.10    0.01
  15  28  21    0.00    0.01
  15  28  23    0.03    0.01
  15  28  25    0.06    0.01
  15  28  27    0.03    0.01
  15  29  16    0.55    0.02
  15  29  18    0.33    0.02
  15  29  20    0.10    0.01
  15  29  22    0.01    0.01
  15  29  24    0.00    0.01
  15  29  26    0.01    0.02
  15  29  28    0.00    0.02
  15  30  15    1.02    0.03
  15  30  17    0.66    0.02
  15  30  19    0.22    0.02
  15  30  21    0.00    0.01
  15  30  23    0.04    0.01
  15  30  25    0.07    0.01
  15  30  27    0.06    0.01
  15  31  16    0.45    0.02
  15  31  18    0.28    0.02
  15  31  20    0.06    0.01
  15  31  22    0.00    0.01
  15  31  24    0.03    0.01
  15  31  26    0.12    0.02
  15  32  15    1.07    0.04
  15  32  17    0.69    0.02
  15  32  19    0.23    0.02
  15  32  21    0.01    0.01
  15  32  23    0.04    0.01
  15  32  25    0.11    0.01
  15  33  16    0.64    0.02
  15  33  18    0.38    0.02
  15  33  20    0.13    0.02
  15  33  22    0.00    0.01
  15  33  24    0.05    0.01
  15  34  15    0.49    0.02
  15  34  17    0.29    0.02
  15  34  19    0.11    0.01
  15  34  21    0.00    0.01
  15  34  23    0.05    0.01
  15  35  16    0.09    0.01
  15  35  18    0.07    0.01
  15  35  20    0.00    0.01
  15  36  15    0.09    0.02
  15  36  17    0.07    0.01
  15  36  19    0.02    0.01
  15  37  16    0.14    0.01
  15  37  18    0.05    0.02
  15  38  15    0.00    0.02
  16  16  16    1.46    0.07
  16  17  17    0.69    0.03
  16  18  16    2.76    0.06
  16  18  18    0.49    0.02
  16  19  17    0.00    0.01
  16  19  19    0.27    0.02
  16  20  16    0.03    0.02
  16  20  18    0.14    0.01
  16  20  20    0.06    0.02
  16  21  17    0.16    0.01
  16  21  19    0.08    0.01
  16  21  21    0.53    0.03
  16  22  16    0.03    0.02
  16  22  18    0.13    0.01
  16  22  20    0.19    0.01
  16  22  22    0.12    0.02
  16  23  17    0.10    0.01
  16  23  19    0.26    0.01
  16  23  21    0.04    0.01
  16  23  23    0.06    0.02
  16  24  16    0.00    0.02
  16  24  18    0.14    0.01
  16  24  20    0.06    0.01
  16  24  22    0.00    0.01
  16  24  24    0.09    0.02
  16  25  17    0.03    0.01
  16  25  19    0.02    0.01
  16  25  21    0.00    0.01
  16  25  23    0.01    0.01
  16  25  25    0.02    0.02
  16  26  16    0.06    0.02
  16  26  18    0.07    0.01
  16  26  20    0.06    0.01
  16  26  22    0.03    0.01
  16  26  24    0.00    0.01
  16  26  26    0.00    0.02
  16  27  17    0.22    0.01
  16  27  19    0.18    0.01
  16  27  21    0.06    0.01
  16  27  23    0.01    0.01
  16  27  25    0.00    0.01
  16  27  27    0.03    0.02
  16  28  16    1.48    0.04
  16  28  18    0.72    0.02
  16  28  20    0.31    0.01
  16  28  22    0.10    0.01
  16  28  24    0.01    0.01
  16  28  26    0.04    0.01
  16  28  28    0.13    0.03
  16  29  17    0.41    0.02
  16  29  19    0.27    0.01
  16  29  21    0.11    0.01
  16  29  23    0.03    0.01
  16  29  25    0.00    0.01
  16  29  27    0.04    0.01
  16  30  16    1.03    0.03
  16  30  18    0.74    0.02
  16  30  20    0.31    0.01
  16  30  22    0.11    0.01
  16  30  24    0.00    0.01
  16  30  26    0.08    0.02
  16  31  17    0.67    0.02
  16  31  19    0.29    0.02
  16  31  21    0.18    0.01
  16  31  23    0.00    0.01
  16  31  25    0.00    0.01
  16  32  16    1.44    0.04
  16  32  18    0.64    0.02
  16  32  20    0.46    0.02
  16  32  22    0.03    0.01
  16  32  24    0.00    0.01
  16  33  17    0.28    0.01
  16  33  19    0.32    0.02
  16  33  21    0.02    0.01
  16  33  23    0.02    0.01
  16  34  16    0.22    0.02
  16  34  18    0.32    0.02
  16  34  20    0.03    0.01
  16  34  22    0.01    0.01
  16  35  17    0.30    0.02
  16  35  19    0.05    0.01
  16  35  21    0.04    0.03
  16  36  16    0.46    0.02
  16  36  18    0.09    0.01
  16  37  17    0.01    0.01
  17  18  17    0.02    0.02
  17  19  18    0.08    0.01
  17  20  17    0.04    0.02
  17  20  19    0.17    0.01
  17  21  18    0.06    0.01
  17  21  20    0.00    0.01
  17  22  17    0.06    0.02
  17  22  19    0.11    0.01
  17  22  21    0.00    0.01
  17  23  18    0.09    0.01
  17  23  20    0.05    0.01
  17  23  22    0.00    0.01
  17  24  17    0.00    0.02
  17  24  19    0.04    0.01
  17  24  21    0.00    0.01
  17  24  23    0.00    0.01
  17  25  18    0.05    0.01
  17  25  20    0.05    0.01
  17  25  22    0.02    0.01
  17  25  24    0.00    0.02
  17  26  17    0.04    0.02
  17  26  19    0.00    0.01
  17  26  21    0.00    0.01
  17  26  23    0.00    0.01
  17  26  25    0.00    0.01
  17  27  18    0.07    0.01
  17  27  20    0.01    0.01
  17  27  22    0.00    0.02
  17  27  24    0.00    0.01
  17  27  26    0.00    0.01
  17  28  17    0.24    0.03
  17  28  19    0.05    0.01
  17  28  21    0.00    0.01
  17  28  23    0.01    0.01
  17  28  25    0.02    0.01
  17  28  27    0.01    0.02
  17  29  18    0.24    0.02
  17  29  20    0.05    0.02
  17  29  22    0.00    0.01
  17  29  24    0.01    0.01
  17  29  26    0.00    0.01
  17  29  28    0.00    0.01
  17  30  17    0.52    0.03
  17  30  19    0.13    0.02
  17  30  21    0.01    0.01
  17  30  23    0.02    0.01
  17  30  25    0.03    0.01
  17  30  27    0.03    0.01
  17  31  18    0.40    0.02
  17  31  20    0.13    0.02
  17  31  22    0.01    0.01
  17  31  24    0.01    0.01
  17  32  17    0.48    0.03
  17  32  19    0.13    0.02
  17  32  21    0.01    0.01
  17  32  23    0.02    0.01
  17  33  18    0.18    0.01
  17  33  20    0.05    0.01
  17  33  22    0.00    0.01
  17  34  17    0.24    0.02
  17  34  19    0.08    0.01
  17  34  21    0.00    0.01
  17  35  18    0.19    0.01
  17  35  20    0.05    0.01
  17  36  17    0.05    0.02
  18  18  18    0.21    0.04
  18  19  19    0.10    0.02
  18  20  18    0.20    0.02
  18  20  20    0.53    0.02
  18  21  19    0.13    0.01
  18  21  21    0.74    0.02
  18  22  18    0.20    0.02
  18  22  20    1.21    0.03
  18  22  22    0.20    0.02
  18  23  19    0.38    0.01
  18  23  21    0.05    0.01
  18  23  23    0.32    0.02
  18  24  18    0.40    0.02
  18  24  20    0.30    0.01
  18  24  22    0.54    0.02
  18  24  24    0.16    0.02
  18  25  19    0.01    0.01
  18  25  21    0.10    0.01
  18  25  23    0.05    0.02
  18  25  25    0.12    0.02
  18  26  18    0.05    0.02
  18  26  20    0.02    0.01
  18  26  22    0.04    0.01
  18  26  24    0.08    0.02
  18  26  26    0.00    0.02
  18  27  19    0.03    0.01
  18  27  21    0.00    0.01
  18  27  23    0.02    0.02
  18  27  25    0.01    0.01
  18  27  27    0.03    0.04
  18  28  18    0.37    0.02
  18  28  20    0.05    0.01
  18  28  22    0.01    0.01
  18  28  24    0.00    0.02
  18  28  26    0.01    0.01
  18  28  28    0.00    0.02
  18  29  19    0.13    0.02
  18  29  21    0.03    0.01
  18  29  23    0.00    0.01
  18  29  25    0.00    0.01
  18  29  27    0.01    0.01
  18  30  18    0.64    0.03
  18  30  20    0.23    0.02
  18  30  22    0.08    0.01
  18  30  24    0.00    0.01
  18  30  26    0.01    0.02
  18  31  19    0.16    0.02
  18  31  21    0.10    0.02
  18  31  23    0.00    0.01
  18  31  25    0.00    0.01
  18  32  18    0.35    0.02
  18  32  20    0.24    0.02
  18  32  22    0.01    0.01
  18  33  19    0.23    0.01
  18  33  21    0.03    0.01
  18  34  18    0.43    0.02
  18  34  20    0.08    0.01
  18  35  19    0.04    0.01
  19  20  19    0.02    0.02
  19  21  20    0.08    0.01
  19  22  19    0.01    0.02
  19  22  21    0.04    0.01
  19  23  20    0.34    0.01
  19  23  22    0.19    0.01
  19  24  19    0.00    0.01
  19  24  21    0.02    0.01
  19  24  23    0.08    0.01
  19  25  20    0.04    0.01
  19  25  22    0.05    0.01
  19  25  24    0.02    0.01
  19  26  19    0.02    0.02
  19  26  21    0.01    0.01
  19  26  23    0.02    0.01
  19  26  25    0.00    0.01
  19  27  20    0.00    0.01
  19  27  22    0.02    0.01
  19  27  24    0.01    0.01
  19  27  26    0.00    0.01
  19  28  19    0.06    0.02
  19  28  21    0.00    0.01
  19  28  23    0.00    0.01
  19  28  25    0.00    0.02
  19  28  27    0.00    0.01
  19  29  20    0.01    0.01
  19  29  22    0.00    0.01
  19  29  24    0.01    0.01
  19  29  26    0.00    0.02
  19  30  19    0.04    0.02
  19  30  21    0.00    0.01
  19  30  23    0.01    0.02
  19  30  25    0.01    0.01
  19  31  20    0.05    0.01
  19  31  22    0.00    0.01
  19  31  24    0.00    0.01
  19  32  19    0.05    0.02
  19  32  21    0.00    0.01
  19  32  23    0.00    0.01
  19  33  20    0.11    0.01
  19  34  19    0.04    0.02
  20  20  20    0.78    0.05
  20  21  21    0.60    0.02
  20  22  20    2.33    0.06
  20  22  22    1.67    0.04
  20  23  21    0.15    0.01
  20  23  23    0.53    0.02
  20  24  20    0.38    0.02
  20  24  22    1.15    0.02
  20  24  24    0.34    0.02
  20  25  21    0.20    0.01
  20  25  23    0.18    0.01
  20  25  25    0.21    0.02
  20  26  20    0.16    0.02
  20  26  22    0.35    0.02
  20  26  24    0.19    0.01
  20  26  26    0.03    0.02
  20  27  21    0.04    0.01
  20  27  23    0.08    0.01
  20  27  25    0.05    0.01
  20  27  27    0.02    0.02
  20  28  20    0.00    0.01
  20  28  22    0.03    0.01
  20  28  24    0.01    0.01
  20  28  26    0.00    0.02
  20  29  21    0.00    0.01
  20  29  23    0.00    0.01
  20  29  25    0.01    0.01
  20  30  20    0.09    0.02
  20  30  22    0.02    0.01
  20  30  24    0.00    0.01
  20  31  21    0.05    0.01
  20  31  23    0.01    0.01
  20  32  20    0.23    0.02
  20  32  22    0.04    0.02
  21  22  21    0.39    0.02
  21  23  22    0.16    0.01
  21  24  21    0.22    0.02
  21  24  23    0.11    0.01
  21  25  22    0.20    0.01
  21  25  24    0.13    0.02
  21  26  21    0.10    0.02
  21  26  23    0.03    0.01
  21  26  25    0.03    0.01
  21  27  22    0.07    0.02
  21  27  24    0.04    0.01
  21  27  26    0.01    0.02
  21  28  21    0.01    0.02
  21  28  23    0.00    0.01
  21  28  25    0.00    0.01
  21  29  22    0.00    0.01
  21  29  24    0.01    0.01
  21  30  21    0.00    0.02
  21  30  23    0.00    0.01
  21  31  22    0.01    0.01
  21  32  21    0.00    0.01
  22  22  22    0.70    0.04
  22  23  23    0.47    0.02
  22  24  22    1.14    0.04
  22  24  24    0.74    0.03
  22  25  23    0.20    0.01
  22  25  25    0.22    0.02
  22  26  22    0.26    0.02
  22  26  24    0.29    0.02
  22  26  26    0.07    0.02
  22  27  23    0.10    0.01
  22  27  25    0.07    0.01
  22  28  22    0.03    0.02
  22  28  24    0.05    0.01
  22  29  23    0.00    0.01
  22  30  22    0.01    0.02
  23  24  23    0.29    0.02
  23  25  24    0.14    0.02
  23  26  23    0.09    0.01
  23  26  25    0.04    0.02
  23  27  24    0.06    0.02
  23  28  23    0.01    0.02
  24  24  24    0.27    0.06
  24  25  25    0.15    0.03
  24  26  24    0.20    0.03
   0   0   0    0.00    0.00
;
_shelx_hkl_checksum              77421
_shelx_shelxl_version_number     2014/7
_olex2_submission_special_instructions 'No special instructions were received'
loop_
_space_group_symop_operation_xyz
'x, y, z'
'-y, x, z'
'-x, -y, z'
'y, -x, z'
'x, -z, y'
'x, -y, -z'
'x, z, -y'
'z, y, -x'
'-x, y, -z'
'-z, y, x'
'z, x, y'
'y, z, x'
'-y, -z, x'
'z, -x, -y'
'-y, z, -x'
'-z, -x, y'
'-z, x, -y'
'y, -z, -x'
'y, x, -z'
'-y, -x, -z'
'-x, z, y'
'-x, -z, -y'
'z, -y, x'
'-z, -y, -x'
'x+1/2, y+1/2, z+1/2'
'-y+1/2, x+1/2, z+1/2'
'-x+1/2, -y+1/2, z+1/2'
'y+1/2, -x+1/2, z+1/2'
'x+1/2, -z+1/2, y+1/2'
'x+1/2, -y+1/2, -z+1/2'
'x+1/2, z+1/2, -y+1/2'
'z+1/2, y+1/2, -x+1/2'
'-x+1/2, y+1/2, -z+1/2'
'-z+1/2, y+1/2, x+1/2'
'z+1/2, x+1/2, y+1/2'
'y+1/2, z+1/2, x+1/2'
'-y+1/2, -z+1/2, x+1/2'
'z+1/2, -x+1/2, -y+1/2'
'-y+1/2, z+1/2, -x+1/2'
'-z+1/2, -x+1/2, y+1/2'
'-z+1/2, x+1/2, -y+1/2'
'y+1/2, -z+1/2, -x+1/2'
'y+1/2, x+1/2, -z+1/2'
'-y+1/2, -x+1/2, -z+1/2'
'-x+1/2, z+1/2, y+1/2'
'-x+1/2, -z+1/2, -y+1/2'
'z+1/2, -y+1/2, x+1/2'
'-z+1/2, -y+1/2, -x+1/2'
'-x, -y, -z'
'y, -x, -z'
'x, y, -z'
'-y, x, -z'
'-x, z, -y'
'-x, y, z'
'-x, -z, y'
'-z, -y, x'
'x, -y, z'
'z, -y, -x'
'-z, -x, -y'
'-y, -z, -x'
'y, z, -x'
'-z, x, y'
'y, -z, x'
'z, x, -y'
'z, -x, y'
'-y, z, x'
'-y, -x, z'
'y, x, z'
'x, -z, -y'
'x, z, y'
'-z, y, -x'
'z, y, x'
'-x+1/2, -y+1/2, -z+1/2'
'y+1/2, -x+1/2, -z+1/2'
'x+1/2, y+1/2, -z+1/2'
'-y+1/2, x+1/2, -z+1/2'
'-x+1/2, z+1/2, -y+1/2'
'-x+1/2, y+1/2, z+1/2'
'-x+1/2, -z+1/2, y+1/2'
'-z+1/2, -y+1/2, x+1/2'
'x+1/2, -y+1/2, z+1/2'
'z+1/2, -y+1/2, -x+1/2'
'-z+1/2, -x+1/2, -y+1/2'
'-y+1/2, -z+1/2, -x+1/2'
'y+1/2, z+1/2, -x+1/2'
'-z+1/2, x+1/2, y+1/2'
'y+1/2, -z+1/2, x+1/2'
'z+1/2, x+1/2, -y+1/2'
'z+1/2, -x+1/2, y+1/2'
'-y+1/2, z+1/2, x+1/2'
'-y+1/2, -x+1/2, z+1/2'
'y+1/2, x+1/2, z+1/2'
'x+1/2, -z+1/2, -y+1/2'
'x+1/2, z+1/2, y+1/2'
'-z+1/2, y+1/2, -x+1/2'
'z+1/2, y+1/2, x+1/2'
loop_
_atom_site_label
_atom_site_type_symbol
_atom_site_fract_x
_atom_site_fract_y
_atom_site_fract_z
_atom_site_U_iso_or_equiv
_atom_site_adp_type
_atom_site_occupancy
_atom_site_site_symmetry_order
_atom_site_calc_flag
_atom_site_refinement_flags_posn
_atom_site_refinement_flags_adp
_atom_site_refinement_flags_occupancy
Zr1 Zr 0.29933(4) 0.29933(4) 0.23359(4) 0.0744(6) Uani 0.4927(17) 2 d S TU P
Zr2 Zr 0.21504(4) 0.27837(4) 0.21504(4) 0.0744(6) Uani 0.5073(17) 2 d S TU P
C4 C 0.40968(13) 0.2500 0.09032(13) 0.107(3) Uani 1 2 d S TU P
N1 N 0.5000 0.2495(3) 0.05100(14) 0.112(3) Uani 1 2 d S TU P
C2 C 0.47155(12) 0.2490(2) 0.07233(13) 0.114(3) Uani 1 1 d . U .
O1 O 0.32762(15) 0.2777(2) 0.18541(14) 0.1519(18) Uani 1 1 d . U .
C1 C 0.48304(14) 0.2470(3) 0.10865(12) 0.131(3) Uani 1 1 d . U .
H1 H 0.4685 0.2458 0.1285 0.157 Uiso 1 1 calc R . .
C3 C 0.43734(12) 0.2500 0.06266(12) 0.107(3) Uani 1 2 d S TU P
C7 C 0.35919(13) 0.2500 0.14081(13) 0.115(3) Uani 1 2 d S TU P
C6 C 0.36598(18) 0.2208(3) 0.12277(19) 0.125(3) Uani 1 1 d . U .
H6 H 0.3529 0.2003 0.1272 0.150 Uiso 1 1 calc R . .
C5 C 0.39214(18) 0.2205(3) 0.0977(2) 0.137(3) Uani 1 1 d . U .
H5 H 0.3976 0.1996 0.0857 0.165 Uiso 1 1 calc R . .
O3 O 0.24442(19) 0.3080(3) 0.24442(19) 0.1519(18) Uani 1 2 d S TU P
O4 O 0.28174(11) 0.28174(11) 0.28174(11) 0.0492(16) Uani 1 6 d S TU P
O2 O 0.3056(4) 0.3425(3) 0.2498(3) 0.263(5) Uani 1 1 d . U .
Co1 Co 0.5000 0.2500 0.0000 0.1072(13) Uani 1 8 d S TU P
C9 C 0.5000 0.3056(12) 0.0000 0.117(4) Uani 0.4838 4 d DS TU P
O5 O 0.5000 0.3366(13) 0.0000 0.30(2) Uani 0.4838 4 d DS TU P
C8 C 0.33173(16) 0.2500 0.16827(16) 0.131(4) Uani 1 2 d S TU P
loop_
_atom_site_aniso_label
_atom_site_aniso_U_11
_atom_site_aniso_U_22
_atom_site_aniso_U_33
_atom_site_aniso_U_23
_atom_site_aniso_U_13
_atom_site_aniso_U_12
Zr1 0.0731(6) 0.0731(6) 0.0769(9) 0.0381(5) 0.0381(5) 0.0336(6)
Zr2 0.0731(6) 0.0731(6) 0.0769(9) 0.0381(5) 0.0381(5) 0.0336(6)
C4 0.036(2) 0.248(11) 0.036(2) 0.009(3) 0.006(3) 0.009(3)
N1 0.030(2) 0.272(9) 0.033(2) 0.006(4) 0.000 0.000
C2 0.036(2) 0.267(9) 0.038(2) 0.010(3) 0.0119(19) 0.006(3)
O1 0.133(3) 0.213(5) 0.110(3) 0.086(3) 0.075(2) 0.090(3)
C1 0.048(2) 0.315(11) 0.029(2) 0.007(4) 0.004(2) -0.001(4)
C3 0.0358(19) 0.250(11) 0.0358(19) -0.002(3) 0.007(3) -0.002(3)
C7 0.075(3) 0.194(9) 0.075(3) 0.062(4) 0.051(4) 0.062(4)
C6 0.078(4) 0.211(8) 0.087(4) 0.027(5) 0.045(3) 0.028(5)
C5 0.071(4) 0.236(9) 0.105(5) 0.003(5) 0.045(4) 0.014(5)
O3 0.133(3) 0.213(5) 0.110(3) 0.086(3) 0.075(2) 0.090(3)
O4 0.0492(16) 0.0492(16) 0.0492(16) 0.0207(19) 0.0207(19) 0.0207(19)
O2 0.428(13) 0.156(6) 0.206(8) 0.047(5) 0.046(8) -0.079(9)
Co1 0.0234(6) 0.275(4) 0.0234(6) 0.000 0.000 0.000
C9 0.034(9) 0.271(8) 0.046(10) 0.000 0.000 0.000
O5 0.34(5) 0.274(9) 0.28(5) 0.000 0.000 0.000
C8 0.103(5) 0.188(9) 0.103(5) 0.073(5) 0.075(6) 0.073(5)
loop_
_atom_type_symbol
_atom_type_description
_atom_type_scat_dispersion_real
_atom_type_scat_dispersion_imag
_atom_type_scat_source
C C 0.0181 0.0091 'International Tables Vol C Tables 4.2.6.8 and 6.1.1.4'
H H 0.0000 0.0000 'International Tables Vol C Tables 4.2.6.8 and 6.1.1.4'
Co Co -2.3653 3.6143 'International Tables Vol C Tables 4.2.6.8 and 6.1.1.4'
N N 0.0311 0.0180 'International Tables Vol C Tables 4.2.6.8 and 6.1.1.4'
O O 0.0492 0.0322 'International Tables Vol C Tables 4.2.6.8 and 6.1.1.4'
Zr Zr -0.1862 2.2449 'International Tables Vol C Tables 4.2.6.8 and 6.1.1.4'
loop_
_geom_angle_atom_site_label_1
_geom_angle_atom_site_label_2
_geom_angle_atom_site_label_3
_geom_angle
_geom_angle_site_symmetry_1
_geom_angle_site_symmetry_3
Zr1 Zr1 Zr1 60.0 11 12
Zr2 Zr1 Zr1 85.84(9) 83 12
Zr2 Zr1 Zr1 88.89(2) 12 11
Zr2 Zr1 Zr1 85.84(9) 83 11
Zr2 Zr1 Zr1 88.90(2) . 12
Zr2 Zr1 Zr1 58.44(4) . 11
Zr2 Zr1 Zr1 58.44(4) 12 12
Zr2 Zr1 Zr2 34.09(6) 83 .
Zr2 Zr1 Zr2 60.55(7) . 12
Zr2 Zr1 Zr2 34.09(6) 83 12
Zr2 Zr1 O1 70.1(2) 83 .
Zr2 Zr1 O1 70.1(2) 83 68
Zr2 Zr1 O3 66.4(4) 83 12
Zr2 Zr1 O3 66.4(4) 83 .
Zr2 Zr1 O4 93.1(2) 83 .
Zr2 Zr1 O2 145.5(5) 83 .
Zr2 Zr1 O2 145.5(5) 83 68
O1 Zr1 Zr1 108.27(14) . 12
O1 Zr1 Zr1 154.5(2) 68 12
O1 Zr1 Zr1 154.5(2) . 11
O1 Zr1 Zr1 108.27(14) 68 11
O1 Zr1 Zr2 66.5(2) . 12
O1 Zr1 Zr2 66.5(2) 68 .
O1 Zr1 Zr2 101.2(2) . .
O1 Zr1 Zr2 101.2(2) 68 12
O1 Zr1 O1 72.2(2) 68 .
O3 Zr1 Zr1 88.47(17) 12 11
O3 Zr1 Zr1 34.84(19) 12 12
O3 Zr1 Zr1 34.84(19) . 11
O3 Zr1 Zr1 88.48(17) . 12
O3 Zr1 Zr2 32.5(4) . .
O3 Zr1 Zr2 87.5(4) . 12
O3 Zr1 Zr2 87.5(4) 12 .
O3 Zr1 Zr2 32.5(4) 12 12
O3 Zr1 O1 131.8(4) . .
O3 Zr1 O1 74.4(2) . 68
O3 Zr1 O1 131.8(4) 12 68
O3 Zr1 O1 74.4(2) 12 .
O3 Zr1 O3 105.2(6) . 12
O4 Zr1 Zr1 30.94(5) . 12
O4 Zr1 Zr1 30.94(5) . 11
O4 Zr1 Zr2 78.51(18) . 12
O4 Zr1 Zr2 78.51(18) . .
O4 Zr1 O1 138.64(18) . 68
O4 Zr1 O1 138.65(18) . .
O4 Zr1 O3 64.23(19) . 12
O4 Zr1 O3 64.23(19) . .
O2 Zr1 Zr1 81.3(4) 68 12
O2 Zr1 Zr1 81.3(4) . 11
O2 Zr1 Zr1 114.2(3) 68 11
O2 Zr1 Zr1 114.2(3) . 12
O2 Zr1 Zr2 114.8(5) 68 12
O2 Zr1 Zr2 170.0(3) 68 .
O2 Zr1 Zr2 170.0(3) . 12
O2 Zr1 Zr2 114.8(5) . .
O2 Zr1 O1 83.7(4) . 68
O2 Zr1 O1 123.5(4) . .
O2 Zr1 O1 123.5(4) 68 68
O2 Zr1 O1 83.7(4) 68 .
O2 Zr1 O3 85.5(6) 68 12
O2 Zr1 O3 144.3(5) . 12
O2 Zr1 O3 144.3(5) 68 .
O2 Zr1 O3 85.4(6) . .
O2 Zr1 O4 92.0(3) . .
O2 Zr1 O4 92.0(3) 68 .
O2 Zr1 O2 68.3(10) . 68
Zr1 Zr2 Zr1 145.62(6) 84 11
Zr1 Zr2 Zr2 135.12(10) 84 84
Zr1 Zr2 Zr2 135.12(10) 84 83
Zr1 Zr2 O1 86.7(3) 84 84
Zr1 Zr2 O1 86.7(3) 84 46
Zr1 Zr2 O3 89.0(4) 84 83
Zr1 Zr2 O3 89.0(4) 84 84
Zr1 Zr2 O3 174.9(2) 84 .
Zr1 Zr2 O4 63.9(2) 84 73
Zr1 Zr2 O2 23.1(3) 84 84
Zr1 Zr2 O2 23.1(3) 84 46
Zr2 Zr2 Zr1 10.79(4) 84 11
Zr2 Zr2 Zr1 71.47(9) 83 11
Zr2 Zr2 Zr2 78.81(12) 84 83
O1 Zr2 Zr1 122.6(2) 84 11
O1 Zr2 Zr1 83.4(2) 46 11
O1 Zr2 Zr2 132.6(2) 84 84
O1 Zr2 Zr2 83.3(2) 46 84
O1 Zr2 Zr2 132.6(2) 46 83
O1 Zr2 Zr2 83.3(2) 84 83
O1 Zr2 O1 77.4(3) 46 84
O1 Zr2 O4 132.34(19) 84 73
O1 Zr2 O4 132.34(19) 46 73
O1 Zr2 O2 98.4(4) 46 46
O1 Zr2 O2 70.2(3) 84 46
O1 Zr2 O2 98.4(4) 84 84
O1 Zr2 O2 70.2(3) 46 84
O3 Zr2 Zr1 36.54(11) . 11
O3 Zr2 Zr1 57.0(4) 84 11
O3 Zr2 Zr1 111.2(4) 83 11
O3 Zr2 Zr2 46.3(4) 84 84
O3 Zr2 Zr2 47.27(13) . 83
O3 Zr2 Zr2 47.27(13) . 84
O3 Zr2 Zr2 46.3(4) 83 83
O3 Zr2 Zr2 114.1(4) 84 83
O3 Zr2 Zr2 114.1(4) 83 84
O3 Zr2 O1 158.3(2) 83 46
O3 Zr2 O1 81.1(2) 83 84
O3 Zr2 O1 89.3(3) . 84
O3 Zr2 O1 158.3(2) 84 84
O3 Zr2 O1 89.3(3) . 46
O3 Zr2 O1 81.1(2) 84 46
O3 Zr2 O3 120.1(3) 84 83
O3 Zr2 O3 93.5(5) . 83
O3 Zr2 O3 93.5(4) . 84
O3 Zr2 O4 62.9(2) 83 73
O3 Zr2 O4 62.9(2) 84 73
O3 Zr2 O4 121.2(3) . 73
O3 Zr2 O2 110.3(5) 84 46
O3 Zr2 O2 71.1(5) 83 46
O3 Zr2 O2 110.3(5) 83 84
O3 Zr2 O2 71.1(5) 84 84
O3 Zr2 O2 155.7(3) . 84
O3 Zr2 O2 155.7(3) . 46
O4 Zr2 Zr1 99.99(14) 73 11
O4 Zr2 Zr2 92.02(12) 73 83
O4 Zr2 Zr2 92.02(12) 73 84
O4 Zr2 O2 69.2(3) 73 84
O4 Zr2 O2 69.2(2) 73 46
O2 Zr2 Zr1 166.9(3) 46 11
O2 Zr2 Zr1 124.6(3) 84 11
O2 Zr2 Zr2 115.0(3) 46 83
O2 Zr2 Zr2 156.2(3) 46 84
O2 Zr2 Zr2 115.0(3) 84 84
O2 Zr2 Zr2 156.2(3) 84 83
O2 Zr2 O2 45.7(7) 46 84
C5 C4 C3 120.1(4) . .
C5 C4 C3 120.1(4) 48 .
C5 C4 C5 119.8(9) 48 .
C2 N1 C2 106.3(5) . 54_655
C2 N1 Co1 126.9(3) . .
C2 N1 Co1 126.9(3) 54_655 .
N1 C2 C1 109.3(4) . .
N1 C2 C3 127.3(5) . .
C3 C2 C1 123.4(5) . .
Zr2 O1 Zr1 23.14(8) 83 .
C8 O1 Zr1 141.6(6) . .
C8 O1 Zr2 122.5(6) . 83
C1 C1 C2 107.5(3) 54_655 .
C2 C3 C4 119.2(3) 48 .
C2 C3 C4 119.2(3) . .
C2 C3 C2 121.6(6) 48 .
C6 C7 C6 119.8(8) . 48
C6 C7 C8 120.1(4) 48 .
C6 C7 C8 120.1(4) . .
C7 C6 C5 120.1(10) . .
C4 C5 C6 120.1(10) . .
Zr1 O3 Zr1 110.3(4) 11 .
Zr2 O3 Zr1 120.4(3) 83 11
Zr2 O3 Zr1 120.4(3) 84 .
Zr2 O3 Zr1 111.0(4) . .
Zr2 O3 Zr1 24.59(9) 83 .
Zr2 O3 Zr1 111.0(4) . 11
Zr2 O3 Zr1 24.59(9) 84 11
Zr2 O3 Zr2 119.2(4) 84 83
Zr2 O3 Zr2 86.5(4) . 84
Zr2 O3 Zr2 86.5(4) . 83
Zr1 O4 Zr1 118.12(10) . 11
Zr1 O4 Zr1 118.12(10) . 12
Zr1 O4 Zr1 118.12(10) 12 11
Zr1 O4 Zr2 110.7(2) . 84
Zr1 O4 Zr2 22.98(7) 11 84
Zr1 O4 Zr2 22.98(7) 12 73
Zr1 O4 Zr2 110.7(2) 12 84
Zr1 O4 Zr2 22.99(7) . 83
Zr1 O4 Zr2 110.7(2) . 73
Zr1 O4 Zr2 110.7(2) 12 83
Zr1 O4 Zr2 110.7(2) 11 83
Zr1 O4 Zr2 110.7(2) 11 73
Zr2 O4 Zr2 96.0(2) 84 83
Zr2 O4 Zr2 96.0(2) 84 73
Zr2 O4 Zr2 96.0(2) 73 83
Zr1 O2 Zr2 11.47(17) . 83
N1 Co1 N1 178.9(6) . 51
N1 Co1 N1 178.9(6) 82 80_554
N1 Co1 N1 90.005(6) . 82
N1 Co1 N1 90.005(6) 82 51
N1 Co1 N1 90.005(6) . 80_554
N1 Co1 N1 90.005(6) 80_554 51
N1 Co1 C9 90.5(3) . .
N1 Co1 C9 89.5(3) 51 80_554
N1 Co1 C9 90.5(3) 51 .
N1 Co1 C9 90.5(3) 82 80_554
N1 Co1 C9 89.5(3) . 80_554
N1 Co1 C9 89.5(3) 80_554 .
N1 Co1 C9 90.5(3) 80_554 80_554
N1 Co1 C9 89.5(3) 82 .
C9 Co1 C9 180.0 . 80_554
O5 C9 Co1 180.0 . .
O1 C8 O1 125.5(9) . 48
O1 C8 C7 117.2(4) . .
O1 C8 C7 117.2(4) 48 .
loop_
_geom_bond_atom_site_label_1
_geom_bond_atom_site_label_2
_geom_bond_distance
_geom_bond_site_symmetry_2
Zr1 Zr1 3.5796(18) 11
Zr1 Zr1 3.5796(18) 12
Zr1 Zr2 0.908(2) 83
Zr1 Zr2 3.420(4) .
Zr1 Zr2 3.420(4) 12
Zr1 O1 2.306(6) 68
Zr1 O1 2.306(6) .
Zr1 O3 2.181(5) 12
Zr1 O3 2.181(5) .
Zr1 O4 2.0867(15) .
Zr1 O2 1.790(11) 68
Zr1 O2 1.790(11) .
Zr2 Zr1 3.419(4) 11
Zr2 Zr1 0.908(2) 84
Zr2 Zr2 2.716(4) 83
Zr2 Zr2 2.716(4) 84
Zr2 O1 2.172(5) 84
Zr2 O1 2.172(5) 46
Zr2 O3 1.999(4) 84
Zr2 O3 1.999(4) 83
Zr2 O3 1.966(14) .
Zr2 O4 2.321(4) 73
Zr2 O2 2.589(11) 84
Zr2 O2 2.589(11) 46
C4 C3 1.506(10) .
C4 C5 1.350(11) .
C4 C5 1.350(11) 48
N1 C2 1.369(5) .
N1 C2 1.369(5) 54_655
N1 Co1 1.963(5) .
C2 C1 1.469(7) .
C2 C3 1.369(6) .
O1 Zr2 2.172(5) 83
O1 C8 1.265(8) .
C1 C1 1.306(11) 54_655
C3 C2 1.369(6) 48
C7 C6 1.348(10) .
C7 C6 1.348(10) 48
C7 C8 1.495(11) .
C6 C5 1.396(9) .
O3 Zr1 2.181(5) 11
O3 Zr2 1.999(4) 83
O3 Zr2 1.999(4) 84
O4 Zr1 2.0867(15) 12
O4 Zr1 2.0867(15) 11
O4 Zr2 2.321(4) 73
O4 Zr2 2.321(4) 84
O4 Zr2 2.321(4) 83
O2 Zr2 2.589(11) 83
Co1 N1 1.964(5) 80_554
Co1 N1 1.964(5) 51
Co1 N1 1.964(5) 82
Co1 C9 2.14(5) 80_554
Co1 C9 2.14(5) .
C9 O5 1.197(19) .
C8 O1 1.265(8) 48
loop_
_smtbx_masks_void_nr
_smtbx_masks_void_average_x
_smtbx_masks_void_average_y
_smtbx_masks_void_average_z
_smtbx_masks_void_volume
_smtbx_masks_void_count_electrons
1 -0.808 -0.468 -0.456 45138.4 1688.4
