#------------------------------------------------------------------------------
#$Date: 2017-03-04 15:10:06 +0200 (Sat, 04 Mar 2017) $
#$Revision: 193420 $
#$URL: file:///home/coder/svn-repositories/cod/cif/4/34/50/4345084.cif $
#------------------------------------------------------------------------------
#
# This file is available in the Crystallography Open Database (COD),
# http://www.crystallography.net/
#
# All data on this site have been placed in the public domain by the
# contributors.
#
data_4345084
loop_
_publ_author_name
'Ning, Yingying'
'Ke, Xian-Sheng'
'Hu, Ji-Yun'
'Liu, Yi-Wei'
'Ma, Fang'
'Sun, Hao-Ling'
'Zhang, Jun-Long'
_publ_section_title
;
 Bioinspired Orientation of \b-Substituents on Porphyrin Antenna Ligands
 Switches Ytterbium(III) NIR Emission with Thermosensitivity.
;
_journal_issue                   4
_journal_name_full               'Inorganic chemistry'
_journal_page_first              1897
_journal_page_last               1905
_journal_paper_doi               10.1021/acs.inorgchem.6b02481
_journal_volume                  56
_journal_year                    2017
_chemical_formula_sum            'C13.75 H8.25 Co0.25 F5 N O3.5 P0.75 Yb0.25'
_chemical_formula_weight         419.68
_chemical_name_systematic
;
 ?
;
_space_group_crystal_system      orthorhombic
_space_group_IT_number           59
_space_group_name_Hall           '-P 2ab 2a'
_space_group_name_H-M_alt        'P m m n'
_symmetry_space_group_name_Hall  '-P 2ab 2a'
_symmetry_space_group_name_H-M   'P m m n :2'
_atom_sites_solution_hydrogens   geom
_audit_creation_method           SHELXL-2014
_cell_angle_alpha                90
_cell_angle_beta                 90
_cell_angle_gamma                90
_cell_formula_units_Z            8
_cell_length_a                   16.3919(11)
_cell_length_b                   23.5424(17)
_cell_length_c                   10.2182(7)
_cell_measurement_reflns_used    6265
_cell_measurement_temperature    296(2)
_cell_measurement_theta_max      24.0132
_cell_measurement_theta_min      2.1727
_cell_volume                     3943.3(5)
_computing_cell_refinement       'Bruker SAINT'
_computing_data_collection       'Bruker APEX2'
_computing_data_reduction        'Bruker SAINT'
_computing_structure_refinement  'SHELXL-2014 (Sheldrick, 2014)'
_computing_structure_solution    'Bruker SHELXTL'
_diffrn_ambient_temperature      296(2)
_diffrn_measured_fraction_theta_full 1.000
_diffrn_measured_fraction_theta_max 0.995
_diffrn_measurement_device_type  'Bruker APEX-II CCD'
_diffrn_measurement_method       'phi and omega scans'
_diffrn_radiation_type           MoK\a
_diffrn_radiation_wavelength     0.71073
_diffrn_reflns_av_R_equivalents  0.0504
_diffrn_reflns_av_unetI/netI     0.0371
_diffrn_reflns_Laue_measured_fraction_full 1.000
_diffrn_reflns_Laue_measured_fraction_max 0.995
_diffrn_reflns_limit_h_max       18
_diffrn_reflns_limit_h_min       -21
_diffrn_reflns_limit_k_max       19
_diffrn_reflns_limit_k_min       -30
_diffrn_reflns_limit_l_max       12
_diffrn_reflns_limit_l_min       -13
_diffrn_reflns_number            26055
_diffrn_reflns_point_group_measured_fraction_full 1.000
_diffrn_reflns_point_group_measured_fraction_max 0.995
_diffrn_reflns_theta_full        25.242
_diffrn_reflns_theta_max         27.486
_diffrn_reflns_theta_min         1.514
_diffrn_source                   'sealed tube'
_exptl_absorpt_coefficient_mu    1.550
_exptl_absorpt_correction_T_max  0.711
_exptl_absorpt_correction_T_min  0.537
_exptl_absorpt_correction_type   empirical
_exptl_crystal_colour            purple
_exptl_crystal_density_diffrn    1.414
_exptl_crystal_description       block
_exptl_crystal_F_000             1650
_exptl_crystal_size_max          0.80
_exptl_crystal_size_mid          0.34
_exptl_crystal_size_min          0.22
_refine_diff_density_max         0.852
_refine_diff_density_min         -0.614
_refine_diff_density_rms         0.138
_refine_ls_extinction_method     none
_refine_ls_goodness_of_fit_ref   1.092
_refine_ls_hydrogen_treatment    constr
_refine_ls_matrix_type           full
_refine_ls_number_parameters     291
_refine_ls_number_reflns         4771
_refine_ls_number_restraints     3
_refine_ls_restrained_S_all      1.092
_refine_ls_R_factor_all          0.0464
_refine_ls_R_factor_gt           0.0383
_refine_ls_shift/su_max          0.001
_refine_ls_shift/su_mean         0.000
_refine_ls_structure_factor_coef Fsqd
_refine_ls_weighting_details
'w=1/[\s^2^(Fo^2^)+(0.0770P)^2^] where P=(Fo^2^+2Fc^2^)/3'
_refine_ls_weighting_scheme      calc
_refine_ls_wR_factor_gt          0.1123
_refine_ls_wR_factor_ref         0.1177
_reflns_Friedel_coverage         0.000
_reflns_number_gt                4183
_reflns_number_total             4771
_reflns_threshold_expression     'I > 2\s(I)'
_cod_data_source_file            ic6b02481_si_002.cif
_cod_data_source_block           1
_cod_depositor_comments
'Adding full bibliography for 4345083--4345084.cif.'
_cod_original_formula_sum        'C13.75 H8.25 Co0.25 F5 N O3.50 P0.75 Yb0.25'
_cod_database_code               4345084
_shelx_space_group_comment
;
The symmetry employed for this shelxl refinement is uniquely defined
by the following loop, which should always be used as a source of
symmetry information in preference to the above space-group names.
They are only intended as comments.
;
_shelxl_version_number           2014-3
_shelx_res_file
;
TITL 1
CELL  0.71073   16.3919  23.5424   10.2182     90.000    90.000    90.000
ZERR        8    0.0011    0.0017    0.0007    0.000     0.000     0.000
LATT 1
SYMM     0.50000 - X ,    0.50000 - Y ,              Z
SYMM     0.50000 + X ,            - Y ,            - Z
SYMM             - X ,    0.50000 + Y ,            - Z
SFAC C  H  Co F  N  O  P  Yb
UNIT 110  66  2  40  8  28  6  2
L.S. 200
ACTA
BOND $H
FMAP 2
PLAN 10
exyz c13a c13b
eadp c13a c13b
exyz o2 c4
eadp o2 c4
dang 2.30 0.01 c14 c15
eadp c14 c16 c15
DFIX 1.38 0.01 C14 C16
DFIX 1.41 0.01 C16 C15
CONF
WGHT    0.077000
FVAR       0.07624   0.63185
YB1   8    0.750000    0.250000    0.657488    10.25000    0.04113    0.02781 =
         0.01840    0.00000    0.00000    0.00000
CO1   3    0.750000    0.250000    0.250801    10.25000    0.08323    0.07324 =
         0.01688    0.00000    0.00000    0.00000
PART   1
P1    7    0.642824    0.250000    0.364672    10.25000    0.05899    0.08178 =
         0.02959    0.00000   -0.01175    0.00000
PART   2
P2    7    0.693378    0.184458    0.371058    10.50000    0.09788    0.07014 =
         0.02938   -0.01173   -0.00478   -0.03186
PART   0
N1    5    0.750000    0.163249    0.775893    10.50000    0.04131    0.02759 =
         0.02815    0.00147    0.00000    0.00000
N2    5    0.625866    0.250000    0.776867    10.50000    0.04010    0.03214 =
         0.03106    0.00000    0.00095    0.00000
F1    4    0.556322    0.064766    0.608876    11.00000    0.14543    0.08915 =
         0.05659   -0.02176    0.02270   -0.05082
F2    4    0.442713   -0.015010    0.649341    11.00000    0.17651    0.11367 =
         0.12100   -0.03682    0.00083   -0.08870
F3    4    0.362869   -0.019591    0.882098    11.00000    0.12969    0.11247 =
         0.15326    0.01564    0.01175   -0.08603
F4    4    0.399342    0.055000    1.072469    11.00000    0.12524    0.13142 =
         0.10327    0.01647    0.05114   -0.04940
F5    4    0.512802    0.135466    1.031417    11.00000    0.10967    0.09155 =
         0.05861   -0.01588    0.02707   -0.03628
O1    6    0.426928    0.201937    0.797266    10.50000    0.04225    0.06825 =
         0.17562    0.01261    0.00215   -0.01282
O2    6    0.495825    0.219357    0.797009    10.50000    0.04611    0.06016 =
         0.07244   -0.00153    0.00078   -0.00968
PART   1
O3    6    0.647921    0.250000    0.511377    10.25000    0.04561    0.09070 =
         0.03032    0.00000   -0.00313    0.00000
PART   2
O4    6    0.694848    0.189907    0.516200    10.50000    0.08063    0.05038 =
         0.02542   -0.00011   -0.00391   -0.02435
PART   0
C1    1    0.683002    0.129137    0.794491    11.00000    0.04995    0.03142 =
         0.03205    0.00287    0.00012   -0.00479
C2    1    0.602158    0.147565    0.794776    11.00000    0.04874    0.03728 =
         0.03391   -0.00011    0.00229   -0.00697
C3    1    0.577667    0.203829    0.787231    11.00000    0.03808    0.04114 =
         0.03757    0.00186   -0.00011   -0.00397
C4    1    0.495825    0.219357    0.797009    10.50000    0.04611    0.06016 =
         0.07244   -0.00153    0.00078   -0.00968
C5    1    0.709084    0.071710    0.823184    11.00000    0.06121    0.03295 =
         0.05939    0.01061    0.00292   -0.00607
AFIX  43
H5A   2    0.675406    0.040641    0.838705    11.00000   -1.20000
AFIX   0
C6    1    0.536935    0.103637    0.817238    11.00000    0.04874    0.03944 =
         0.04821    0.00505   -0.00071   -0.00833
C7    1    0.517476    0.064123    0.723712    11.00000    0.07615    0.05165 =
         0.05717   -0.00335   -0.00089   -0.02080
C8    1    0.459948    0.022847    0.742454    11.00000    0.09645    0.06639 =
         0.07612   -0.00601   -0.00506   -0.03723
C9    1    0.419195    0.019877    0.857738    11.00000    0.08104    0.06509 =
         0.10076    0.01101   -0.00616   -0.03749
C10   1    0.436974    0.057839    0.954818    11.00000    0.07342    0.07606 =
         0.07549    0.01776    0.02012   -0.01350
C11   1    0.496034    0.099672    0.933950    11.00000    0.06360    0.05540 =
         0.05698    0.00076    0.00763   -0.01548
PART   1
O5A   6    0.586566    0.201141    0.327801    10.63000    0.13116    0.14067 =
         0.06133   -0.01791    0.00112   -0.07535
PART   2
O5B   6    0.611333    0.161865    0.326532    10.37000    0.13961    0.22818 =
         0.04801   -0.04226   -0.01791   -0.09486
PART   0
C12   1    0.536067    0.166070    0.389748    11.00000    0.10106    0.11147 =
         0.15492    0.01576   -0.02149   -0.02215
AFIX  33
H12A  2    0.511636    0.140599    0.327725    11.00000   -1.50000
H12B  2    0.565928    0.144615    0.453688    11.00000   -1.50000
H12C  2    0.494174    0.187673    0.432560    11.00000   -1.50000
AFIX   0
PART   2
O6A   6    0.750000    0.122167    0.354096    10.25000    0.13747    0.10395 =
         0.06533   -0.00590    0.00000    0.00000
C13A  1    0.750000    0.080621    0.416866    10.25000    0.11011    0.07324 =
         0.15289   -0.01211    0.00000    0.00000
AFIX  33
H13A  2    0.711395    0.054182    0.381080    10.50000   -1.50000
H13B  2    0.803491    0.064026    0.415668    10.50000   -1.50000
H13C  2    0.735114    0.089556    0.505368    10.50000   -1.50000
AFIX   0
PART   1
O6B   6    0.708686    0.128387    0.323688    10.25000    0.17063    0.03184 =
         0.03677   -0.01500   -0.01080    0.01046
C13B  1    0.750000    0.080621    0.416866    10.25000    0.11011    0.07324 =
         0.15289   -0.01211    0.00000    0.00000
C14   1    0.698026    0.218648    0.087224    10.50000    0.13456    0.17096 =
         0.02034   -0.03463    0.01242   -0.03118
PART   2
C15   1    0.830704    0.250000    0.091658    10.25000    0.13456    0.17096 =
         0.02034   -0.03463    0.01242   -0.03118
PART   0
C16   1    0.778999    0.202096    0.080070    10.50000    0.13456    0.17096 =
         0.02034   -0.03463    0.01242   -0.03118

O7    6    0.750000   -0.106220    0.395815    10.25000    0.19463    0.28892 =
         0.73930    0.20599    0.00000    0.00000
C17   1    0.704475   -0.109380    0.482373    10.25000    0.16346    0.48071 =
         0.13993   -0.04873    0.03337   -0.17755
C18   1    0.695043   -0.082149    0.574676    10.25000    0.19807    0.25926 =
         0.13696    0.08678    0.02221   -0.01721
HKLF 4 1  0.0000  0.0000  1.0000 -1.0000  0.0000  0.0000  0.0000 -1.0000  0.0000

REM  1
REM R1 =  0.0383 for    4183 Fo > 4sig(Fo)  and  0.0464 for all    4771 data
REM    291 parameters refined using      3 restraints

END

WGHT      0.0768      0.0000

REM Highest difference peak  0.852,  deepest hole -0.614,  1-sigma level  0.138
Q1    1   0.7500 -0.1376  0.2463  10.50000  0.05    0.85
Q2    1   0.2500  0.2500  1.1205  10.25000  0.05    0.73
Q3    1   0.7500 -0.1586  0.4377  10.50000  0.05    0.71
Q4    1   0.7500 -0.1384  0.1234  10.50000  0.05    0.64
Q5    1   0.2911  0.2500  1.1485  10.50000  0.05    0.64
Q6    1   0.7500 -0.1690  0.3147  10.50000  0.05    0.63
Q7    1   0.2500  0.2220  1.0508  10.50000  0.05    0.62
Q8    1   0.7500 -0.0732  0.6571  10.50000  0.05    0.61
Q9    1   0.7500 -0.1687  0.1796  10.50000  0.05    0.58
Q10   1   0.7500 -0.1100  0.6053  10.50000  0.05    0.57
;
_shelx_res_checksum              83466
_shelx_hkl_file
;
   0  -1   0    0.32    0.08
   0   1   0    0.07    0.09
   0   1   0    0.15    0.07
   0  -1   0    0.18    0.07
   0   2   0  331.59    9.56
   0   2   0  345.31    9.41
   0  -2   0  356.33    9.53
   0   3   0  105.06    3.16
   0  -3   0  103.44    3.05
   0   3   0  104.39    3.00
   0   4   0   83.84    2.68
   0   4   0   81.35    2.48
   0  -4   0   82.65    2.53
   0   5   0   28.43    1.30
   0  -5   0   33.87    1.20
   0  -6   0   27.15    1.11
   0   6   0   27.08    1.32
   0   7   0  260.36    8.06
   0  -7   0  272.58    7.78
   0  -8   0    1.67    0.38
   0   8   0    1.93    0.50
   0  -9   0    8.77    0.73
   0   9   0    8.97    1.03
   0  10   0   17.21    1.40
   0  11   0    3.03    0.77
   0  12   0    2.78    0.89
   0  13   0    6.50    1.23
   0   1  -1    3.22    0.18
   0  -1  -1    3.23    0.13
   0  -1  -1    3.13    0.18
   0   2  -1    5.45    0.23
   0   2   1    5.15    0.32
   0  -2   1    5.12    0.23
   0   2  -1    6.05    0.35
   0  -2  -1    5.15    0.30
   0   3  -1   57.06    1.78
   0   3  -1   55.51    1.87
   0  -3  -1   56.98    1.81
   0   3   1   57.77    1.86
   0  -3   1   57.10    1.71
   0   4  -1   50.18    1.68
   0  -4  -1   52.24    1.72
   0   4   1   52.07    1.81
   0   4  -1   48.90    1.81
   0  -4   1   52.48    1.62
   0  -5  -1   14.24    0.73
   0   5   1   16.10    0.85
   0  -5   1   15.49    0.67
   0   5  -1   15.06    0.86
   0   5  -1   12.97    0.68
   0  -6   1   20.72    0.89
   0   6   1   19.50    1.09
   0  -6  -1   20.84    0.98
   0   6  -1   21.96    0.95
   0   6  -1   21.56    1.15
   0  -7   1   73.59    2.40
   0   7   1   73.42    2.76
   0  -7  -1   74.11    2.52
   0   7  -1   68.52    2.72
   0  -8   1   35.01    1.41
   0   8   1   34.41    1.73
   0  -8  -1   34.31    1.49
   0   8  -1   32.33    1.71
   0   9  -1    1.30    0.57
   0  -9  -1    1.25    0.39
   0   9   1    1.26    0.48
   0  10  -1   13.50    1.41
   0 -10  -1   12.93    1.19
   0  10   1    9.70    1.17
   0  11  -1    2.10    0.74
   0  11   1    2.23    0.76
   0  12  -1    1.06    0.68
   0  12   1    1.25    0.71
   0  13  -1   -0.14    0.60
   0  13   1    0.13    0.58
   0   0  -2   24.85    0.83
   0   0   2   25.60    0.78
   0   0  -2   25.36    0.77
   0   1  -2  298.21    8.31
   0   1   2  308.34    8.23
   0  -1  -2  298.53    8.39
   0   1  -2  298.02    8.32
   0  -1  -2  307.39    8.23
   0   1   2  298.43    8.28
   0   2  -2   12.25    0.57
   0   2  -2   13.35    0.41
   0  -2  -2   14.10    0.46
   0  -2  -2   14.28    0.59
   0   2  -2   13.65    0.59
   0  -3   2    1.78    0.13
   0   3   2    2.10    0.26
   0   3  -2    1.84    0.25
   0  -3  -2    1.98    0.26
   0   3  -2    1.79    0.27
   0  -4  -2   33.33    1.26
   0  -4   2   33.64    1.06
   0   4   2   29.78    1.25
   0   4  -2   34.18    1.32
   0  -5  -2   41.71    1.57
   0   5  -2   42.73    1.68
   0  -5   2   42.27    1.39
   0   5   2   42.54    1.66
   0   6   2   25.23    1.25
   0   6  -2   25.56    1.13
   0  -6  -2   27.10    1.19
   0  -6   2   26.86    1.00
   0   6  -2   27.51    1.31
   0  -7  -2   41.97    1.71
   0   7  -2   41.83    1.90
   0   7  -2   41.08    1.65
   0   7   2   42.34    1.86
   0  -7   2   43.19    1.51
   0   8  -2    8.94    0.69
   0  -8   2    8.90    0.59
   0   8  -2   11.22    1.10
   0   8   2    9.23    0.95
   0  -8  -2    8.77    0.73
   0  -9  -2   27.17    1.37
   0   9   2   28.52    1.62
   0   9  -2   23.34    1.52
   0  10  -2   24.74    1.68
   0  10   2   25.86    1.66
   0 -10  -2   23.43    1.33
   0  11  -2    1.92    0.71
   0  11   2    1.73    0.66
   0  12  -2   14.10    1.62
   0  12   2   17.36    1.77
   0  13   2    4.39    1.09
   0  13  -2    2.83    0.92
   0   0  -3   -0.18    0.08
   0   0   3    0.00    0.07
   0   1  -3   56.05    1.71
   0   1   3   57.41    1.67
   0  -1  -3   55.71    1.78
   0  -1  -3   59.45    1.71
   0   1  -3   56.89    1.79
   0  -2  -3   66.03    2.14
   0   2   3   68.15    2.05
   0   2  -3   67.02    2.11
   0  -2  -3   69.81    1.98
   0   2  -3   69.23    2.15
   0   3  -3    6.39    0.44
   0  -3  -3    6.10    0.44
   0   3  -3    6.54    0.46
   0  -3  -3    7.29    0.31
   0  -4  -3   85.58    2.74
   0   4  -3   83.35    2.70
   0   4  -3   82.48    2.75
   0   4   3   82.73    2.70
   0  -4   3   86.94    2.41
   0  -4  -3   84.82    2.44
   0   5  -3  161.67    5.00
   0   5  -3  160.46    4.88
   0  -5   3  160.88    4.58
   0  -5  -3  165.23    4.95
   0   5   3  163.69    4.96
   0   6   3    0.68    0.30
   0   6  -3    0.46    0.28
   0  -6   3    0.70    0.15
   0  -6  -3    0.59    0.26
   0  -7  -3   74.86    2.64
   0   7   3   71.86    2.71
   0  -7   3   71.41    2.26
   0   7  -3   73.55    2.58
   0   7  -3   72.80    2.78
   0   8  -3   20.72    1.30
   0   8  -3   21.19    1.12
   0   8   3   18.30    1.21
   0  -8  -3   20.92    1.17
   0   9  -3   10.82    1.13
   0   9  -3   10.44    0.82
   0  -9  -3   10.42    0.98
   0   9   3   10.28    1.10
   0  10   3   10.57    1.21
   0 -10  -3   12.23    1.12
   0  10  -3   12.00    1.31
   0 -11  -3    9.88    1.06
   0  11  -3   12.70    1.43
   0  11   3   10.43    1.30
   0  12  -3    5.00    1.05
   0  12   3    2.59    0.90
   0  13  -3   -0.45    0.52
   0  13   3   -0.28    0.53
   0   0  -4  580.98   15.85
   0   0   4  575.26   15.83
   0   1  -4   47.30    1.44
   0   1  -4   46.93    1.46
   0   1   4   47.74    1.42
   0  -1  -4   46.96    1.56
   0   1  -4   46.46    1.58
   0  -1  -4   48.67    1.50
   0   2  -4   41.08    1.37
   0  -2  -4   41.16    1.28
   0   2  -4   40.71    1.17
   0   2  -4   38.60    1.42
   0   2   4   39.47    1.29
   0   3   4  165.68    4.83
   0  -3  -4  168.85    4.97
   0   3  -4  165.51    4.93
   0  -3  -4  168.81    4.68
   0   3  -4  163.86    4.90
   0   4  -4    4.70    0.51
   0  -4  -4    4.40    0.27
   0   4  -4    3.92    0.45
   0  -4  -4    3.91    0.48
   0  -5  -4    4.98    0.32
   0   5   4    5.99    0.61
   0   5  -4    5.74    0.63
   0   5  -4    4.83    0.55
   0  -5  -4    5.41    0.61
   0   6   4   11.03    0.77
   0   6  -4   11.45    0.75
   0   6  -4   11.20    0.82
   0  -6  -4    9.81    0.73
   0  -6  -4   10.36    0.49
   0   7  -4   10.76    1.01
   0  -7  -4   11.26    0.54
   0   7   4   10.24    0.81
   0  -7  -4   10.43    0.81
   0  -8  -4    0.11    0.32
   0   8   4    0.43    0.39
   0   8  -4    0.41    0.41
   0   9  -4    5.48    0.69
   0   9  -4    4.13    0.75
   0  -9  -4    4.78    0.69
   0   9   4    5.00    0.81
   0  10   4   28.27    1.74
   0 -10  -4   28.01    1.56
   0  10  -4   27.44    1.77
   0  11  -4    1.41    0.70
   0  11   4    0.70    0.56
   0 -11  -4    0.89    0.46
   0  12   4   17.11    1.74
   0  12  -4   14.93    1.64
   0   0  -5    0.01    0.13
   0   0   5    0.01    0.08
   0   0  -5    0.00    0.08
   0   1  -5    5.02    0.29
   0   1   5    4.61    0.27
   0   1  -5    5.12    0.30
   0   1  -5    5.00    0.39
   0  -1  -5    5.38    0.38
   0  -1  -5    4.84    0.34
   0   2  -5   34.16    1.02
   0   2  -5   33.18    1.16
   0  -2  -5   32.92    1.12
   0   2  -5   30.72    1.25
   0   2   5   31.01    1.08
   0  -2  -5   32.25    1.25
   0   3  -5   17.27    0.82
   0  -3  -5   18.47    0.70
   0  -3  -5   17.64    0.88
   0   3  -5   16.54    0.85
   0   3   5   17.15    0.74
   0  -4  -5    1.91    0.35
   0   4   5    2.58    0.34
   0   4  -5    2.66    0.38
   0   4  -5    2.53    0.39
   0  -4  -5    2.97    0.26
   0   5  -5  157.37    4.83
   0  -5  -5  151.23    4.84
   0   5  -5  157.06    4.83
   0  -5  -5  153.96    4.41
   0   6  -5    2.44    0.47
   0  -6  -5    3.30    0.29
   0  -6  -5    2.15    0.42
   0   6   5    2.29    0.44
   0   6  -5    2.37    0.44
   0   7  -5    3.52    0.60
   0  -7  -5    5.71    0.40
   0   7  -5    4.57    0.62
   0  -7  -5    5.11    0.68
   0   7   5    5.41    0.69
   0   8   5   26.51    1.47
   0  -8  -5   27.35    1.46
   0   8  -5   26.81    1.40
   0   8  -5   24.86    1.47
   0   9  -5    0.03    0.40
   0   9   5   -0.27    0.37
   0  -9  -5    0.17    0.37
   0 -10  -5    0.69    0.43
   0  10   5    0.87    0.53
   0  10  -5    0.96    0.57
   0  11  -5    2.90    0.74
   0  11   5    5.24    0.97
   0 -11  -5    3.73    0.74
   0  12   5    2.96    0.91
   0  12  -5    2.31    0.84
   0   0  -6  160.79    4.70
   0   0   6  158.43    4.57
   0   1  -6   30.63    1.22
   0   1  -6   29.49    1.06
   0  -1  -6   31.10    1.19
   0   1   6   30.06    1.01
   0  -1   6   30.06    1.06
   0  -1  -6   31.09    1.15
   0   2  -6  123.91    3.48
   0  -2  -6  118.13    3.74
   0   2  -6  117.92    3.75
   0   2   6  124.74    3.51
   0  -2  -6  120.35    3.58
   0   2  -6  118.78    3.59
   0   3   6   58.67    1.90
   0   3  -6   60.87    1.69
   0  -3  -6   60.02    1.88
   0   3  -6   57.42    1.98
   0  -3  -6   55.62    2.08
   0   3  -6   57.40    2.11
   0  -4  -6   31.65    1.10
   0   4   6   31.45    1.22
   0  -4  -6   31.17    1.37
   0   4  -6   29.68    1.28
   0   4  -6   28.10    1.33
   0   5  -6    2.04    0.43
   0  -5  -6    1.90    0.44
   0   5   6    2.35    0.40
   0  -5  -6    2.39    0.27
   0   5  -6    1.99    0.43
   0   6  -6    8.04    0.78
   0  -6  -6    8.78    0.48
   0  -6  -6    8.12    0.83
   0   6  -6    9.14    0.87
   0   7  -6   22.01    1.29
   0  -7  -6   23.94    1.32
   0   7  -6   24.21    1.30
   0   7   6   20.69    1.21
   0   8  -6   -0.25    0.30
   0  -8  -6    0.09    0.30
   0   8  -6   -0.21    0.29
   0   8   6    0.49    0.38
   0  -9  -6   29.12    1.62
   0   9  -6   27.87    1.66
   0   9  -6   28.20    1.57
   0   9   6   28.37    1.64
   0  10   6   18.08    1.38
   0  10  -6   17.40    1.39
   0 -10  -6   18.70    1.35
   0  11  -6    0.70    0.63
   0 -11  -6    0.98    0.56
   0  11   6   -0.36    0.44
   0  12  -6   10.55    1.44
   0 -12  -6   11.99    1.33
   0  12   6   11.08    1.42
   0   0   7    0.07    0.12
   0   0  -7    0.03    0.11
   0   0  -7   -0.04    0.13
   0   1  -7   31.47    1.14
   0  -1   7   32.13    1.11
   0   1   7   32.04    1.08
   0  -1  -7   31.21    1.22
   0   1  -7   30.33    1.29
   0  -1  -7   29.80    1.24
   0   2   7   28.95    1.00
   0  -2  -7   28.50    1.12
   0   2  -7   27.83    1.26
   0   2  -7   28.57    0.99
   0   2  -7   27.31    1.06
   0  -2  -7   26.26    1.20
   0  -3  -7   21.96    1.12
   0   3  -7   22.37    1.14
   0   3   7   22.82    0.92
   0   3  -7   23.56    0.77
   0   3  -7   23.05    1.00
   0  -3  -7   23.14    0.94
   0   4  -7   70.44    2.53
   0  -4  -7   70.60    2.52
   0  -4  -7   70.13    2.20
   0   4  -7   65.11    2.36
   0   4   7   69.49    2.29
   0   5   7   19.63    0.99
   0   5  -7   20.24    1.14
   0  -5  -7   20.32    1.16
   0   5  -7   20.40    1.09
   0  -5  -7   19.96    0.83
   0   6   7   38.50    1.62
   0  -6  -7   38.71    1.76
   0  -6  -7   38.64    1.33
   0   6  -7   35.85    1.73
   0   6  -7   36.25    1.67
   0   7  -7   10.86    1.03
   0   7  -7   10.21    0.99
   0  -7  -7    9.50    0.96
   0   8  -7   34.15    1.79
   0   8  -7   36.36    1.80
   0  -8  -7   36.30    1.83
   0   8   7   34.08    1.81
   0   9  -7    3.77    0.73
   0   9   7    4.38    0.78
   0  -9  -7    2.73    0.63
   0   9  -7    3.69    0.79
   0  10  -7    3.96    0.86
   0  10  -7    2.96    0.68
   0  10   7    3.62    0.78
   0 -10  -7    3.57    0.73
   0  11  -7    4.09    0.92
   0 -11  -7    4.12    0.84
   0  11   7    3.34    0.84
   0  12  -7    1.95    0.79
   0  12   7    4.64    1.03
   0 -12  -7    4.66    0.90
   0   0  -8   56.93    2.05
   0   0   8   57.33    1.86
   0   1   8    2.93    0.31
   0  -1  -8    2.09    0.37
   0  -1   8    2.87    0.32
   0   1  -8    2.55    0.32
   0  -1  -8    1.89    0.32
   0   1  -8    2.28    0.38
   0   2  -8   13.51    0.68
   0   2  -8   13.36    0.63
   0  -2   8   12.76    0.66
   0  -2  -8   15.52    0.77
   0   2   8   13.78    0.61
   0   2  -8   14.56    0.88
   0  -2  -8   12.34    0.80
   0   3   8   52.25    1.72
   0   3  -8   48.55    1.99
   0  -3  -8   48.88    1.97
   0   3  -8   53.18    1.81
   0  -3  -8   49.55    1.77
   0   3  -8   52.05    1.59
   0  -4  -8    1.85    0.30
   0   4   8    2.24    0.35
   0   4  -8    1.78    0.40
   0  -4  -8    1.77    0.42
   0   4  -8    1.39    0.34
   0   5   8    6.30    0.61
   0   5  -8    5.59    0.71
   0   5  -8    7.79    0.75
   0  -5  -8    6.41    0.46
   0  -5  -8    6.10    0.72
   0  -6  -8    4.73    0.47
   0   6  -8    4.44    0.61
   0   6   8    3.92    0.54
   0   6  -8    3.08    0.57
   0  -6  -8    3.95    0.61
   0  -7  -8    6.89    0.90
   0   7   8    7.88    0.83
   0   7  -8    7.94    0.92
   0   7  -8    7.93    0.89
   0  -8  -8    0.27    0.39
   0   8  -8    0.43    0.41
   0   8  -8   -0.05    0.38
   0  -9  -8   18.14    1.35
   0   9  -8   15.27    1.23
   0   9  -8   16.62    1.32
   0  10  -8   20.30    1.55
   0  10  -8   18.51    1.41
   0 -10  -8   20.89    1.52
   0  10   8   20.45    1.45
   0  11  -8    0.92    0.64
   0  11  -8   -0.09    0.44
   0 -11  -8    0.53    0.55
   0  11   8    0.16    0.53
   0  12   8   10.29    1.33
   0  12  -8    6.40    1.21
   0 -12  -8    8.37    1.19
   0   0   9    0.14    0.14
   0   0  -9    0.18    0.24
   0   0  -9   -0.15    0.15
   0  -1  -9    6.24    0.59
   0   1   9    7.39    0.43
   0  -1   9    6.04    0.44
   0   1  -9    6.49    0.65
   0   1  -9    6.35    0.48
   0  -1  -9    5.99    0.59
   0   2  -9   64.17    2.05
   0  -2  -9   62.74    2.19
   0  -2   9   61.72    2.09
   0  -2  -9   63.45    2.32
   0   2   9   61.52    1.98
   0   2  -9   62.67    2.35
   0   3   9    0.83    0.21
   0   3  -9    0.74    0.37
   0  -3  -9    0.38    0.31
   0   3  -9    1.12    0.21
   0  -3  -9    0.70    0.25
   0   3  -9    0.75    0.26
   0   4  -9   23.13    1.12
   0   4   9   24.01    1.03
   0  -4  -9   23.43    1.03
   0  -4  -9   25.03    1.30
   0   4  -9   22.19    1.26
   0   5  -9   52.30    2.32
   0  -5  -9   59.51    1.97
   0   5  -9   56.89    2.17
   0  -5  -9   57.17    2.34
   0   5   9   57.49    2.07
   0   6  -9    0.07    0.30
   0  -6  -9    0.23    0.35
   0   6  -9    0.19    0.32
   0   6   9   -0.19    0.22
   0   7  -9   11.14    1.14
   0   7  -9   11.59    0.95
   0   7   9   11.05    0.86
   0  -7  -9   11.01    1.11
   0   8  -9   10.05    1.06
   0   8  -9    9.97    1.14
   0  -8  -9    9.38    1.10
   0   8   9   13.05    1.02
   0   9  -9    1.64    0.57
   0   9  -9    1.63    0.59
   0  -9  -9    1.07    0.59
   0  10  -9    0.76    0.58
   0  10  -9    2.06    0.69
   0 -10  -9    1.75    0.67
   0  11  -9    7.15    1.15
   0  11  -9    7.77    1.11
   0 -11  -9    8.03    1.22
   0   0 -10   13.08    0.84
   0   0  10   18.96    0.80
   0   0 -10   16.06    0.95
   0  -1  10   45.14    1.61
   0  -1 -10   46.00    1.82
   0   1  10   44.98    1.55
   0  -1 -10   45.68    1.81
   0   1 -10   46.92    1.90
   0   1 -10   45.29    1.69
   0  -2  10   12.59    0.68
   0  -2 -10   11.41    0.76
   0   2  10   11.76    0.58
   0  -2 -10   11.10    0.84
   0   2 -10   11.26    0.65
   0   2 -10   11.66    0.86
   0   3 -10   43.84    1.64
   0   3 -10   42.08    1.90
   0  -3  10   46.22    1.67
   0  -3 -10   42.20    1.67
   0   3 -10   43.87    1.49
   0   3  10   41.81    1.51
   0  -3 -10   43.78    1.88
   0  -4 -10   12.67    0.96
   0   4 -10   11.42    0.94
   0   4  10   13.38    0.73
   0  -4 -10   12.59    0.78
   0   4 -10   13.16    0.83
   0   5  10    1.88    0.39
   0  -5 -10    0.52    0.41
   0   5 -10    1.59    0.50
   0   5 -10    1.05    0.38
   0  -5 -10    1.86    0.35
   0   6  10    8.11    0.76
   0   6 -10    5.99    0.72
   0   6 -10    5.39    0.82
   0  -6 -10    7.08    0.90
   0  -7 -10    2.95    0.68
   0   7 -10    4.40    0.67
   0   7  10    2.83    0.54
   0   7 -10    3.12    0.71
   0  -8 -10    3.64    0.80
   0   8 -10    4.45    0.78
   0   8 -10    4.90    0.85
   0   8  10    3.76    0.66
   0   9 -10   10.13    1.21
   0   9 -10    7.33    0.96
   0  -9 -10   10.02    1.24
   0  10 -10   14.99    1.48
   0  10 -10   13.94    1.45
   0 -10 -10   14.02    1.48
   0 -11 -10   -0.40    0.58
   0  11 -10   -0.42    0.54
   0  11 -10   -0.08    0.50
   0   0 -11   -0.24    0.19
   0   0  11    0.11    0.16
   0   0 -11    0.11    0.27
   0  -1 -11    2.34    0.45
   0  -1  11    3.08    0.38
   0   1 -11    3.37    0.46
   0  -1 -11    2.76    0.48
   0   1  11    2.71    0.33
   0   1 -11    2.05    0.48
   0  -2  11   48.36    1.72
   0  -2 -11   47.94    1.88
   0   2 -11   44.29    2.00
   0   2 -11   47.32    1.70
   0   2  11   43.30    1.56
   0  -2 -11   48.52    1.97
   0   3  11    7.92    0.51
   0   3 -11    6.56    0.50
   0  -3 -11    6.03    0.75
   0  -3  11    8.05    0.62
   0   3 -11    5.92    0.79
   0  -3 -11    7.64    0.72
   0  -4 -11   15.74    1.14
   0   4 -11   18.20    1.19
   0  -4 -11   18.27    0.96
   0   4  11   16.89    0.85
   0   4 -11   15.11    0.93
   0   5 -11   24.38    1.49
   0  -5 -11   21.98    1.38
   0   5  11   24.79    1.15
   0  -5 -11   24.66    1.14
   0   5 -11   22.23    1.22
   0   6 -11    4.20    0.75
   0   6 -11    5.00    0.70
   0  -6 -11    4.69    0.80
   0   7 -11    2.27    0.56
   0  -7 -11    3.66    0.76
   0   7 -11    3.39    0.76
   0  -8 -11   11.56    1.30
   0   8 -11   13.83    1.12
   0   8 -11   15.50    1.46
   0   9 -11    1.31    0.57
   0   9 -11    1.04    0.55
   0  -9 -11    2.32    0.69
   0  10 -11    2.04    0.73
   0  10 -11    2.91    0.83
   0 -10 -11    3.14    0.80
   0  11 -11    2.36    0.80
   0  11 -11    1.85    0.71
   0 -11 -11    2.53    0.83
   0   0 -12   50.03    2.02
   0   0 -12   36.43    1.80
   0   0  12   51.16    1.69
   0  -1  12    0.75    0.26
   0   1 -12    0.64    0.30
   0  -1 -12    0.40    0.35
   0   1 -12    0.14    0.34
   0   1  12    0.22    0.20
   0  -1 -12    0.24    0.32
   0  -2 -12   11.85    0.96
   0   2 -12   10.72    1.02
   0  -2  12   12.91    0.75
   0  -2 -12   11.92    0.86
   0   2 -12   11.52    0.73
   0   2  12   10.90    0.64
   0  -3 -12   14.23    1.07
   0   3 -12   13.20    1.07
   0  -3 -12   12.82    0.87
   0  -3  12   12.92    0.80
   0  -4 -12    0.31    0.41
   0  -4 -12    0.52    0.32
   0   4 -12    0.37    0.43
   0   5 -12    0.39    0.46
   0  -5 -12   -0.23    0.44
   0   5 -12    0.38    0.35
   0   6 -12    5.26    0.72
   0  -6 -12    5.16    0.85
   0   6 -12    5.81    0.96
   0   7 -12    8.21    0.92
   0   7 -12    9.27    1.15
   0  -7 -12   12.41    1.31
   0   8 -12    0.15    0.46
   0   8 -12    0.05    0.47
   0  -8 -12   -0.34    0.43
   0   9 -12   12.47    1.43
   0   9 -12   12.18    1.27
   0  -9 -12   11.52    1.42
   0  10 -12    4.73    0.87
   0 -10 -12    5.30    1.08
   0  10 -12    5.84    1.09
   0   0 -13    0.11    0.37
   0   0  13    0.32    0.26
   0   1 -13   16.59    0.99
   0  -1 -13   16.00    1.08
   0  -1 -13   17.79    1.13
   0   1 -13   15.66    1.12
   0  -1  13   16.20    0.88
   0   2 -13   11.44    1.10
   0  -2 -13   11.24    1.07
   0   2 -13   10.63    0.75
   0  -2 -13    9.68    0.93
   0  -2  13    9.13    0.68
   0  -3 -13   -0.16    0.36
   0  -3 -13    0.78    0.37
   0   3 -13    1.06    0.48
   0  -3  13    0.87    0.33
   0   4 -13    8.08    1.02
   0  -4  13   11.98    0.83
   0  -4 -13    8.95    0.85
   0  -4 -13    9.83    1.04
   0   5 -13   13.62    1.33
   0  -5 -13   14.18    1.38
   0   6 -13    3.10    0.62
   0   6 -13    2.29    0.75
   0  -6 -13    1.67    0.68
   0  -7 -13    3.93    0.91
   0   7 -13    3.99    0.72
   0   7 -13    4.21    0.90
   0   8 -13    9.05    1.07
   0  -8 -13   15.01    1.56
   0   8 -13   13.44    1.51
   0   9 -13    0.03    0.52
   0   9 -13   -0.04    0.57
   0  -9 -13    0.61    0.66
   0  10 -13    0.14    0.53
   0 -10 -13    2.85    0.89
   0  10 -13   -0.34    0.60
   0   0 -14    9.35    1.00
   0   1 -14    9.60    1.04
   0  -1 -14    8.77    0.96
   0   1 -14    9.07    0.85
   0  -1 -14    8.97    0.93
   0   2 -14    8.07    0.77
   0  -2 -14    7.86    0.88
   0  -2  14    6.62    0.69
   0  -2 -14    8.12    0.97
   0   2 -14    6.83    0.94
   0   3 -14   13.20    1.28
   0  -3  14   10.46    0.79
   0  -3 -14   11.79    0.95
   0  -3 -14   10.93    1.16
   0  -4  14    1.36    0.42
   0   4 -14    1.30    0.55
   0  -4 -14    1.79    0.66
   0   5 -14    0.49    0.56
   0  -5 -14    0.32    0.57
   0   6 -14    2.55    0.74
   0  -6 -14    3.48    0.88
   0  -6  14    3.28    0.67
   0   7 -14    5.94    0.85
   0   7 -14    5.84    1.10
   0  -7 -14    5.27    0.95
   0   8 -14    0.57    0.60
   0  -8 -14    0.73    0.67
   0   8 -14   -0.11    0.45
   0   9 -14    4.85    1.03
   0  -9 -14    5.33    1.16
   0   9 -14    5.73    0.94
   0   0 -15    0.26    0.45
   0   1 -15    8.88    1.03
   0   1 -15   10.80    0.87
   0  -1 -15    9.92    1.05
   0  -1 -15    9.47    0.99
   0  -2 -15    4.37    0.80
   0  -2 -15    3.58    0.67
   0   2 -15    3.75    0.73
   0  -3 -15    1.13    0.48
   0   3 -15    1.72    0.59
   0  -3 -15    0.84    0.55
   0  -4 -15    2.32    0.68
   0  -4 -15    2.68    0.57
   0   4 -15    2.64    0.77
   0  -5 -15    9.02    1.18
   0  -5  15   11.04    1.01
   0   5 -15    8.40    1.20
   0  -6 -15    2.70    0.86
   0   6 -15    2.22    0.80
   0  -7  15    4.87    0.83
   0  -7 -15    6.55    1.17
   0   7 -15    5.21    1.04
   0   8 -15    8.81    1.36
   0   8 -15    6.39    0.94
   0  -8  15    6.61    1.02
   0  -8 -15    8.58    1.32
   0   9 -15    1.09    0.70
   0   9 -15    0.79    0.62
   0  -9 -15    0.59    0.68
   0   0 -16   24.04    1.58
   0  -1 -16    1.80    0.57
   0   1 -16    1.70    0.52
   0  -1 -16    2.49    0.64
   0   1 -16    2.43    0.70
   0  -2 -16    2.53    0.62
   0  -2 -16    3.23    0.72
   0   2 -16    2.42    0.67
   0  -3 -16    9.49    1.00
   0  -3 -16    9.58    1.11
   0   3 -16    7.53    1.06
   0  -4 -16    0.17    0.58
   0   4 -16    0.16    0.48
   0   5 -16   -0.38    0.54
   0  -5 -16   -0.05    0.59
   0   6 -16    2.27    0.83
   0  -6 -16    3.03    0.90
   0  -7 -16    9.32    1.37
   0   7 -16    7.00    1.27
   0   8 -16    1.40    0.82
   0  -8 -16    0.41    0.71
   0   0 -17   -0.08    0.50
   0   1 -17    1.37    0.60
   0  -1 -17    2.04    0.66
   0  -1 -17    2.92    0.71
   0   2 -17    8.46    1.16
   0  -2 -17    7.42    1.00
   0  -2 -17    8.66    1.06
   0   3 -17   -0.01    0.57
   0  -3 -17   -0.13    0.51
   0  -3 -17    0.26    0.44
   0  -4 -17    2.89    0.82
   0   4 -17    1.16    0.70
   0   5 -17    3.43    0.86
   0  -5 -17    3.81    0.97
   0  -6 -17    0.07    0.60
   0   6 -17    0.25    0.67
   0  -7 -17    1.75    0.91
   0   7 -17    0.37    0.65
   0   0 -18   13.44    1.41
   0  -1 -18    2.50    0.72
   0  -1 -18    2.22    0.70
   0   1 -18    3.06    0.81
   0  -2 -18    2.91    0.76
   0   2 -18    4.07    0.91
   0  -2 -18    3.37    0.79
   0  -3 -18    2.54    0.81
   0  -3 -18    2.25    0.66
   0   3 -18    1.29    0.71
   0  -4 -18    1.19    0.68
   0   4 -18    1.81    0.80
   0   5 -18   -0.34    0.61
   0  -5 -18   -0.86    0.58
   0   6 -18    3.45    1.03
   0  -6 -18    1.23    0.86
   0   7 -18    2.69    0.91
   0   0 -19   -0.23    0.58
   0  -1 -19    2.31    0.74
   0  -1 -19    2.37    0.75
   0   1 -19    3.28    0.90
   0  -2 -19    0.39    0.65
   0   2 -19    0.40    0.63
   0  -2 -19   -0.13    0.51
   0  -3 -19   -0.60    0.56
   0   3 -19    0.59    0.62
   0  -4 -19   -0.38    0.64
   0   4 -19    0.44    0.73
   0  -5 -19    2.23    0.92
   0   5 -19    1.84    0.79
   0   0 -20    5.31    1.06
   0  -1 -20    2.21    0.76
   0   1 -20    1.47    0.76
   0   2 -20    0.84    0.69
   0  -2 -20   -0.75    0.56
   0  -2 -20    0.76    0.63
   0   3 -20    4.34    1.09
   0  -3 -20    2.15    0.89
   0   4 -20    1.10    0.87
   0  -4 -20   -0.25    0.68
   0   0 -21   -0.32    0.59
   0   1 -21    1.15    0.80
   0  -1 -21    1.45    0.74
   0   2 -21    4.22    1.07
   1   1   0  167.87    4.62
   1   1   0  162.43    4.63
   1   1   0  169.38    4.54
  -1  -1   0  165.34    4.62
  -1  -1   0  166.06    4.54
  -1  -2   0   57.03    1.67
  -1   2   0   54.45    1.72
   1   2   0   54.26    1.73
   1   2   0   56.47    1.62
   1  -3   0  217.14    6.03
   1   3   0  213.08    5.92
  -1   3   0  216.78    6.12
   1   3   0  208.51    6.13
  -1  -3   0  210.81    6.03
  -1   4   0  190.87    5.64
   1   4   0  190.66    5.39
  -1  -4   0  195.46    5.51
   1  -4   0  191.00    5.50
   1   4   0  189.32    5.65
  -1  -5   0   17.34    0.78
   1   5   0   18.17    0.74
  -1   5   0   18.62    0.95
   1   5   0   16.58    0.91
   1  -5   0   17.39    0.78
   1   6   0   22.49    1.17
   1  -6   0   22.24    0.97
  -1   6   0   22.05    1.15
  -1  -6   0   22.40    0.98
   1   7   0   63.99    2.48
  -1   7   0   63.14    2.47
  -1  -7   0   61.71    2.17
   1  -7   0   59.69    2.16
  -1   8   0   42.24    2.00
  -1  -8   0   47.19    1.79
   1   8   0   47.05    2.08
   1  -8   0   43.74    1.74
  -1   9   0    4.00    0.76
   1   9   0    2.59    0.62
  -1  -9   0    2.45    0.47
   1  -9   0    3.10    0.49
   1  10   0   13.20    1.38
  -1  10   0   13.28    1.37
  -1  11   0    0.43    0.55
   1  11   0    1.05    0.62
   1  12   0    0.22    0.60
  -1  12   0    1.26    0.78
   1  13   0   -0.03    0.67
  -1  13   0   -0.69    0.59
  -1   0   1 1000.00   26.35
  -1   0  -1  891.26   26.58
   1   1  -1   86.04    2.54
  -1  -1  -1   91.22    2.56
   1  -1  -1   90.21    2.51
  -1   1  -1   89.78    2.53
  -1   1  -1   87.12    2.54
   1   2  -1  188.70    5.61
  -1  -2  -1  205.74    5.41
  -1  -2  -1  197.68    5.60
   1   2  -1  194.30    5.52
  -1  -2   1  203.58    5.51
  -1   2  -1  198.87    5.62
  -1   2  -1  198.47    5.55
   1   2   1  198.06    5.61
   1  -3   1   84.91    2.44
  -1  -3  -1   83.45    2.55
  -1   3   1   83.78    2.59
   1   3  -1   84.89    2.63
   1   3  -1   86.40    2.51
  -1   3  -1   83.84    2.62
   1  -3  -1   80.91    2.54
   1   3   1   83.79    2.61
  -1  -3   1   83.67    2.45
  -1  -4  -1   25.29    1.01
   1  -4   1   27.27    0.93
  -1   4   1   25.85    1.09
   1   4  -1   27.50    0.99
   1   4  -1   27.30    1.13
  -1  -4   1   25.41    0.93
   1  -4  -1   25.23    1.01
   1   4   1   26.57    1.11
  -1   4  -1   25.55    1.10
  -1   5   1    0.08    0.20
  -1  -5  -1   -0.15    0.14
   1  -5   1   -0.03    0.13
   1   5  -1   -0.11    0.11
   1   5  -1   -0.17    0.18
   1   5   1   -0.06    0.17
  -1   5  -1    0.17    0.16
  -1   5  -1    0.00    0.20
  -1  -5   1    0.13    0.14
   1  -5  -1   -0.03    0.16
  -1   6   1   32.58    1.45
   1   6  -1   32.95    1.48
   1  -6   1   32.72    1.21
   1   6  -1   32.86    1.24
  -1  -6  -1   32.79    1.31
  -1   6  -1   31.46    1.44
   1   6   1   29.79    1.42
   1  -6  -1   30.18    1.28
  -1  -6   1   32.05    1.21
   1   7  -1  128.15    3.98
  -1   7   1  133.46    4.34
  -1  -7  -1  130.13    4.10
   1   7  -1  132.95    4.38
   1  -7   1  129.90    3.97
   1   7   1  125.40    4.32
  -1  -7   1  131.13    3.98
  -1   7  -1  128.07    4.34
   1  -7  -1  130.48    4.10
  -1   8   1    6.71    0.86
   1  -8   1    5.88    0.58
   1   8  -1    7.37    0.88
  -1  -8  -1    7.02    0.69
   1  -8  -1    7.47    0.72
  -1   8  -1    7.87    0.93
   1   8   1    7.14    0.89
  -1  -8   1    6.47    0.61
  -1   9   1   20.45    1.40
   1   9  -1   24.05    1.50
  -1  -9  -1   21.56    1.19
  -1   9  -1   20.25    1.40
   1   9   1   21.19    1.39
   1  -9  -1   22.21    1.19
   1  10  -1   19.05    1.43
  -1 -10  -1   17.66    1.14
  -1  10   1   18.98    1.45
  -1  10  -1   17.17    1.36
   1  10   1   17.42    1.37
  -1  11   1    1.39    0.61
   1  11  -1    1.17    0.63
  -1  11  -1    1.78    0.63
   1  11   1    2.85    0.75
  -1  12   1    4.97    1.03
   1  12  -1    8.10    1.23
   1  12   1    7.77    1.24
  -1  12  -1    7.27    1.19
  -1  13   1    5.20    1.18
   1  13  -1    7.20    1.31
  -1  13  -1    4.59    1.09
   1  13   1    7.61    1.33
   1   0  -2   -0.17    0.03
  -1   0  -2   -0.15    0.06
  -1   0   2   -0.19    0.03
   1   0  -2   -0.17    0.06
   1   1  -2   19.24    0.68
   1   1  -2   18.16    0.64
   1  -1   2   19.10    0.55
  -1  -1  -2   18.63    0.58
  -1  -1  -2   17.29    0.66
  -1   1   2   19.02    0.59
   1   1   2   19.15    0.58
  -1   1  -2   18.39    0.55
  -1   1  -2   18.19    0.68
   1  -1  -2   19.29    0.63
  -1   1  -2   19.02    0.65
   1  -1  -2   18.51    0.58
   1  -2   2  167.24    4.58
   1   2  -2  164.89    4.78
   1   2  -2  166.09    4.62
  -1  -2  -2  160.98    4.79
   1   2  -2  167.73    4.75
  -1  -2  -2  176.79    4.56
  -1   2  -2  171.34    4.80
   1  -2  -2  167.31    4.63
   1   2   2  165.20    4.75
  -1   2  -2  161.38    4.76
  -1  -3  -2   17.51    0.74
  -1   3   2   16.14    0.71
   1   3  -2   15.59    0.75
   1  -3   2   17.10    0.55
   1  -3  -2   17.11    0.73
  -1  -3   2   16.58    0.57
   1   3   2   16.86    0.74
  -1   3  -2   16.54    0.75
  -1   3  -2   17.23    0.73
   1   4  -2   50.75    1.80
   1  -4   2   50.94    1.52
  -1  -4  -2   48.18    1.71
  -1   4   2   49.47    1.74
   1   4   2   50.25    1.77
   1  -4  -2   47.71    1.70
  -1   4  -2   48.26    1.77
  -1   4  -2   48.48    1.73
  -1  -4   2   50.16    1.52
   1  -5   2   73.14    2.24
  -1   5   2   77.26    2.55
  -1  -5  -2   71.97    2.46
   1   5  -2   76.49    2.60
   1   5  -2   76.39    2.42
   1  -5  -2   73.65    2.47
  -1  -5   2   73.04    2.25
  -1   5  -2   73.68    2.57
   1   5   2   71.21    2.53
   1   6  -2    0.17    0.18
   1   6  -2    0.14    0.23
  -1   6   2   -0.18    0.19
  -1  -6  -2    0.03    0.17
   1  -6   2    0.04    0.13
   1  -6  -2   -0.17    0.14
  -1   6  -2    0.34    0.29
   1   6   2    0.35    0.25
  -1  -6   2   -0.02    0.13
  -1   6  -2    0.09    0.17
  -1   7   2   64.57    2.48
   1  -7   2   65.82    2.10
  -1  -7  -2   63.34    2.33
   1   7  -2   66.79    2.56
   1   7  -2   65.60    2.25
  -1   7  -2   61.79    2.50
  -1   7  -2   59.33    2.25
  -1  -7   2   63.74    2.11
   1  -7  -2   65.83    2.35
   1   7   2   63.54    2.48
  -1  -8  -2   20.52    1.12
   1  -8   2   19.97    0.94
   1   8  -2   21.82    1.06
  -1   8   2   21.12    1.29
   1   8  -2   20.80    1.30
  -1  -8   2   19.64    0.93
   1  -8  -2   20.79    1.14
   1   8   2   20.68    1.27
  -1   8  -2   19.33    1.25
  -1  -9  -2    5.28    0.67
  -1   9   2    5.58    0.82
   1   9  -2    4.15    0.74
   1  -9  -2    4.99    0.66
   1   9   2    4.05    0.73
  -1   9  -2    4.77    0.78
  -1  10   2   17.95    1.40
  -1 -10  -2   15.40    1.13
   1  10  -2   16.53    1.54
   1  10   2   19.25    1.45
   1 -10  -2   15.85    1.11
  -1  10  -2   17.64    1.38
   1  11  -2    3.84    0.85
  -1  11   2    4.88    0.88
   1  11   2    6.05    0.99
  -1  11  -2    7.09    1.12
  -1  12   2    2.81    0.87
   1  12  -2    0.62    0.69
  -1  12  -2    1.04    0.69
   1  12   2    2.65    0.90
   1  13  -2   -0.59    0.56
  -1  13   2   -0.91    0.58
   1  13   2    1.74    0.84
  -1  13  -2    1.42    0.75
   1   0  -3   30.94    1.05
  -1   0   3   31.58    0.93
  -1   0  -3   31.08    1.04
   1   0   3   34.47    1.08
  -1   0   3   30.56    0.92
   1   1  -3    0.32    0.14
  -1   1   3    0.29    0.08
  -1  -1  -3    0.09    0.11
   1  -1   3    0.23    0.07
  -1  -1  -3    0.26    0.10
   1   1  -3    0.13    0.10
  -1   1  -3    0.32    0.08
   1   1   3    0.21    0.10
   1  -1  -3    1.21    0.16
  -1   1  -3    0.11    0.10
  -1   1  -3    0.30    0.13
   1  -1  -3    0.14    0.06
  -1   2   3    4.52    0.26
  -1  -2  -3    3.83    0.31
   1   2  -3    4.15    0.30
   1   2  -3    4.24    0.33
  -1  -2  -3    4.32    0.21
  -1   2  -3    4.53    0.33
   1  -2  -3    3.87    0.24
  -1   2  -3    3.61    0.28
  -1  -3  -3   45.08    1.61
  -1  -3  -3   49.85    1.37
   1   3  -3   44.90    1.61
   1   3  -3   45.68    1.60
   1   3   3   47.83    1.59
  -1   3  -3   47.84    1.63
   1  -3  -3   45.09    1.61
   1  -3  -3   47.33    1.44
  -1   3  -3   45.59    1.61
  -1   4   3    9.92    0.58
  -1  -4  -3    9.62    0.59
   1   4  -3    9.00    0.60
   1   4  -3    9.50    0.58
   1  -4   3   10.39    0.37
  -1  -4  -3   10.23    0.39
   1  -4  -3    9.88    0.61
   1   4   3    9.90    0.61
  -1   4  -3    9.54    0.63
  -1   4  -3   10.00    0.61
  -1   5   3   18.77    0.96
   1  -5   3   18.54    0.67
  -1  -5  -3   17.91    0.94
   1   5  -3   19.93    1.03
  -1  -5   3   19.30    0.69
   1  -5  -3   17.60    0.92
  -1   5  -3   18.09    0.92
   1   5   3   19.95    0.99
  -1   5  -3   19.08    1.00
   1   6  -3    5.31    0.55
   1  -6   3    6.34    0.36
  -1   6   3    5.58    0.61
  -1  -6  -3    7.39    0.58
   1   6  -3    5.19    0.65
   1  -6  -3    5.55    0.61
  -1  -6   3    6.72    0.37
  -1   6  -3    5.86    0.66
   1   6   3    7.59    0.76
  -1   6  -3    6.19    0.60
  -1  -7  -3   24.06    1.20
   1  -7   3   22.56    0.89
   1   7  -3   23.47    1.15
  -1   7   3   25.09    1.30
   1   7  -3   22.93    1.32
   1   7   3   22.91    1.28
  -1   7  -3   21.27    1.27
   1  -7  -3   23.27    1.19
  -1  -7   3   22.22    0.90
  -1  -8  -3    4.13    0.59
   1   8  -3    4.15    0.73
   1   8  -3    4.07    0.55
  -1   8   3    4.52    0.72
   1   8   3    4.51    0.69
  -1   8  -3    4.13    0.72
  -1   8  -3    4.16    0.58
   1  -8  -3    5.20    0.66
  -1   9   3   11.24    1.16
   1   9  -3   10.95    0.82
   1   9  -3    9.91    1.08
  -1  -9  -3    9.37    0.92
  -1   9  -3   11.49    1.19
   1  -9  -3    9.48    0.93
   1   9   3   10.36    1.13
   1  10  -3   29.58    1.89
  -1 -10  -3   33.54    1.68
  -1  10   3   33.28    1.89
   1  10   3   32.80    1.90
   1 -10  -3   31.37    1.64
  -1  10  -3   33.96    1.97
   1  11  -3    2.31    0.76
  -1  11   3    1.19    0.60
  -1 -11  -3    1.34    0.49
  -1  11  -3    2.17    0.74
   1 -11  -3    1.34    0.57
   1  11   3    2.04    0.68
   1  12  -3   17.24    1.81
  -1  12   3   15.37    1.64
   1  12   3   20.21    1.95
  -1  12  -3   16.24    1.71
   1  13  -3    5.49    1.19
  -1  13   3    4.87    1.10
  -1  13  -3    4.35    1.08
   1  13   3    6.98    1.22
  -1   0  -4   -0.24    0.11
   1   0   4    0.03    0.10
  -1   0   4   -0.04    0.06
  -1   0  -4   -0.16    0.06
   1   0  -4   -0.15    0.11
  -1   0   4   -0.20    0.06
   1   1  -4   68.92    2.19
  -1  -1  -4   70.21    2.10
  -1   1   4   71.52    1.99
  -1  -1  -4   67.36    2.17
   1   1  -4   68.11    2.07
   1   1   4   71.16    2.09
  -1   1  -4   67.30    2.09
   1  -1  -4   71.62    2.14
  -1   1  -4   68.41    2.19
   1  -1  -4   73.73    2.00
  -1   1  -4   70.33    2.05
   1   2  -4   50.19    1.73
  -1  -2  -4   49.43    1.72
   1   2  -4   50.77    1.66
  -1   2   4   50.69    1.57
  -1  -2  -4   51.31    1.55
  -1   2  -4   51.95    1.74
  -1   2  -4   53.69    1.67
   1  -2  -4   52.15    1.75
  -1   2  -4   51.91    1.45
   1   2   4   50.87    1.61
   1  -2  -4   49.46    1.59
   1   3  -4    9.53    0.58
   1   3  -4    9.33    0.55
  -1   3   4    9.11    0.49
  -1  -3  -4   10.48    0.41
  -1  -3  -4   10.71    0.62
  -1   3  -4    9.97    0.60
  -1   3  -4   10.10    0.57
   1  -3  -4   10.13    0.46
   1  -3  -4   10.06    0.60
   1   4  -4   42.97    1.62
   1   4  -4   40.73    1.59
  -1  -4  -4   43.85    1.31
  -1  -4  -4   43.34    1.62
   1   4   4   43.97    1.58
  -1   4  -4   42.40    1.62
   1  -4  -4   43.13    1.38
   1  -4  -4   43.54    1.64
  -1   4  -4   41.72    1.61
   1   5  -4  126.86    3.97
  -1  -5  -4  128.43    3.57
   1   5  -4  125.88    4.04
  -1   5   4  126.82    3.95
  -1  -5  -4  122.66    3.99
  -1   5  -4  129.78    4.05
   1  -5  -4  129.83    3.67
   1   5   4  122.68    3.97
   1  -5  -4  124.24    4.01
  -1   5  -4  124.84    3.97
   1   6  -4    1.51    0.35
   1   6  -4    1.35    0.38
  -1   6   4    2.53    0.45
  -1  -6  -4    1.90    0.21
  -1  -6  -4    1.58    0.35
   1  -6   4    1.74    0.17
  -1   6  -4    2.11    0.43
   1   6   4    1.48    0.37
   1  -6  -4    2.15    0.43
  -1   6  -4    1.45    0.35
   1  -6  -4    2.07    0.25
  -1  -7  -4   27.16    1.34
  -1   7   4   28.39    1.39
  -1  -7  -4   26.88    0.94
   1   7  -4   25.73    1.43
   1  -7  -4   24.25    1.00
  -1   7  -4   27.88    1.45
   1  -7  -4   26.97    1.33
  -1   7  -4   27.99    1.32
   1   7   4   25.09    1.34
   1   8  -4   28.40    1.60
   1   8  -4   32.18    1.52
  -1   8   4   29.08    1.54
  -1  -8  -4   31.72    1.53
   1   8   4   30.90    1.61
  -1   8  -4   30.83    1.64
   1  -8  -4   28.90    1.49
   1   9  -4    0.01    0.30
  -1  -9  -4    0.28    0.33
   1   9  -4    0.51    0.43
  -1   9   4    0.03    0.37
  -1   9  -4    0.81    0.51
   1  -9  -4    0.48    0.37
   1   9   4    0.15    0.37
   1  10  -4    1.04    0.56
  -1 -10  -4    1.10    0.49
  -1  10   4    1.54    0.63
  -1  10  -4    0.78    0.56
   1  10   4    2.45    0.70
   1 -10  -4    0.99    0.44
   1  11  -4   10.14    1.29
  -1  11   4    6.74    1.11
  -1 -11  -4    7.93    1.00
  -1  11  -4   11.43    1.32
   1 -11  -4    8.99    1.02
   1  11   4   10.78    1.31
   1  12  -4    3.91    1.04
  -1  12   4    4.42    1.00
   1  12   4    6.30    1.10
  -1  12  -4    3.91    1.01
   1   0  -5  179.01    5.03
  -1   0   5  173.69    4.84
  -1   0  -5  172.10    4.99
   1   0   5  167.60    4.93
   1   1  -5   37.91    1.35
   1   1  -5   37.20    1.18
  -1   1   5   38.08    1.12
  -1  -1  -5   35.71    1.31
  -1  -1  -5   35.49    1.24
  -1   1  -5   38.27    1.35
   1   1   5   34.30    1.19
  -1   1  -5   36.80    1.19
   1  -1  -5   37.85    1.29
  -1   2   5   45.11    1.42
   1   2  -5   45.67    1.53
  -1  -2  -5   46.53    1.63
  -1  -2  -5   47.18    1.48
   1   2  -5   45.54    1.65
   1  -2  -5   46.23    1.64
   1   2   5   45.85    1.48
   1  -2  -5   43.68    1.50
  -1   2  -5   43.83    1.62
  -1   2  -5   48.08    1.37
  -1   2  -5   45.20    1.53
   1   3  -5   97.35    3.11
  -1  -3  -5   96.44    3.11
  -1   3   5   95.96    2.92
   1   3  -5   98.30    3.04
  -1  -3  -5   99.87    2.83
   1  -3  -5   96.61    3.12
   1   3   5   96.24    2.97
   1  -3  -5   98.96    2.89
  -1   3  -5   94.72    3.03
  -1   3  -5   96.95    3.12
  -1  -4  -5   11.83    0.49
  -1   4   5   11.40    0.63
  -1  -4  -5   10.78    0.70
   1   4  -5   11.46    0.70
   1   4  -5   10.34    0.70
  -1   4  -5   11.51    0.71
   1  -4  -5   11.01    0.53
   1  -4  -5   11.34    0.72
  -1   4  -5   11.99    0.73
   1   5  -5   -0.25    0.20
  -1   5   5    0.00    0.17
   1   5  -5   -0.21    0.22
  -1  -5  -5   -0.02    0.27
  -1  -5  -5    0.25    0.12
  -1   5  -5    0.11    0.25
   1  -5  -5   -0.38    0.20
  -1   5  -5   -0.16    0.21
   1   5   5    0.17    0.23
   1  -5  -5    0.08    0.13
   1   6  -5    9.74    0.75
  -1  -6  -5   10.88    0.48
  -1  -6  -5   11.01    0.79
   1   6  -5   11.48    0.82
  -1   6   5   10.70    0.76
  -1   6  -5   10.94    0.81
   1  -6  -5    9.30    0.77
  -1   6  -5    9.65    0.76
   1   6   5   10.68    0.78
   1  -6  -5   11.70    0.55
   1   7  -5   14.82    0.94
  -1   7   5   12.90    0.92
  -1  -7  -5   12.61    0.92
   1   7  -5   12.17    0.95
  -1   7  -5   13.20    1.00
   1  -7  -5   12.73    0.92
   1   7   5   12.31    0.92
  -1   7  -5   12.18    0.90
   1  -7  -5   12.65    0.63
  -1   8   5   -0.29    0.30
   1   8  -5   -0.14    0.30
  -1  -8  -5   -0.17    0.30
   1  -8  -5    0.01    0.28
  -1   8  -5    0.02    0.28
   1   8   5   -0.04    0.29
  -1   8  -5    0.26    0.36
  -1   9   5   14.43    1.16
   1   9  -5   15.37    1.26
  -1  -9  -5   15.87    1.14
  -1   9  -5   15.40    1.41
   1   9   5   13.56    1.12
   1  -9  -5   14.51    1.10
   1  10  -5   19.82    1.25
  -1 -10  -5   21.69    1.38
   1  10  -5   19.88    1.47
  -1  10   5   17.91    1.34
  -1  10  -5   17.74    1.46
   1 -10  -5   19.48    1.33
   1  10   5   21.46    1.51
  -1 -11  -5    0.27    0.43
   1  11  -5    0.78    0.58
  -1  11   5   -0.51    0.45
   1 -11  -5   -0.11    0.36
  -1  11  -5   -0.13    0.44
   1  11   5   -0.23    0.47
   1  12  -5   13.38    1.59
  -1  12   5   11.89    1.47
  -1  12  -5   15.43    1.68
   1  12   5   10.82    1.39
   1   0  -6   -0.16    0.12
  -1   0   6    0.00    0.08
  -1   0  -6   -0.12    0.12
  -1   0  -6   -0.22    0.08
   1   0   6   -0.01    0.12
  -1  -1  -6   36.34    1.34
  -1  -1  -6   37.16    1.30
   1   1  -6   36.68    1.38
  -1   1   6   35.91    1.11
   1   1  -6   34.67    1.17
   1  -1   6   34.42    1.23
   1  -1  -6   36.01    1.31
  -1   1  -6   37.52    1.39
   1  -1  -6   35.88    1.35
   1   1   6   35.59    1.22
  -1   1  -6   35.30    1.21
  -1  -2  -6   49.69    1.79
  -1   2   6   49.58    1.54
  -1  -2  -6   50.81    1.64
   1   2  -6   48.71    1.64
   1   2  -6   49.75    1.82
   1   2   6   51.30    1.62
  -1   2  -6   49.82    1.53
  -1   2  -6   48.47    1.80
  -1   2  -6   50.94    1.67
   1  -2  -6   49.40    1.79
   1  -2  -6   48.57    1.67
  -1  -3  -6   17.94    0.95
   1   3  -6   20.43    0.89
  -1  -3  -6   18.54    0.75
   1   3  -6   18.54    0.95
  -1   3   6   18.72    0.77
  -1   3  -6   18.80    0.96
   1   3   6   17.86    0.80
   1  -3  -6   20.35    0.81
   1  -3  -6   18.36    0.94
  -1   3  -6   18.75    0.87
  -1   4   6   14.02    0.71
  -1  -4  -6   14.26    0.83
   1   4  -6   12.27    0.77
   1   4  -6   14.42    0.85
  -1  -4  -6   14.24    0.60
   1  -4  -6   13.69    0.83
  -1   4  -6   13.75    0.85
  -1   4  -6   12.96    0.76
   1   4   6   13.66    0.73
   1  -4  -6   13.87    0.64
  -1  -5  -6   67.04    2.02
  -1   5   6   65.96    2.30
   1   5  -6   65.24    2.44
  -1  -5  -6   66.84    2.46
   1   5  -6   66.55    2.41
  -1   5  -6   65.78    2.45
   1  -5  -6   67.92    2.11
   1  -5  -6   63.16    2.44
  -1   5  -6   67.41    2.41
  -1  -6  -6   30.81    1.46
   1   6  -6   30.71    1.46
  -1  -6  -6   29.24    1.03
   1   6  -6   29.29    1.45
  -1   6  -6   30.85    1.46
   1  -6  -6   32.10    1.51
   1   6   6   29.99    1.40
  -1   6  -6   27.27    1.43
   1  -6  -6   30.07    1.11
  -1  -7  -6   11.87    0.91
   1   7  -6   12.16    1.08
  -1   7   6   11.90    0.88
   1   7  -6   12.19    0.92
   1   7   6   11.95    0.91
  -1   7  -6   11.40    0.92
  -1   7  -6   12.56    0.94
   1  -7  -6   14.16    0.99
  -1   8   6   22.74    1.33
   1   8  -6   22.52    1.32
   1   8  -6   23.53    1.41
  -1  -8  -6   22.25    1.34
   1   8   6   22.39    1.33
  -1   8  -6   22.15    1.38
   1  -8  -6   22.59    1.34
  -1   8  -6   23.94    1.35
  -1   9   6    4.62    0.77
   1   9  -6    4.05    0.78
  -1  -9  -6    5.79    0.84
   1   9   6    4.61    0.81
  -1   9  -6    4.55    0.82
  -1   9  -6    4.64    0.77
   1  -9  -6    5.72    0.84
   1  10  -6    4.88    0.89
  -1 -10  -6    4.44    0.80
  -1  10   6    3.49    0.76
   1  10   6    4.46    0.85
  -1  10  -6    3.14    0.83
   1 -10  -6    4.49    0.80
   1  11  -6    3.20    0.81
  -1 -11  -6    4.53    0.85
  -1  11   6    2.54    0.75
  -1  11  -6    3.55    0.85
   1 -11  -6    3.01    0.73
   1  11   6    3.98    0.93
  -1 -12  -6    3.63    0.84
  -1  12   6    5.85    1.08
   1  12  -6    4.82    1.03
   1  12   6    3.08    0.83
   1 -12  -6    4.78    0.91
  -1  12  -6    2.67    0.84
  -1   0  -7   41.06    1.47
   1   0   7   37.59    1.33
   1   0  -7   33.99    1.36
  -1   0   7   38.44    1.25
   1   0  -7   38.08    1.46
  -1  -1  -7   12.88    0.68
  -1  -1  -7   12.67    0.71
   1  -1   7   14.28    0.64
  -1   1   7   12.99    0.51
   1   1  -7   12.95    0.75
  -1   1  -7   12.51    0.74
  -1  -1   7   13.05    0.57
   1   1   7   12.17    0.59
  -1   1  -7   13.03    0.61
   1  -1  -7   11.48    0.67
   1  -1  -7   13.12    0.72
   1   2  -7   91.56    2.79
  -1  -2  -7   88.78    2.81
   1   2  -7   88.72    3.01
  -1  -2  -7   91.93    3.00
  -1   2   7   90.95    2.67
   1  -2  -7   88.15    2.98
  -1   2  -7   93.87    2.71
  -1   2  -7   90.59    3.02
   1   2   7   90.78    2.76
   1  -2  -7   96.12    2.88
  -1   2  -7   90.44    2.82
  -1   3   7   41.73    1.39
   1   3  -7   41.12    1.51
  -1  -3  -7   42.35    1.43
   1   3  -7   39.11    1.64
  -1  -3  -7   38.50    1.62
  -1   3  -7   39.88    1.65
   1   3   7   40.64    1.43
  -1   3  -7   40.90    1.50
   1  -3  -7   41.52    1.46
  -1   3  -7   41.09    1.24
   1  -3  -7   38.06    1.62
  -1  -4  -7   -0.06    0.19
  -1   4   7   -0.05    0.14
  -1  -4  -7    0.39    0.16
   1   4  -7    0.40    0.25
   1   4  -7    0.10    0.22
  -1   4  -7    0.26    0.24
   1  -4  -7   -0.08    0.23
  -1   4  -7    0.00    0.20
   1   4   7    0.23    0.17
   1  -4  -7    0.43    0.18
  -1  -5  -7    2.37    0.28
  -1   5   7    1.83    0.35
  -1  -5  -7    2.04    0.43
   1   5  -7    1.67    0.40
   1   5  -7    1.85    0.44
   1  -5  -7    1.63    0.42
   1  -5  -7    2.00    0.30
  -1   5  -7    2.83    0.48
  -1   5  -7    2.71    0.49
   1   5   7    1.96    0.38
  -1  -6  -7   11.09    0.90
   1   6  -7   11.11    0.88
  -1   6   7   11.44    0.79
   1   6  -7   11.28    0.84
  -1  -6  -7   10.57    0.53
  -1   6  -7   10.98    0.90
   1  -6  -7   11.78    0.92
   1  -6  -7   11.33    0.61
  -1   6  -7   11.82    0.86
   1   7  -7   12.03    0.94
   1   7  -7   13.12    1.01
  -1  -7  -7   12.49    0.96
   1   7   7   12.61    0.99
   1  -7  -7   12.09    0.98
  -1   7  -7   12.52    0.95
  -1   7  -7   11.40    0.92
   1   8  -7   -0.61    0.30
   1   8  -7    0.14    0.38
  -1  -8  -7    0.47    0.39
  -1   8  -7    0.28    0.41
   1   8   7    0.41    0.41
  -1   8  -7   -0.08    0.35
   1  -8  -7   -0.10    0.35
   1   9  -7   30.77    1.67
  -1  -9  -7   30.88    1.73
   1   9  -7   28.90    1.75
  -1   9   7   30.80    1.69
   1   9   7   27.60    1.65
   1  -9  -7   30.70    1.72
  -1   9  -7   31.58    1.70
  -1   9  -7   27.27    1.66
  -1  10   7   17.11    1.33
   1  10  -7   17.99    1.64
  -1 -10  -7   15.00    1.24
   1 -10  -7   16.27    1.32
  -1  10  -7   17.01    1.29
   1  10   7   14.76    1.42
  -1  10  -7   20.10    1.49
  -1 -11  -7    0.83    0.51
  -1  11   7   -0.31    0.44
   1  11  -7    0.26    0.60
  -1  11  -7    0.39    0.46
   1  11   7    1.64    0.67
  -1  11  -7    0.41    0.52
   1 -11  -7    0.10    0.49
  -1  12   7    8.22    1.25
   1  12  -7    7.46    1.29
  -1 -12  -7    5.87    1.01
   1 -12  -7    9.51    1.22
  -1  12  -7    9.85    1.36
   1  12   7   11.59    1.41
   1   0  -8   -0.06    0.16
   1   0   8   -0.09    0.12
   1   0  -8   -0.26    0.17
  -1   0  -8    0.14    0.19
  -1   0  -8   -0.05    0.13
  -1   0   8    0.08    0.12
   1  -1   8   23.62    0.95
   1   1  -8   23.38    1.11
   1   1  -8   23.76    0.97
  -1   1   8   23.61    0.84
  -1  -1  -8   24.07    1.05
  -1  -1  -8   22.24    1.05
  -1   1  -8   21.48    1.09
  -1   1  -8   21.65    0.93
  -1  -1   8   23.08    0.88
   1  -1  -8   22.95    1.06
   1  -1  -8   24.02    1.08
   1   1   8   21.93    0.92
   1   2  -8   44.68    1.50
   1  -2   8   40.66    1.52
   1   2  -8   44.28    1.47
  -1  -2  -8   41.03    1.68
  -1   2   8   43.66    1.38
  -1  -2  -8   44.28    1.58
   1   2  -8   41.62    1.73
   1   2   8   42.84    1.47
  -1   2  -8   40.96    1.72
  -1   2  -8   45.27    1.45
   1  -2  -8   42.07    1.59
   1  -2  -8   42.64    1.70
   1   3  -8    2.73    0.48
   1   3  -8    3.25    0.39
  -1  -3  -8    2.59    0.34
  -1  -3  -8    4.08    0.57
  -1   3   8    3.50    0.34
   1   3  -8    3.06    0.28
  -1   3  -8    3.23    0.25
  -1   3  -8    3.02    0.40
   1  -3  -8    3.00    0.50
  -1   3  -8    3.25    0.51
   1  -3  -8    3.62    0.41
   1   3   8    3.70    0.38
   1   4  -8   23.93    0.77
   1   4  -8   23.40    1.24
  -1  -4  -8   22.72    1.22
  -1  -4  -8   23.18    0.97
   1   4  -8   23.08    1.11
  -1   4   8   23.45    1.00
  -1   4  -8   23.67    1.12
   1   4   8   24.51    1.05
   1  -4  -8   24.71    1.03
  -1   4  -8   23.45    1.25
   1  -4  -8   24.28    1.24
   1   5  -8   54.76    2.08
  -1  -5  -8   54.13    2.19
  -1   5   8   53.13    1.93
   1   5  -8   52.38    2.20
  -1  -5  -8   52.46    1.77
   1  -5  -8   55.54    1.85
  -1   5  -8   53.60    2.22
   1   5   8   52.99    1.99
  -1   5  -8   53.13    2.05
   1  -5  -8   53.89    2.21
   1   6  -8    3.06    0.57
  -1   6   8    3.50    0.51
   1   6  -8    5.22    0.70
  -1  -6  -8    3.72    0.61
   1  -6  -8    3.46    0.64
   1   6   8    4.61    0.60
  -1   6  -8    4.13    0.60
  -1   6  -8    5.06    0.72
   1  -6  -8    3.95    0.42
  -1   7   8    6.90    0.75
  -1  -7  -8    6.80    0.88
   1   7  -8    6.26    0.82
   1   7  -8    5.67    0.80
   1  -7  -8    5.64    0.77
  -1   7  -8    6.73    0.83
  -1   7  -8    5.92    0.80
  -1  -8  -8   29.71    1.68
   1   8  -8   30.55    1.66
   1   8  -8   27.03    1.59
  -1   8  -8   27.40    1.60
   1  -8  -8   27.79    1.64
  -1   8  -8   26.12    1.56
   1   9  -8    0.53    0.46
   1   9  -8    0.28    0.43
  -1  -9  -8    1.70    0.57
  -1   9  -8   -0.19    0.47
  -1   9  -8    1.50    0.54
   1   9   8    0.87    0.49
   1  -9  -8    1.28    0.55
  -1  10   8    1.12    0.60
  -1 -10  -8    1.84    0.62
   1  10  -8    1.06    0.66
   1  10  -8    1.52    0.57
   1  10   8    1.63    0.63
  -1  10  -8    0.95    0.63
  -1  10  -8    1.83    0.64
   1 -10  -8    1.82    0.65
   1  11  -8    5.15    0.99
  -1  11   8    6.67    1.03
   1  11  -8    5.07    0.89
  -1 -11  -8    6.21    1.04
   1 -11  -8    5.28    0.98
  -1  11  -8    6.48    0.99
   1  11   8    6.14    1.04
  -1  11  -8    8.10    1.13
   1  12  -8    1.61    0.77
  -1 -12  -8    1.52    0.71
  -1  12  -8    2.76    0.82
   1  12   8    1.25    0.69
   1 -12  -8    3.34    0.84
  -1   0   9   70.65    2.16
   1   0   9   70.00    2.25
   1   0  -9   64.22    2.32
   1   0  -9   69.55    2.43
  -1   0  -9   66.95    2.41
   1  -1   9    7.88    0.52
  -1  -1  -9    6.94    0.58
  -1  -1  -9    7.75    0.62
   1   1  -9    8.65    0.56
  -1   1   9    8.67    0.43
   1   1  -9    8.49    0.69
  -1   1  -9    7.59    0.52
  -1   1  -9    8.28    0.75
   1  -1  -9    8.17    0.62
   1   1   9    8.22    0.51
  -1  -1   9    7.38    0.46
   1  -1  -9    7.99    0.62
  -1   2   9    9.66    0.47
   1  -2   9    9.67    0.60
  -1  -2  -9    9.55    0.71
   1   2  -9   10.10    0.57
  -1  -2  -9    9.86    0.65
   1   2  -9   11.53    0.82
  -1   2  -9    9.50    0.74
  -1   2  -9    9.73    0.55
   1   2   9    9.94    0.55
   1  -2  -9   10.36    0.68
   1  -2  -9    8.89    0.70
  -1  -2   9   10.60    0.59
  -1  -3  -9   43.74    1.57
   1   3  -9   41.70    1.81
   1   3  -9   42.12    1.55
  -1   3   9   41.55    1.43
   1   3  -9   41.99    1.41
  -1  -3  -9   41.00    1.75
   1  -3  -9   42.69    1.60
  -1   3  -9   41.69    1.37
  -1   3  -9   40.78    1.57
   1   3   9   40.59    1.49
   1  -3  -9   42.07    1.77
  -1   3  -9   37.97    1.75
  -1  -4  -9    6.64    0.74
   1   4  -9    4.69    0.53
  -1  -4  -9    5.20    0.49
  -1   4   9    4.34    0.45
   1   4  -9    5.31    0.69
  -1   4  -9    4.99    0.56
   1   4   9    4.59    0.49
  -1   4  -9    4.53    0.65
   1  -4  -9    4.77    0.50
   1  -4  -9    4.30    0.62
  -1  -5  -9    0.86    0.42
   1   5  -9    1.78    0.51
   1   5  -9    1.36    0.41
  -1   5   9    1.75    0.36
  -1  -5  -9    1.74    0.32
   1  -5  -9    1.93    0.51
   1  -5  -9    1.41    0.29
  -1   5  -9    1.62    0.50
  -1   5  -9    1.98    0.46
   1   5   9    1.61    0.37
  -1   6   9    6.67    0.68
   1   6  -9    6.51    0.74
  -1  -6  -9    7.94    0.92
   1   6  -9    7.76    0.92
  -1   6  -9    6.45    0.73
   1  -6  -9    6.63    0.86
  -1   6  -9    8.73    0.96
   1  -6  -9    7.37    0.53
   1   6   9    7.29    0.75
  -1   7   9    6.09    0.72
   1   7  -9    6.00    0.83
  -1  -7  -9    4.24    0.77
   1   7  -9    7.51    0.94
   1   7   9    5.55    0.72
   1  -7  -9    5.38    0.84
  -1   7  -9    5.06    0.72
  -1   7  -9    8.86    0.99
  -1  -8  -9    0.67    0.55
   1   8  -9    1.15    0.48
   1   8  -9    2.19    0.62
  -1   8   9    1.49    0.48
   1  -8  -9    1.24    0.54
  -1   8  -9    1.97    0.59
  -1   8  -9    1.62    0.55
   1   9  -9    7.34    0.96
   1   9  -9    9.38    1.11
  -1   9   9    7.79    0.94
  -1  -9  -9    7.25    1.01
   1  -9  -9    6.31    1.00
  -1   9  -9    5.90    0.93
  -1   9  -9    6.63    0.92
   1  10  -9   18.68    1.45
  -1 -10  -9   19.63    1.55
   1  10  -9   15.05    1.48
  -1  10  -9   22.31    1.55
   1  10   9   15.98    1.55
   1 -10  -9   17.69    1.66
  -1  10  -9   18.93    1.49
   1  11  -9   -0.45    0.46
   1  11  -9   -0.54    0.47
  -1 -11  -9    0.14    0.52
   1 -11  -9    0.90    0.63
   1  11   9   -0.03    0.52
  -1  11  -9    0.26    0.57
  -1  11  -9   -0.20    0.47
  -1   0  10   -0.04    0.13
   1   0 -10   -0.13    0.18
   1   0 -10   -0.13    0.19
  -1   0 -10    0.11    0.25
   1   0  10   -0.23    0.13
  -1   1  10    6.19    0.38
   1  -1  10    5.92    0.54
  -1  -1 -10    6.11    0.64
   1   1 -10    5.74    0.67
   1   1 -10    5.55    0.54
  -1  -1 -10    5.32    0.62
  -1   1 -10    6.02    0.56
  -1   1 -10    6.38    0.72
   1   1  10    5.44    0.49
  -1  -1  10    5.44    0.42
   1  -1 -10    4.72    0.58
   1  -1 -10    6.35    0.66
  -1   2  10   41.16    1.38
   1   2 -10   44.89    1.55
   1  -2  10   42.01    1.57
   1   2 -10   39.27    1.78
  -1  -2 -10   40.45    1.64
  -1  -2 -10   44.73    1.80
  -1  -2  10   42.11    1.52
   1  -2 -10   43.75    1.70
  -1   2 -10   41.29    1.51
   1  -2 -10   44.66    1.81
   1   2  10   39.83    1.47
  -1   2 -10   40.19    1.82
  -1  -3 -10   14.31    0.96
   1   3 -10   15.74    0.72
  -1  -3 -10   14.65    0.84
   1   3 -10   14.24    0.78
  -1   3  10   14.66    0.68
   1   3 -10   14.88    1.03
  -1   3 -10   13.57    0.66
   1   3  10   13.60    0.72
  -1   3 -10   13.91    1.00
   1  -3 -10   16.13    1.04
   1  -3 -10   15.94    0.89
   1   4 -10   32.74    1.68
  -1  -4 -10   35.89    1.41
  -1   4  10   36.81    1.35
   1   4 -10   36.19    1.48
  -1  -4 -10   38.21    1.73
   1  -4 -10   35.35    1.45
   1   4  10   35.17    1.40
  -1   4 -10   33.80    1.48
   1  -4 -10   33.41    1.67
  -1   4 -10   33.22    1.69
   1   5 -10   32.48    1.68
  -1  -5 -10   33.99    1.70
   1   5 -10   33.43    1.49
  -1   5  10   32.18    1.34
  -1  -5 -10   30.77    1.28
   1   5  10   30.40    1.38
   1  -5 -10   32.21    1.34
  -1   5 -10   33.45    1.72
   1  -5 -10   31.74    1.65
  -1   5 -10   32.78    1.50
   1   6 -10    1.15    0.41
   1   6 -10    1.62    0.52
  -1  -6 -10    0.80    0.41
  -1   6  10    1.28    0.36
  -1   6 -10    1.14    0.44
   1   6  10    1.30    0.39
   1  -6 -10    1.65    0.52
  -1   6 -10    0.91    0.38
   1   7 -10    7.47    0.90
   1   7 -10    6.57    0.89
  -1   7  10    7.08    0.78
  -1  -7 -10    7.61    0.95
   1  -7 -10    7.66    1.03
  -1   7 -10    9.00    0.94
  -1   7 -10    8.65    1.05
   1   7  10    7.55    0.83
   1   8 -10    7.54    0.95
   1   8 -10    8.78    1.09
  -1  -8 -10    9.51    1.17
   1   8  10    9.69    0.99
  -1   8 -10    8.18    1.04
   1  -8 -10   11.92    1.27
  -1   8 -10    9.26    1.03
  -1  -9 -10    0.87    0.56
   1   9 -10    1.60    0.63
   1   9 -10    0.84    0.54
  -1   9 -10    1.97    0.59
  -1   9 -10    1.84    0.66
   1  -9 -10    1.90    0.62
   1   9  10    2.90    0.66
   1  10 -10    1.41    0.65
   1  10 -10    1.43    0.69
  -1 -10 -10    2.70    0.75
  -1  10 -10    1.33    0.65
  -1  10 -10    1.63    0.63
   1 -10 -10    2.87    0.82
   1  11 -10    5.16    0.99
  -1 -11 -10    5.27    1.06
   1  11 -10    4.66    0.90
  -1  11 -10    4.15    0.92
   1 -11 -10    4.19    0.99
  -1  11 -10    5.47    1.07
   1   0  11   17.86    0.87
  -1   0 -11   18.41    1.07
   1   0 -11   18.98    1.10
   1   0 -11   14.73    0.94
  -1   0  11   18.85    0.81
  -1   1  11   12.19    0.58
  -1  -1 -11   10.88    0.82
   1   1 -11   11.81    0.92
  -1  -1 -11   12.30    0.84
   1   1 -11   11.75    0.75
   1  -1  11   12.69    0.73
  -1  -1  11   12.19    0.65
  -1   1 -11   11.41    0.74
   1  -1 -11   13.87    0.88
  -1   1 -11    9.91    0.82
   1  -1 -11   12.01    0.82
   1   1  11   11.39    0.66
   1  -2  11    9.43    0.68
  -1  -2 -11   12.00    0.83
   1   2 -11   11.43    0.89
  -1  -2 -11   11.95    0.88
   1   2 -11   11.20    0.70
  -1   2  11   10.65    0.53
  -1   2 -11   10.84    0.68
  -1   2 -11   11.54    0.90
   1  -2 -11   11.64    0.82
   1   2  11   11.00    0.62
   1  -2 -11   10.54    0.96
  -1  -2  11   10.99    0.65
  -1  -3 -11   23.38    1.30
   1  -3  11   23.85    1.13
  -1   3  11   22.78    0.94
  -1  -3 -11   23.72    1.16
   1   3 -11   26.28    1.04
   1   3 -11   20.82    1.33
  -1  -3  11   24.72    1.10
   1  -3 -11   23.31    1.32
  -1   3 -11   24.14    1.37
  -1   3 -11   24.02    0.98
   1   3  11   24.75    1.04
   1  -3 -11   23.90    1.19
   1  -4  11    3.51    0.54
   1   4 -11    4.28    0.55
  -1  -4 -11    3.81    0.50
  -1  -4 -11    3.09    0.60
  -1   4  11    3.71    0.45
   1   4 -11    2.71    0.57
   1  -4 -11    3.30    0.64
   1   4  11    4.07    0.47
   1  -4 -11    4.41    0.56
  -1   4 -11    4.04    0.68
  -1  -5 -11    1.99    0.54
   1   5 -11    1.79    0.45
   1   5 -11    1.35    0.50
  -1  -5 -11    1.69    0.36
   1   5  11    2.32    0.43
   1  -5 -11    1.51    0.49
  -1   5 -11    1.45    0.51
  -1   5 -11    2.14    0.46
   1  -5 -11    1.98    0.40
   1   6 -11    6.65    0.79
  -1  -6 -11    4.94    0.79
   1   6 -11    5.45    0.85
   1  -6 -11    6.54    0.89
  -1   6 -11    5.71    0.84
   1   6  11    6.36    0.70
  -1   6 -11    6.97    0.79
   1   7 -11    9.93    1.01
  -1  -7 -11    8.08    1.04
   1   7 -11   10.27    1.15
  -1   7 -11    9.10    0.99
   1  -7 -11    9.94    1.16
  -1   7 -11    6.22    0.92
   1   8 -11    0.33    0.48
   1   8 -11    0.60    0.41
  -1  -8 -11    0.13    0.49
  -1   8 -11    0.70    0.57
   1  -8 -11   -0.01    0.54
  -1   8 -11    0.13    0.41
   1   9 -11    7.66    1.12
   1   9 -11   11.80    1.25
  -1  -9 -11   12.72    1.44
  -1   9 -11   11.14    1.19
   1  -9 -11   11.91    1.37
  -1   9 -11   10.83    1.27
   1  10 -11    9.28    1.19
  -1 -10 -11    8.69    1.25
   1  10 -11    8.92    1.25
  -1  10 -11    7.38    1.15
  -1  10 -11    8.25    1.14
   1 -10 -11    9.39    1.27
  -1 -11 -11    0.08    0.60
   1  11 -11    0.48    0.61
   1  11 -11    0.04    0.58
   1 -11 -11   -0.16    0.56
  -1  11 -11   -0.31    0.52
  -1  11 -11   -0.89    0.48
   1   0 -12   -0.17    0.26
  -1   0 -12    0.30    0.33
  -1   0  12   -0.07    0.18
   1   0  12   -0.12    0.20
   1   0 -12    0.33    0.34
   1   1 -12   24.40    1.40
  -1  -1 -12   26.73    1.33
  -1  -1 -12   23.03    1.26
   1  -1  12   24.45    1.13
   1   1 -12   24.71    1.20
   1  -1 -12   23.42    1.30
  -1   1 -12   25.75    1.19
  -1   1 -12   26.46    1.43
   1  -1 -12   24.83    1.32
  -1  -1  12   25.16    1.07
   1   1  12   24.60    1.07
   1   2 -12   10.13    1.02
   1  -2  12   13.39    0.79
   1   2 -12   12.31    0.78
  -1  -2 -12   14.84    0.94
  -1  -2 -12   14.08    0.97
  -1  -2  12   12.51    0.73
   1  -2 -12   13.32    1.01
  -1   2 -12   12.09    0.77
   1   2  12   12.80    0.69
  -1   2 -12   13.16    1.00
   1  -2 -12   11.01    0.86
  -1  -3 -12    1.40    0.37
   1   3 -12    0.90    0.40
  -1  -3 -12    1.53    0.47
   1  -3  12    1.69    0.38
  -1   3 -12    2.17    0.56
  -1  -3  12    1.28    0.33
   1   3  12    1.58    0.31
   1  -3 -12    1.31    0.46
   1  -3 -12    1.91    0.43
  -1  -4 -12    5.65    0.62
  -1  -4 -12    7.07    0.89
   1   4 -12    6.66    0.85
   1   4 -12    6.44    0.67
   1  -4 -12    5.34    0.78
   1  -4 -12    5.10    0.64
  -1   4 -12    4.44    0.73
   1   5 -12   18.16    1.36
   1   5 -12   19.01    1.12
  -1  -5 -12   19.66    1.34
   1  -5  12   19.45    1.16
  -1   5 -12   18.90    1.13
  -1   5 -12   19.68    1.40
   1  -5 -12   19.78    1.36
   1   6 -12    6.37    0.80
  -1  -6 -12    7.77    1.00
   1   6 -12    7.60    1.00
  -1   6 -12    5.58    0.90
   1  -6 -12    7.18    0.96
  -1   6 -12    6.21    0.79
   1   7 -12    6.61    1.04
  -1  -7 -12    4.38    0.85
   1   7 -12    5.90    0.81
   1  -7 -12    3.95    0.82
  -1   7 -12    4.06    0.82
  -1   7 -12    5.71    0.83
  -1  -8 -12   16.21    1.59
   1   8 -12   13.33    1.25
   1   8 -12   13.62    1.45
  -1   8 -12   15.22    1.23
  -1   8 -12   13.95    1.47
   1  -8 -12   15.05    1.52
  -1  -9 -12    0.39    0.53
   1   9 -12    0.34    0.51
   1   9 -12    0.50    0.53
   1  -9 -12    2.07    0.75
  -1   9 -12   -0.10    0.53
  -1   9 -12    1.66    0.60
   1  10 -12    0.68    0.65
   1  10 -12    1.28    0.68
  -1 -10 -12    0.60    0.68
  -1  10 -12    1.62    0.70
   1 -10 -12    0.99    0.75
  -1  10 -12    1.08    0.68
   1   0  13   29.54    1.26
  -1   0 -13   29.21    1.55
   1   0 -13   29.74    1.59
   1  -1  13    2.66    0.42
  -1  -1 -13    3.98    0.63
  -1  -1 -13    2.13    0.50
   1   1 -13    1.98    0.50
   1   1 -13    1.92    0.43
   1  -1 -13    2.68    0.56
   1  -1 -13    1.79    0.47
  -1   1 -13    3.06    0.61
   1   1  13    2.29    0.41
  -1  -1  13    1.94    0.36
  -1   1 -13    3.40    0.53
   1  -2  13    8.51    0.68
   1   2 -13    9.40    0.71
   1   2 -13    9.38    0.99
  -1  -2 -13    9.63    0.99
  -1  -2 -13    7.79    0.81
  -1  -2  13    8.22    0.64
   1  -2 -13    8.62    0.92
   1  -2 -13    9.88    0.94
  -1   2 -13    7.86    0.95
  -1   2 -13    8.84    0.70
  -1  -3 -13   14.50    0.99
   1   3 -13   14.46    1.34
   1  -3  13   14.74    0.90
  -1  -3 -13   15.48    1.14
   1  -3 -13   15.92    1.20
   1  -3 -13   14.31    0.99
  -1  -3  13   16.43    0.90
  -1   3 -13   14.09    1.29
  -1  -4 -13    0.39    0.35
  -1  -4 -13    0.64    0.48
   1   4 -13    0.19    0.40
   1  -4 -13    0.39    0.33
  -1   4 -13    1.22    0.52
  -1  -4  13    1.16    0.38
   1  -4 -13    0.77    0.53
  -1  -5 -13   -0.24    0.42
   1   5 -13   -0.28    0.39
   1   5 -13   -0.13    0.36
   1  -5 -13   -0.22    0.51
  -1   5 -13   -0.65    0.40
  -1  -6 -13    6.99    1.05
   1   6 -13    4.94    0.71
   1   6 -13    3.87    0.81
   1  -6  13    6.34    0.82
  -1   6 -13    4.17    0.85
  -1   6 -13    6.56    0.82
   1  -6 -13    5.13    0.88
  -1  -7 -13    4.43    0.90
   1   7 -13    5.15    0.79
   1   7 -13    4.45    0.93
  -1   7 -13    5.93    1.04
   1  -7 -13    4.05    0.90
  -1   7 -13    3.89    0.72
  -1  -8 -13    0.62    0.65
   1   8 -13   -0.03    0.46
   1   8 -13    0.10    0.53
  -1   8 -13    0.19    0.44
   1  -8 -13    0.12    0.54
  -1   8 -13    0.31    0.57
   1   9 -13    6.47    1.14
  -1  -9 -13    7.82    1.22
   1   9 -13    5.63    0.93
   1  -9 -13    8.06    1.26
  -1   9 -13    5.69    1.11
  -1   9 -13    6.57    1.00
  -1 -10 -13    5.31    1.09
   1  10 -13    4.53    1.00
   1  10 -13    4.73    0.92
  -1  10 -13    6.23    1.18
  -1  10 -13    5.00    1.01
   1 -10 -13    5.02    1.11
   1   0 -14    0.28    0.40
  -1   0 -14   -0.28    0.32
   1   1 -14    4.66    0.63
  -1  -1 -14    4.04    0.67
  -1  -1 -14    4.31    0.69
   1   1 -14    4.06    0.70
   1  -1 -14    5.02    0.74
  -1   1 -14    4.62    0.63
  -1   1 -14    4.91    0.78
   1  -1 -14    3.35    0.64
   1   2 -14   14.28    0.91
   1   2 -14   14.60    1.34
   1  -2  14   14.29    0.89
  -1  -2 -14   15.25    1.15
  -1  -2 -14   14.37    1.04
   1  -2 -14   14.66    1.16
  -1   2 -14   14.94    0.92
  -1   2 -14   13.93    1.12
   1  -2 -14   12.71    1.02
   1  -3  14    0.84    0.38
  -1  -3 -14    0.49    0.52
   1   3 -14   -0.03    0.47
  -1  -3 -14    0.99    0.43
  -1  -3  14    0.73    0.34
  -1   3 -14    0.77    0.51
   1  -3 -14    0.94    0.43
   1  -3 -14    0.56    0.53
   1  -4  14    8.22    0.80
   1   4 -14    5.86    0.94
  -1  -4 -14    5.06    0.90
  -1   4 -14    6.11    0.93
   1  -4 -14    5.27    0.72
  -1  -4  14    5.32    0.67
   1  -4 -14    5.70    0.89
  -1  -5 -14   15.12    1.46
   1   5 -14   17.03    1.38
  -1   5 -14   13.02    1.37
   1  -5 -14   18.73    1.45
  -1  -5  14   15.86    1.06
  -1  -6 -14    0.05    0.57
   1   6 -14    0.77    0.59
   1  -6  14    0.63    0.44
   1   6 -14    0.24    0.42
  -1   6 -14    0.62    0.54
   1  -6 -14    1.00    0.62
   1   7 -14    5.64    1.04
   1   7 -14    4.35    0.73
  -1  -7 -14    4.69    0.98
   1  -7  14    4.04    0.75
  -1   7 -14    4.70    1.00
   1  -7 -14    3.79    0.94
   1   8 -14    7.50    1.25
  -1  -8 -14    5.53    1.04
   1   8 -14    7.08    0.96
  -1   8 -14    4.96    0.86
  -1   8 -14    6.48    1.07
   1  -8 -14    5.96    1.13
  -1  -9 -14    0.38    0.72
   1   9 -14    1.11    0.61
   1   9 -14    0.32    0.64
  -1   9 -14    1.27    0.75
  -1   9 -14    0.88    0.61
   1  -9 -14    1.63    0.79
  -1   0 -15   21.12    1.40
   1   0 -15   19.71    1.32
   1   1 -15    3.17    0.71
  -1  -1 -15    4.06    0.72
   1   1 -15    1.97    0.51
  -1  -1 -15    3.15    0.64
   1  -1 -15    2.31    0.60
  -1   1 -15    2.78    0.69
   1  -1 -15    2.90    0.61
  -1   1 -15    2.58    0.54
  -1  -2 -15    7.50    0.99
  -1  -2 -15    7.17    0.86
   1   2 -15    6.11    0.93
   1  -2 -15    4.71    0.81
   1  -2 -15    5.93    0.81
  -1   2 -15    5.92    0.89
   1   3 -15    5.25    0.90
  -1  -3 -15    5.11    0.72
  -1  -3 -15    5.04    0.85
   1  -3 -15    6.24    0.84
  -1   3 -15    5.12    0.86
   1  -3 -15    4.15    0.79
  -1  -4 -15    2.85    0.71
   1  -4  15    2.18    0.50
   1   4 -15    1.50    0.60
   1  -4 -15    3.20    0.63
  -1   4 -15    2.55    0.68
   1  -4 -15    3.02    0.76
   1   5 -15   -0.26    0.43
  -1  -5 -15   -0.08    0.55
  -1   5 -15    0.32    0.56
   1  -5 -15   -0.71    0.41
   1   6 -15    4.39    0.95
  -1  -6 -15    3.23    0.86
  -1   6 -15    4.68    1.00
   1  -6 -15    2.77    0.80
   1  -7  15    5.27    0.84
   1   7 -15    4.17    0.94
   1   7 -15    4.98    0.82
  -1  -7 -15    4.71    1.01
   1  -7 -15    6.61    1.18
  -1  -7  15    5.27    0.85
  -1   7 -15    5.32    1.08
   1   8 -15    0.44    0.55
  -1  -8 -15    0.73    0.73
   1  -8  15    0.08    0.57
   1   8 -15   -0.63    0.53
  -1   8 -15   -0.02    0.58
   1  -8 -15   -0.07    0.62
   1   9 -15    3.93    1.03
  -1  -9 -15    3.56    0.99
   1   9 -15    3.28    0.83
   1  -9  15    4.41    0.94
  -1   9 -15    3.29    0.96
  -1   9 -15    2.81    0.77
   1  -9 -15    2.37    0.93
   1   0 -16   -0.27    0.44
  -1   0 -16   -0.24    0.39
  -1  -1 -16    7.66    0.96
   1   1 -16    8.32    0.91
   1   1 -16    6.42    0.99
  -1  -1 -16    9.16    1.04
   1  -1 -16    7.96    0.94
  -1   1 -16    9.04    1.12
  -1   1 -16    8.90    0.92
   1  -1 -16    8.36    1.02
  -1  -2 -16    4.26    0.75
  -1  -2 -16    5.24    0.87
   1   2 -16    5.14    0.88
   1  -2 -16    4.30    0.78
  -1   2 -16    3.52    0.76
   1  -2 -16    3.56    0.73
  -1  -3 -16    0.06    0.40
  -1  -3 -16   -0.29    0.48
   1   3 -16    0.64    0.54
   1  -3 -16   -0.32    0.39
   1  -3 -16   -0.12    0.43
  -1   3 -16    1.37    0.62
   1   4 -16    2.63    0.73
  -1  -4 -16    2.56    0.77
   1  -4 -16    2.45    0.77
  -1   4 -16    1.88    0.74
   1  -4 -16    2.96    0.64
  -1  -5 -16    4.90    0.96
   1   5 -16    3.96    0.93
   1  -5 -16    5.30    1.03
  -1   5 -16    3.79    0.93
   1   6 -16    0.66    0.69
  -1  -6 -16    1.55    0.73
  -1   6 -16    2.00    0.74
   1  -6 -16    0.30    0.67
   1   7 -16    3.09    0.90
   1  -7  16    2.71    0.74
  -1  -7 -16    2.49    0.92
   1  -7 -16    4.25    1.05
  -1   7 -16    2.81    0.87
   1  -8  16    6.30    1.07
   1   8 -16    4.33    1.09
  -1  -8 -16    7.00    1.24
   1  -8 -16    7.99    1.32
  -1   8 -16    5.70    1.15
  -1   0 -17   12.21    1.33
   1   0 -17   12.31    1.32
  -1  -1 -17    3.50    0.77
   1   1 -17    3.44    0.82
  -1  -1 -17    2.33    0.68
   1  -1 -17    2.84    0.72
  -1   1 -17    2.54    0.69
   1  -1 -17    2.78    0.70
  -1  -2 -17    2.00    0.67
  -1  -2 -17    2.30    0.67
   1   2 -17    2.07    0.72
  -1   2 -17    1.99    0.67
   1  -2 -17    1.76    0.63
   1  -2 -17    1.49    0.60
  -1  -3 -17    8.97    1.16
  -1  -3 -17    7.01    0.92
   1   3 -17    7.40    1.12
   1  -3 -17    8.19    1.12
   1  -3 -17    7.63    0.96
  -1   3 -17    7.69    1.13
   1   4 -17    1.13    0.72
  -1  -4 -17    0.99    0.68
  -1   4 -17    0.46    0.56
   1  -4 -17    0.37    0.62
  -1  -5 -17   -0.59    0.59
   1   5 -17   -0.02    0.52
   1  -5 -17   -0.47    0.59
  -1   5 -17    0.25    0.53
  -1  -6 -17    1.44    0.80
   1   6 -17    1.79    0.82
   1  -6 -17    1.47    0.76
  -1   6 -17    1.84    0.77
  -1  -7 -17    4.87    1.14
   1   7 -17    3.47    1.06
   1  -7 -17    4.37    1.12
  -1   7 -17    3.62    1.06
   1   0 -18   -0.02    0.53
  -1   0 -18    0.86    0.61
   1   1 -18    2.69    0.84
  -1  -1 -18    2.70    0.75
  -1  -1 -18    2.51    0.71
   1  -1 -18    4.13    0.84
  -1   1 -18    0.80    0.65
   1  -1 -18    2.35    0.72
  -1  -2 -18    2.77    0.72
   1   2 -18    2.35    0.77
  -1  -2 -18    2.41    0.74
   1  -2 -18    2.56    0.73
  -1   2 -18    2.25    0.75
   1  -2 -18    3.24    0.78
   1   3 -18    0.38    0.63
  -1  -3 -18   -0.13    0.49
   1  -3 -18   -0.28    0.47
   1  -3 -18   -0.06    0.60
  -1   3 -18   -0.19    0.52
   1   4 -18    1.28    0.75
  -1  -4 -18    1.29    0.79
  -1   4 -18    1.97    0.82
   1  -4 -18    1.31    0.76
  -1  -5 -18    2.72    0.89
   1   5 -18    1.45    0.82
   1  -5 -18    2.64    0.91
  -1   5 -18    1.30    0.73
  -1  -6 -18   -0.34    0.72
   1   6 -18   -0.12    0.61
  -1   6 -18   -0.09    0.67
   1  -6 -18    0.14    0.74
   1   7 -18    1.94    0.85
  -1   7 -18    1.61    0.93
   1   0 -19    9.43    1.24
  -1   0 -19    9.43    1.21
  -1  -1 -19    0.84    0.62
   1   1 -19    0.69    0.66
  -1  -1 -19    0.33    0.56
   1  -1 -19    1.20    0.65
   1  -1 -19    1.82    0.72
  -1   1 -19    0.41    0.62
  -1  -2 -19    1.64    0.73
  -1  -2 -19    1.76    0.64
   1   2 -19    0.40    0.60
   1  -2 -19    1.27    0.73
   1  -2 -19    1.90    0.72
  -1   2 -19    0.96    0.72
  -1  -3 -19    3.73    0.91
   1   3 -19    1.56    0.74
   1  -3 -19    0.66    0.66
  -1   3 -19    1.20    0.70
  -1  -4 -19    0.66    0.72
   1   4 -19    0.80    0.77
   1  -4 -19    0.02    0.72
  -1   4 -19    1.22    0.71
   1   5 -19   -0.64    0.68
  -1  -5 -19   -1.07    0.60
  -1   5 -19   -0.31    0.66
   1  -5 -19   -0.24    0.60
   1   0 -20    0.28    0.64
  -1   0 -20    0.75    0.67
  -1  -1 -20    0.72    0.63
   1   1 -20    0.02    0.63
  -1   1 -20    1.73    0.83
   1  -1 -20    1.43    0.70
   1   2 -20    1.71    0.81
  -1  -2 -20    1.37    0.69
  -1  -2 -20    1.56    0.75
   1  -2 -20    0.67    0.70
  -1   2 -20    1.98    0.82
   1  -2 -20    1.02    0.68
   1   3 -20   -0.40    0.69
  -1  -3 -20   -0.08    0.67
  -1   3 -20    0.52    0.71
   1  -3 -20    0.13    0.66
  -1  -4 -20    2.28    0.88
   1   4 -20   -0.03    0.65
   1  -4 -20    0.73    0.83
  -1   4 -20    0.99    0.75
   1   0 -21    1.34    0.77
  -1   0 -21    1.54    0.79
  -1  -1 -21    0.91    0.70
   1   1 -21    1.04    0.78
   1  -1 -21    0.21    0.67
  -1   1 -21    0.66    0.77
   1   2 -21    0.24    0.78
   1  -2 -21    0.34    0.73
  -1   2 -21   -0.43    0.66
  -2   1   0  142.77    4.13
   2   1   0  142.63    4.12
   2   1   0  148.51    4.03
  -2  -1   0  150.70    4.03
  -2  -1   0  148.27    4.11
  -2  -2   0  152.84    4.39
   2   2   0  147.68    4.43
  -2  -2   0  160.42    4.28
   2   2   0  158.09    4.28
  -2   2   0  153.85    4.42
  -2  -3   0   27.19    0.94
   2   3   0   24.83    1.01
   2   3   0   25.68    0.86
  -2   3   0   26.56    1.01
   2   4   0   15.45    0.61
   2   4   0   13.85    0.76
  -2  -4   0   15.62    0.68
   2  -4   0   14.47    0.65
  -2   4   0   15.08    0.77
   2   5   0    2.61    0.43
   2  -5   0    2.23    0.30
   2   5   0    3.13    0.30
  -2   5   0    2.63    0.40
  -2  -5   0    2.58    0.33
   2   6   0   47.48    1.91
  -2   6   0   45.99    1.86
   2   6   0   45.13    1.55
  -2  -6   0   45.61    1.67
   2  -6   0   47.35    1.67
  -2   7   0  126.92    4.24
   2   7   0  125.00    4.26
   2  -7   0  127.90    3.96
  -2  -7   0  127.61    3.97
   2  -8   0    2.52    0.44
  -2   8   0    2.69    0.56
   2   8   0    4.45    0.76
  -2  -8   0    3.37    0.49
   2  -9   0   37.63    1.65
   2   9   0   44.29    2.09
  -2  -9   0   40.42    1.69
  -2   9   0   39.52    1.98
  -2  10   0   16.12    1.31
   2  10   0   17.45    1.42
   2  11   0    1.12    0.64
  -2  11   0    0.10    0.50
   2  12   0    8.58    1.33
  -2  12   0    9.56    1.34
   2  13   0    6.12    1.23
  -2  13   0    5.76    1.19
   2   0   1   -0.07    0.03
   2   0  -1   -0.07    0.03
   2   0   1    0.02    0.05
  -2   0  -1   -0.05    0.03
  -2   0   1   -0.05    0.03
   2   0  -1   -0.02    0.03
  -2   0  -1   -0.04    0.04
  -2   1   1   22.91    0.71
  -2  -1  -1   23.48    0.76
   2   1  -1   22.80    0.74
   2   1   1   21.70    0.74
  -2   1  -1   21.30    0.74
   2  -1  -1   22.61    0.71
  -2   1  -1   21.47    0.75
   2   2  -1   15.35    0.57
   2   2  -1   15.17    0.63
  -2  -2  -1   15.32    0.60
  -2  -2  -1   14.72    0.44
  -2  -2   1   15.66    0.53
   2   2   1   14.65    0.44
  -2   2  -1   13.12    0.58
   2   2   1   14.77    0.61
  -2   2  -1   14.72    0.61
   2   3  -1    0.64    0.18
  -2  -3  -1    0.28    0.13
  -2   3   1    0.53    0.16
   2   3  -1    0.28    0.11
  -2  -3   1    0.48    0.11
   2   3   1    0.14    0.12
  -2   3  -1    0.26    0.12
  -2   3  -1    0.36    0.15
   2   3   1    0.32    0.07
   2  -4   1    2.76    0.27
   2   4  -1    3.67    0.42
  -2   4   1    2.96    0.36
   2   4  -1    2.32    0.27
  -2  -4  -1    3.27    0.35
   2  -4  -1    2.78    0.32
  -2  -4   1    2.48    0.26
   2   4   1    3.23    0.39
  -2   4  -1    2.64    0.38
  -2   5   1   63.18    2.20
   2   5  -1   62.61    2.01
   2   5  -1   61.45    2.23
   2  -5   1   63.40    1.99
  -2  -5  -1   61.16    2.08
  -2   5  -1   60.00    2.20
   2  -5  -1   60.65    2.08
   2   5   1   61.70    2.22
  -2  -5   1   62.08    1.99
  -2   6   1   -0.11    0.20
   2   6  -1    0.15    0.25
  -2  -6  -1   -0.01    0.18
   2   6  -1   -0.04    0.12
   2  -6   1    0.12    0.14
  -2   6  -1    0.15    0.24
   2  -6  -1    0.19    0.19
   2   6   1    0.00    0.24
  -2  -6   1    0.28    0.17
   2   7  -1   47.43    1.66
  -2   7   1   45.44    1.94
   2  -7   1   43.89    1.63
   2   7  -1   44.52    1.98
  -2  -7  -1   43.43    1.74
  -2  -7   1   42.58    1.63
   2  -7  -1   44.13    1.72
  -2   7  -1   44.60    1.95
   2   7   1   46.63    1.99
  -2   8   1   33.76    1.71
  -2  -8  -1   33.89    1.49
   2  -8   1   34.12    1.38
   2   8  -1   30.56    1.70
   2  -8  -1   32.05    1.47
   2   8   1   35.63    1.75
  -2  -8   1   34.86    1.40
  -2   8  -1   36.92    1.77
  -2   9   1    2.09    0.57
  -2  -9  -1    1.94    0.46
   2   9  -1    2.47    0.66
  -2   9  -1    1.68    0.55
   2  -9  -1    1.80    0.45
   2   9   1    1.62    0.54
  -2  -9   1    1.62    0.38
   2  10  -1   19.85    1.52
  -2  10   1   21.14    1.50
  -2 -10  -1   18.51    1.16
   2  10   1   20.57    1.52
  -2  10  -1   17.78    1.38
   2  11  -1    4.95    0.98
  -2  11   1    4.85    0.96
  -2  11  -1    4.50    0.89
   2  11   1    3.21    0.79
   2  12  -1    2.78    0.83
  -2  12   1    1.35    0.73
  -2  12  -1    1.35    0.75
   2  12   1    1.85    0.83
   2  13  -1    0.14    0.62
  -2  13   1   -0.30    0.63
  -2  13  -1    0.53    0.74
   2  13   1   -0.34    0.66
   2   0  -2  749.13   19.82
   2   0  -2  729.15   19.79
   2   0   2  681.43   20.18
  -2   0   2  722.96   19.81
  -2   0  -2  735.56   19.89
  -2  -1  -2   25.50    0.75
   2   1  -2   24.34    0.85
   2   1  -2   23.44    0.81
   2  -1   2   25.31    0.75
  -2   1   2   25.65    0.76
  -2  -1  -2   24.56    0.86
   2  -1   2   24.83    0.84
   2   1   2   25.66    0.85
   2  -1  -2   24.60    0.75
   2   1   2   25.72    0.75
  -2   1  -2   24.55    0.84
  -2   1  -2   24.02    0.86
   2  -1  -2   23.03    0.81
  -2   2   2   14.54    0.56
   2   2  -2   12.70    0.58
  -2  -2  -2   14.73    0.62
   2   2  -2   14.41    0.61
   2   2   2   13.64    0.59
  -2   2  -2   14.74    0.62
  -2   2  -2   14.52    0.61
   2   3  -2  255.34    7.32
  -2  -3  -2  256.48    7.30
  -2  -3  -2  266.02    6.95
  -2  -3   2  257.47    7.11
  -2   3  -2  253.43    7.24
  -2   3  -2  255.53    7.31
   2   3   2  245.68    7.28
   2   4  -2   24.60    1.12
   2  -4   2   27.34    0.89
   2   4  -2   25.88    1.03
  -2  -4  -2   26.12    1.07
  -2   4   2   26.38    1.08
   2   4   2   26.14    1.11
  -2  -4   2   26.90    0.91
   2  -4  -2   26.68    1.08
  -2   4  -2   27.48    1.14
  -2   4  -2   26.77    1.07
  -2  -5  -2   39.03    1.50
   2  -5   2   38.46    1.29
   2   5  -2   37.88    1.59
   2   5  -2   38.28    1.44
  -2   5   2   40.08    1.55
  -2   5  -2   38.98    1.49
   2  -5  -2   39.28    1.51
   2   5   2   39.37    1.59
  -2   5  -2   40.65    1.61
  -2  -5   2   39.93    1.32
   2   6  -2    1.54    0.30
   2  -6   2    2.14    0.27
   2   6  -2    2.47    0.44
  -2   6   2    1.67    0.37
  -2  -6  -2    1.85    0.35
   2   6   2    2.34    0.45
   2  -6  -2    2.06    0.36
  -2  -6   2    1.89    0.27
  -2   6  -2    2.30    0.43
  -2   7   2   47.14    1.92
   2  -7   2   46.20    1.57
  -2  -7  -2   42.49    1.76
   2   7  -2   45.34    1.69
   2   7  -2   44.20    1.96
   2   7   2   43.48    1.93
  -2   7  -2   45.30    1.97
  -2  -7   2   42.55    1.56
   2  -7  -2   42.67    1.75
   2   8  -2   13.07    0.82
  -2   8   2   14.11    1.05
   2   8  -2   13.60    1.06
  -2  -8  -2   13.35    0.91
   2  -8   2   14.68    0.76
   2  -8  -2   13.74    0.91
   2   8   2   15.00    1.11
  -2   8  -2   12.98    1.02
  -2  -8   2   13.90    0.75
  -2  -9  -2    6.10    0.75
  -2   9   2    6.77    0.93
   2   9  -2    7.04    0.97
   2  -9  -2    6.65    0.76
  -2   9  -2    6.46    0.91
   2   9   2    4.97    0.80
  -2 -10  -2   29.47    1.57
   2  10  -2   35.23    1.94
  -2  10   2   33.12    1.88
   2  10   2   29.82    1.81
   2 -10  -2   29.06    1.54
  -2  10  -2   30.62    1.83
   2  11  -2    2.34    0.77
  -2  11   2    1.93    0.70
  -2  11  -2    2.08    0.64
   2  11   2    2.12    0.74
  -2  12   2   14.86    1.61
   2  12  -2   13.62    1.60
  -2  12  -2   11.07    1.41
   2  12   2   15.07    1.66
   2  13  -2    3.79    1.09
  -2  13   2    6.91    1.22
   2  13   2    4.51    1.06
  -2  13  -2    6.72    1.25
   2   0  -3   -0.21    0.08
  -2   0   3   -0.16    0.04
  -2   0  -3   -0.20    0.08
   2   0  -3   -0.11    0.04
  -2  -1  -3    0.92    0.13
  -2   1   3    0.93    0.08
   2   1  -3    0.74    0.13
   2  -1   3    1.24    0.17
   2   1  -3    1.50    0.20
  -2  -1  -3    1.04    0.18
   2  -1  -3    0.93    0.08
   2  -1  -3    1.02    0.16
  -2   1  -3    0.93    0.11
  -2   1  -3    0.71    0.16
   2  -2   3  262.74    7.10
  -2  -2  -3  263.50    7.07
   2   2  -3  259.83    7.29
   2   2  -3  253.64    7.29
  -2   2   3  263.60    7.20
  -2  -2  -3  261.50    7.37
  -2   2  -3  243.92    7.29
  -2   2  -3  257.26    7.32
   2   2   3  268.89    7.07
   2  -2  -3  260.60    7.18
   2   2   3  250.67    7.27
   2   3  -3   41.84    1.47
  -2  -3  -3   43.54    1.20
  -2  -3  -3   42.53    1.51
  -2   3   3   42.64    1.42
   2   3  -3   40.59    1.48
   2   3   3   41.20    1.46
   2  -3  -3   42.30    1.34
  -2   3  -3   41.80    1.49
  -2   3  -3   40.68    1.49
   2  -4   3   45.43    1.35
   2   4  -3   47.00    1.71
  -2  -4  -3   43.50    1.64
  -2  -4  -3   46.31    1.31
   2  -4  -3   44.40    1.66
   2   4   3   43.92    1.65
  -2   4  -3   46.18    1.66
  -2   4  -3   48.02    1.71
  -2   5   3   80.92    2.76
  -2  -5  -3   85.59    2.38
   2   5  -3   87.06    2.89
  -2  -5  -3   81.54    2.77
   2  -5   3   84.55    2.45
   2   5   3   79.86    2.81
  -2   5  -3   83.15    2.85
  -2   5  -3   83.65    2.76
  -2  -5   3   86.12    2.49
   2  -5  -3   83.30    2.80
   2   6  -3    4.36    0.57
   2  -6   3    3.81    0.29
   2   6  -3    5.07    0.53
  -2  -6  -3    3.69    0.48
  -2   6   3    3.21    0.46
   2  -6  -3    4.12    0.52
  -2   6  -3    3.03    0.49
   2   6   3    4.61    0.58
  -2   6  -3    5.06    0.56
  -2  -6   3    4.32    0.31
   2   7  -3   31.97    1.59
  -2   7   3   29.50    1.46
   2  -7   3   30.71    1.12
   2   7  -3   31.35    1.36
  -2  -7  -3   31.02    1.43
   2  -7  -3   33.48    1.46
  -2   7  -3   30.38    1.51
   2   7   3   29.44    1.52
  -2  -7   3   30.75    1.14
  -2   7  -3   30.43    1.53
   2   8  -3   20.86    1.09
  -2  -8  -3   18.50    1.12
  -2   8   3   20.41    1.23
   2   8  -3   20.43    1.30
   2   8   3   24.06    1.38
   2  -8  -3   20.86    1.17
  -2   8  -3   18.80    1.25
   2   9  -3    0.13    0.27
  -2  -9  -3    0.58    0.37
  -2   9   3    0.23    0.40
   2   9  -3    0.84    0.46
   2   9   3    0.04    0.34
   2  -9  -3    0.64    0.36
  -2   9  -3    0.10    0.43
  -2 -10  -3    1.71    0.53
   2  10  -3    3.17    0.82
  -2  10   3    2.67    0.72
  -2  10  -3    2.10    0.69
   2 -10  -3    3.18    0.63
   2  10   3    2.75    0.75
   2  11  -3    6.31    1.11
  -2  11   3    6.12    0.98
  -2 -11  -3    5.02    0.77
  -2  11  -3    6.37    1.05
   2  11   3    5.32    1.01
  -2  12   3    3.19    0.92
   2  12  -3    3.46    0.97
  -2  12  -3    3.80    0.95
   2  12   3    3.52    0.92
  -2  13   3   -0.79    0.52
   2  13  -3   -0.47    0.59
   2  13   3    0.51    0.72
  -2  13  -3    0.59    0.66
  -2   0  -4  183.27    5.20
   2   0  -4  181.58    5.22
  -2   0   4  183.68    5.04
  -2   1   4   13.63    0.44
  -2  -1  -4   14.09    0.64
  -2  -1  -4   14.33    0.57
   2   1  -4   13.49    0.54
   2   1  -4   13.69    0.66
   2  -1   4   14.57    0.60
  -2   1  -4   14.07    0.53
   2  -1  -4   15.44    0.62
  -2   1  -4   15.21    0.67
   2   1   4   13.11    0.57
   2  -1  -4   14.14    0.44
  -2  -2  -4    1.71    0.27
   2   2  -4    2.24    0.27
   2  -2   4    2.04    0.13
   2   2  -4    2.32    0.30
  -2   2   4    2.17    0.20
  -2  -2  -4    2.09    0.18
   2  -2  -4    1.62    0.20
  -2   2  -4    1.94    0.28
  -2   2  -4    2.19    0.26
  -2  -3  -4   28.08    1.16
   2   3  -4   26.31    1.11
   2   3  -4   29.01    1.16
  -2  -3  -4   29.69    0.90
  -2   3   4   28.91    1.04
  -2   3  -4   29.53    1.19
   2   3   4   29.55    1.11
  -2   3  -4   29.86    1.15
   2  -3  -4   28.68    1.01
  -2   4   4   32.46    1.24
   2   4  -4   33.78    1.33
  -2  -4  -4   33.09    1.34
   2   4  -4   30.60    1.31
  -2  -4  -4   33.80    0.98
  -2   4  -4   31.30    1.31
   2  -4  -4   32.65    1.13
   2   4   4   31.56    1.28
   2  -4  -4   30.21    1.31
  -2   4  -4   33.27    1.34
  -2  -5  -4    8.01    0.74
   2  -5   4    7.63    0.29
   2   5  -4    7.45    0.60
  -2  -5  -4    8.27    0.33
   2   5  -4    7.12    0.69
  -2   5  -4    7.63    0.60
   2  -5  -4    8.15    0.66
   2   5   4    7.06    0.66
  -2   5  -4    8.70    0.69
   2  -5  -4    7.43    0.45
  -2   6   4   10.48    0.74
  -2  -6  -4    9.86    0.41
  -2  -6  -4   10.62    0.75
   2  -6   4   11.38    0.42
   2   6  -4    8.91    0.74
   2  -6  -4   10.21    0.55
  -2   6  -4   11.26    0.75
   2  -6  -4   10.53    0.74
   2   6   4   10.20    0.76
  -2   6  -4    9.79    0.76
  -2   7   4   18.06    1.09
  -2  -7  -4   19.50    1.09
   2   7  -4   20.34    1.20
   2  -7  -4   19.24    0.84
   2   7   4   17.58    1.12
   2  -7  -4   18.37    1.07
  -2   7  -4   17.25    1.15
  -2   7  -4   17.32    1.04
  -2  -8  -4    0.29    0.34
  -2   8   4    0.20    0.37
   2   8  -4    0.65    0.40
   2   8  -4    0.60    0.32
   2  -8  -4    0.00    0.28
  -2   8  -4    0.65    0.33
  -2   8  -4    0.46    0.37
   2   8   4    0.50    0.40
  -2  -9  -4   15.41    1.10
  -2   9   4   17.08    1.23
   2   9  -4   18.72    1.36
   2   9  -4   17.99    1.09
   2  -9  -4   18.15    1.18
   2   9   4   20.82    1.37
  -2   9  -4   14.88    1.25
  -2 -10  -4   19.86    1.35
   2  10  -4   23.69    1.60
  -2  10   4   27.43    1.64
  -2  10  -4   25.73    1.67
   2 -10  -4   19.25    1.31
   2  10   4   21.76    1.56
  -2  11   4   -0.09    0.45
  -2 -11  -4    0.25    0.41
   2  11  -4    0.31    0.47
  -2  11  -4    0.36    0.52
   2 -11  -4    0.14    0.40
   2  11   4   -0.13    0.38
   2  12  -4   11.44    1.45
  -2  12   4   11.96    1.43
  -2  12  -4   13.16    1.55
   2  12   4   13.80    1.56
  -2   0  -5   -0.24    0.05
   2   0   5   -0.09    0.11
  -2   0   5   -0.07    0.06
  -2   0   5   -0.04    0.06
   2   0  -5   -0.03    0.11
  -2   0  -5   -0.19    0.10
  -2  -1  -5   21.08    0.81
  -2  -1  -5   20.57    0.87
   2   1  -5   21.00    0.74
  -2   1   5   20.91    0.63
   2   1  -5   20.62    0.90
   2  -1  -5   21.76    0.64
   2  -1  -5   20.50    0.85
  -2   1  -5   20.62    0.90
   2   1   5   20.91    0.81
  -2   1  -5   20.89    0.76
   2   2  -5  124.47    3.68
  -2  -2  -5  126.43    3.81
  -2   2   5  125.07    3.54
  -2  -2  -5  126.37    3.58
   2   2  -5  118.60    3.78
  -2   2  -5  124.26    3.81
   2  -2  -5  126.37    3.67
  -2   2  -5  125.77    3.52
   2   2   5  125.33    3.67
  -2   2  -5  122.99    3.69
  -2  -3  -5    8.17    0.38
  -2   3   5    7.53    0.43
   2   3  -5    8.39    0.54
   2   3  -5    7.10    0.53
  -2  -3  -5    7.95    0.57
   2  -3  -5    7.91    0.45
  -2   3  -5    7.71    0.56
  -2   3  -5    7.78    0.51
   2  -3  -5    7.72    0.56
   2   4  -5   60.51    2.16
  -2  -4  -5   64.22    1.83
  -2  -4  -5   60.63    2.20
  -2   4   5   62.92    2.06
   2   4  -5   64.78    2.22
   2  -4  -5   63.21    2.23
  -2   4  -5   60.81    2.22
   2  -4  -5   60.44    1.96
   2   4   5   61.15    2.13
  -2   4  -5   60.04    2.15
   2   5  -5   80.12    2.73
  -2  -5  -5   80.59    2.27
  -2  -5  -5   74.10    2.72
  -2   5   5   78.64    2.63
   2   5  -5   79.37    2.75
  -2   5  -5   75.64    2.72
   2   5   5   82.00    2.72
   2  -5  -5   81.14    2.44
  -2   5  -5   78.58    2.73
   2  -5  -5   75.39    2.75
   2   6  -5   17.78    1.07
  -2  -6  -5   16.55    1.00
   2   6  -5   16.22    0.98
   2  -6  -5   17.58    0.77
  -2   6  -5   17.92    1.06
   2  -6  -5   17.93    1.03
  -2   6  -5   19.15    1.07
   2   6   5   17.31    1.02
  -2   7   5   29.05    1.41
  -2  -7  -5   27.74    1.42
   2   7  -5   27.88    1.50
   2   7  -5   27.29    1.49
   2  -7  -5   28.42    1.45
   2   7   5   29.61    1.48
   2  -7  -5   29.29    1.12
  -2   7  -5   27.24    1.47
  -2   7  -5   28.42    1.42
  -2   8   5   29.90    1.56
  -2  -8  -5   29.54    1.55
   2   8  -5   29.74    1.64
  -2   8  -5   32.77    1.69
  -2   8  -5   30.02    1.53
   2   8   5   30.38    1.60
   2  -8  -5   31.71    1.58
  -2   9   5    4.88    0.79
   2   9  -5    4.49    0.68
  -2  -9  -5    4.76    0.74
   2   9  -5    4.34    0.80
  -2   9  -5    3.90    0.74
  -2   9  -5    3.46    0.63
   2  -9  -5    4.59    0.71
   2   9   5    3.96    0.78
   2  10  -5    4.93    0.75
   2  10  -5    3.11    0.77
  -2 -10  -5    3.85    0.72
  -2  10   5    4.01    0.80
  -2  10  -5    3.75    0.80
   2  10   5    4.27    0.84
   2 -10  -5    3.61    0.70
  -2  11   5    6.40    1.02
   2  11  -5    6.70    1.09
  -2 -11  -5    6.47    0.95
   2  11   5    6.72    1.06
   2 -11  -5    8.48    1.05
  -2  11  -5    7.32    1.06
  -2  12   5    4.36    0.97
   2  12  -5    4.79    1.03
  -2  12  -5    6.20    1.16
   2  12   5    5.98    1.11
  -2   0  -6   31.83    1.22
   2   0  -6   32.06    1.25
   2   0   6   32.63    1.19
  -2   0   6   32.18    1.01
  -2   1   6    9.78    0.35
  -2  -1  -6    9.46    0.57
   2   1  -6   10.01    0.44
  -2  -1  -6   10.40    0.54
   2   1  -6    9.54    0.60
   2  -1  -6   10.14    0.36
   2   1   6    9.45    0.51
   2  -1  -6    9.78    0.56
  -2   1  -6    9.93    0.60
  -2   1  -6   10.05    0.48
   2  -2   6  114.24    3.53
  -2  -2  -6  114.93    3.45
  -2   2   6  116.72    3.35
   2   2  -6  114.86    3.49
  -2  -2  -6  115.08    3.65
  -2   2  -6  120.16    3.69
  -2   2  -6  123.29    3.38
   2   2   6  119.92    3.50
   2  -2  -6  115.18    3.53
  -2   2  -6  119.14    3.54
  -2   3   6   38.38    1.27
  -2  -3  -6   37.09    1.24
   2   3  -6   35.81    1.38
  -2  -3  -6   36.32    1.48
   2   3  -6   34.79    1.48
   2  -3  -6   38.05    1.34
  -2   3  -6   38.19    1.41
   2  -3  -6   37.01    1.51
   2   3   6   37.33    1.36
  -2   3  -6   38.68    1.53
   2   4  -6    1.49    0.36
  -2  -4  -6    1.11    0.17
  -2  -4  -6    1.45    0.35
  -2   4   6    1.61    0.26
   2   4  -6    1.06    0.28
   2  -4  -6    1.46    0.25
  -2   4  -6    0.77    0.26
   2  -4  -6    1.68    0.37
  -2   4  -6    1.15    0.33
   2   4   6    0.31    0.15
   2   5  -6    5.13    0.62
  -2  -5  -6    4.34    0.27
  -2   5   6    4.90    0.51
  -2  -5  -6    4.52    0.61
   2   5  -6    4.06    0.56
  -2   5  -6    3.29    0.51
   2  -5  -6    5.24    0.65
   2   5   6    3.51    0.48
  -2   5  -6    4.64    0.57
   2  -5  -6    4.68    0.38
   2   6  -6   10.38    0.81
   2   6  -6   10.62    0.82
  -2  -6  -6   10.28    0.84
  -2   6   6   10.69    0.77
  -2   6  -6   10.88    0.82
   2   6   6   12.75    0.85
   2  -6  -6   10.80    0.60
  -2   6  -6   11.19    0.84
   2  -6  -6   11.12    0.86
   2   7  -6    7.88    0.83
   2   7  -6    8.07    0.89
  -2  -7  -6    7.32    0.83
   2  -7  -6    6.34    0.47
   2  -7  -6    7.20    0.82
  -2   7  -6    6.06    0.73
  -2   7  -6    5.04    0.69
   2   7   6    7.50    0.80
  -2   8   6    0.14    0.34
   2   8  -6    0.23    0.34
   2   8  -6    0.19    0.39
  -2  -8  -6    0.29    0.34
  -2   8  -6    0.39    0.36
  -2   8  -6    0.38    0.38
   2  -8  -6   -0.07    0.28
   2   8   6   -0.20    0.31
  -2   9   6   20.45    1.38
   2   9  -6   22.58    1.52
  -2  -9  -6   24.41    1.47
   2   9   6   22.37    1.44
   2  -9  -6   20.04    1.34
  -2   9  -6   24.41    1.44
  -2   9  -6   24.22    1.53
   2  10  -6   14.74    1.47
  -2  10   6   18.41    1.38
  -2 -10  -6   18.37    1.32
   2 -10  -6   16.27    1.30
   2  10   6   17.66    1.40
  -2  10  -6   21.71    1.53
  -2  10  -6   16.48    1.25
  -2  11   6    0.49    0.54
  -2 -11  -6    0.05    0.46
   2  11  -6   -0.56    0.44
   2  11   6    0.12    0.51
  -2  11  -6    0.11    0.54
   2 -11  -6    0.21    0.45
  -2 -12  -6    8.55    1.17
  -2  12   6   10.77    1.37
   2  12  -6    7.67    1.31
   2  12   6   11.00    1.46
   2 -12  -6    9.57    1.21
  -2  12  -6    9.14    1.33
  -2   0  -7   -0.05    0.09
  -2   0  -7    0.06    0.16
  -2   0   7   -0.06    0.08
   2   0   7    0.13    0.14
   2   0  -7    0.04    0.17
   2  -1   7   52.57    1.74
   2   1  -7   49.16    1.59
  -2  -1  -7   50.42    1.81
  -2   1   7   52.85    1.50
   2   1  -7   49.53    1.86
  -2  -1  -7   51.50    1.76
  -2   1  -7   51.17    1.69
   2   1   7   50.08    1.72
  -2   1  -7   53.59    1.88
   2  -1  -7   50.19    1.80
  -2  -2  -7   41.52    1.43
  -2  -2  -7   39.73    1.57
   2  -2   7   35.83    1.42
   2   2  -7   39.35    1.59
  -2   2   7   39.53    1.25
   2   2  -7   41.80    1.40
   2   2   7   40.97    1.41
  -2   2  -7   39.31    1.59
   2  -2  -7   40.03    1.58
  -2   2  -7   41.62    1.32
   2  -2  -7   39.82    1.48
  -2  -3  -7   10.61    0.55
   2   3  -7   11.02    0.74
  -2   3   7   10.09    0.51
   2   3  -7    9.43    0.60
  -2  -3  -7   10.00    0.72
   2   3   7   11.39    0.61
  -2   3  -7    9.90    0.72
  -2   3  -7    9.69    0.61
  -2   3  -7   10.47    0.40
   2  -3  -7   11.90    0.63
   2  -3  -7   10.17    0.72
  -2  -4  -7    1.61    0.39
   2   4  -7    1.23    0.34
  -2   4   7    1.32    0.26
   2   4  -7    0.97    0.29
  -2  -4  -7    0.92    0.19
  -2   4  -7    0.71    0.29
   2   4   7    0.76    0.24
   2  -4  -7    1.30    0.35
   2  -4  -7    1.15    0.24
  -2   4  -7    1.03    0.29
   2   5  -7   78.60    2.90
  -2  -5  -7   83.45    2.43
  -2  -5  -7   79.90    2.92
   2   5  -7   81.31    2.82
  -2   5   7   83.07    2.69
   2  -5  -7   82.67    2.58
  -2   5  -7   77.08    2.79
  -2   5  -7   79.40    2.93
   2  -5  -7   83.38    2.95
  -2  -6  -7   11.19    0.89
  -2   6   7   11.95    0.80
   2   6  -7   10.91    0.85
   2   6  -7   12.52    0.91
   2  -6  -7   13.85    0.96
  -2   6  -7   14.44    0.96
   2   6   7   10.15    0.79
   2  -6  -7   12.48    0.67
  -2   6  -7   14.43    0.99
  -2   7   7    9.16    0.85
   2   7  -7    9.06    0.95
   2   7  -7    8.62    0.90
  -2  -7  -7   10.33    1.00
   2  -7  -7   10.40    1.05
   2   7   7    8.85    0.88
  -2   7  -7   10.02    0.98
   2  -7  -7    8.11    0.57
  -2   7  -7    9.48    0.99
   2   8  -7   20.98    1.33
  -2  -8  -7   19.74    1.32
   2   8  -7   23.63    1.45
  -2   8  -7   23.83    1.44
   2   8   7   24.05    1.40
  -2   8  -7   20.68    1.35
   2  -8  -7   23.86    1.41
  -2  -9  -7    0.62    0.45
   2   9  -7    0.63    0.44
   2   9  -7   -0.01    0.42
   2   9   7    0.37    0.42
   2  -9  -7    1.53    0.52
  -2   9  -7    0.77    0.55
  -2   9  -7    0.60    0.48
  -2  10   7    2.43    0.69
   2  10  -7    3.01    0.81
  -2 -10  -7    1.78    0.60
  -2  10  -7    2.36    0.74
   2 -10  -7    3.79    0.80
  -2  10  -7    4.07    0.80
   2  10   7    2.65    0.71
  -2  11   7    4.00    0.83
  -2 -11  -7    2.88    0.75
   2  11  -7    2.04    0.72
   2 -11  -7    4.51    0.88
   2  11   7    3.18    0.80
  -2  11  -7    2.97    0.72
  -2  11  -7    1.90    0.68
  -2  12   7    3.86    0.93
   2  12  -7    3.57    0.93
  -2 -12  -7    3.84    0.89
  -2  12  -7    3.91    0.93
   2  12   7    5.60    1.04
   2 -12  -7    4.27    0.91
  -2   0  -8  138.25    4.22
  -2   0   8  140.63    3.94
   2   0   8  129.02    4.11
   2   0  -8  139.52    4.27
   2  -1   8   19.62    0.88
  -2   1   8   19.18    0.66
  -2  -1  -8   18.80    0.91
  -2  -1  -8   20.53    0.96
   2   1  -8   19.31    1.00
  -2   1  -8   21.10    1.03
   2   1   8   19.94    0.88
  -2  -1   8   18.21    0.75
  -2   1  -8   17.94    0.83
   2  -1  -8   20.02    0.97
   2   2  -8   46.57    1.61
  -2  -2  -8   48.77    1.86
   2   2  -8   46.50    1.88
  -2  -2  -8   49.25    1.71
  -2   2   8   48.20    1.48
  -2   2  -8   49.73    1.60
   2  -2  -8   49.32    1.87
   2  -2  -8   49.57    1.77
   2   2   8   47.83    1.65
  -2   2  -8   46.44    1.86
  -2   3   8   43.45    1.41
   2   3  -8   42.17    1.77
  -2  -3  -8   44.23    1.52
  -2  -3  -8   40.31    1.72
   2   3  -8   41.54    1.55
   2  -3  -8   42.03    1.74
  -2   3  -8   43.02    1.59
  -2   3  -8   44.18    1.34
   2  -3  -8   41.99    1.57
  -2   3  -8   41.31    1.77
   2   3   8   40.26    1.52
   2   4  -8    4.84    0.62
  -2   4   8    4.77    0.44
   2   4  -8    5.47    0.58
  -2  -4  -8    5.66    0.68
  -2  -4  -8    5.30    0.40
  -2   4  -8    6.23    0.61
   2  -4  -8    4.92    0.64
   2  -4  -8    5.29    0.49
   2   4   8    5.05    0.52
  -2   4  -8    5.90    0.68
   2   5  -8    1.94    0.42
   2   5  -8    1.44    0.43
  -2  -5  -8    2.14    0.28
  -2   5   8    2.06    0.36
  -2  -5  -8    1.66    0.45
   2  -5  -8    2.29    0.35
  -2   5  -8    2.19    0.47
  -2   5  -8    1.62    0.40
   2  -5  -8    1.09    0.44
   2   5   8    2.40    0.42
   2   6  -8   15.67    1.01
  -2   6   8   16.18    0.92
   2   6  -8   15.83    1.10
  -2  -6  -8   16.81    1.13
   2  -6  -8   16.68    0.82
   2   6   8   13.46    0.95
  -2   6  -8   16.24    1.12
  -2   6  -8   16.58    1.05
   2  -6  -8   16.90    1.12
  -2  -7  -8   15.30    1.14
   2   7  -8   13.36    1.04
  -2   7   8   15.88    1.00
   2   7  -8   15.37    1.11
  -2   7  -8   15.79    1.12
   2  -7  -8   14.06    1.11
  -2   7  -8   15.11    1.08
  -2   8   8    0.47    0.40
  -2  -8  -8    0.28    0.40
   2   8  -8    1.13    0.49
   2   8  -8    0.65    0.48
   2  -8  -8    0.53    0.44
   2   8   8    0.83    0.44
  -2   8  -8    1.31    0.50
  -2   8  -8    0.52    0.43
   2   9  -8   14.78    1.20
   2   9  -8   13.54    1.30
  -2  -9  -8   14.50    1.37
   2  -9  -8   12.87    1.32
   2   9   8   13.79    1.32
  -2   9  -8   12.30    1.27
  -2   9  -8   13.16    1.26
   2  10  -8   14.73    1.48
   2  10  -8   14.20    1.37
  -2 -10  -8   15.37    1.49
   2 -10  -8   14.00    1.40
  -2  10  -8   15.55    1.48
   2  10   8   17.74    1.38
  -2  10  -8   15.77    1.48
  -2  11   8    0.14    0.53
  -2 -11  -8   -0.15    0.44
   2  11  -8   -0.66    0.51
   2  11   8   -0.36    0.48
  -2  11  -8   -0.06    0.55
  -2  11  -8   -0.28    0.46
   2 -11  -8    0.17    0.49
  -2 -12  -8    5.47    1.03
   2  12  -8    4.94    1.02
  -2  12  -8    4.92    1.03
   2 -12  -8    6.11    1.06
   2  12   8    7.68    1.24
   2   0   9   -0.01    0.16
  -2   0  -9   -0.36    0.18
  -2   0  -9   -0.15    0.11
   2   0  -9   -0.01    0.18
   2   0  -9   -0.04    0.19
  -2   0   9    0.04    0.11
  -2  -1  -9   26.93    1.18
  -2   1   9   27.20    0.89
   2  -1   9   27.69    1.13
   2   1  -9   26.41    1.28
  -2  -1  -9   26.87    1.22
  -2  -1   9   28.28    1.00
   2  -1  -9   24.54    1.20
   2   1   9   24.74    1.08
  -2   1  -9   26.55    1.10
  -2   1  -9   26.34    1.26
   2  -1  -9   27.81    1.24
   2  -2   9   17.53    0.92
  -2  -2  -9   22.90    1.02
   2   2  -9   21.73    1.16
  -2  -2  -9   19.17    1.06
   2   2  -9   21.27    0.88
  -2   2   9   21.20    0.75
  -2   2  -9   20.13    1.11
   2  -2  -9   22.37    1.14
   2   2   9   22.18    0.93
  -2   2  -9   21.97    0.89
   2  -2  -9   21.71    1.04
  -2   3   9   12.16    0.57
  -2  -3  -9   12.23    0.70
  -2  -3  -9   12.59    0.85
   2  -3   9   12.73    0.74
   2   3  -9   12.56    0.71
   2   3  -9   12.27    0.87
  -2   3  -9   12.14    0.55
   2  -3  -9   11.86    0.74
   2  -3  -9   12.71    0.86
  -2   3  -9   11.19    0.84
   2   3   9   12.26    0.68
  -2  -4  -9   25.83    1.37
   2   4  -9   24.85    1.38
   2   4  -9   27.08    1.23
   2   4  -9   28.96    0.98
  -2   4   9   26.80    1.08
  -2  -4  -9   28.58    1.12
   2  -4  -9   27.34    1.19
   2   4   9   29.33    1.22
   2  -4  -9   29.08    1.44
  -2   4  -9   26.43    1.41
  -2   4  -9   28.09    1.27
  -2   5   9   41.40    1.58
   2   5  -9   44.33    1.95
   2   5  -9   43.27    1.76
  -2  -5  -9   42.89    1.49
  -2  -5  -9   41.50    1.91
   2   5   9   40.77    1.68
  -2   5  -9   39.11    1.73
   2  -5  -9   41.60    1.59
   2  -5  -9   40.56    1.89
  -2   5  -9   44.22    1.97
   2   6  -9    1.86    0.49
  -2   6   9    2.72    0.46
  -2  -6  -9    2.04    0.54
   2   6  -9    1.60    0.45
   2  -6  -9    1.85    0.35
   2   6   9    2.74    0.51
  -2   6  -9    2.02    0.52
  -2   6  -9    2.10    0.47
   2  -6  -9    3.47    0.68
   2   7  -9    7.86    0.92
  -2  -7  -9    7.88    0.99
   2   7  -9    9.12    1.04
  -2   7   9    8.40    0.81
  -2   7  -9    7.50    0.86
  -2   7  -9    9.07    1.03
   2  -7  -9    6.75    0.90
   2   8  -9   20.70    1.40
  -2   8   9   18.80    1.20
   2   8  -9   20.49    1.42
  -2  -8  -9   20.51    1.45
  -2   8  -9   20.07    1.42
  -2   8  -9   20.86    1.33
   2  -8  -9   21.06    1.42
  -2   9   9    0.69    0.45
   2   9  -9    1.26    0.55
   2   9  -9    0.56    0.48
  -2  -9  -9    0.84    0.50
  -2   9  -9    0.31    0.47
  -2   9  -9    0.30    0.44
   2  -9  -9    0.74    0.52
   2  10  -9    1.93    0.66
   2  10  -9    2.54    0.80
  -2 -10  -9    1.46    0.62
  -2  10  -9    2.67    0.78
   2 -10  -9    0.32    0.52
   2  10   9    2.19    0.68
  -2  10  -9    2.15    0.68
  -2 -11  -9    4.91    0.95
   2  11  -9    4.60    0.90
   2  11  -9    6.27    1.07
   2 -11  -9    3.90    0.92
   2  11   9    4.79    0.96
  -2  11  -9    7.27    1.14
  -2  11  -9    5.97    1.02
   2   0  10   14.68    0.79
  -2   0 -10   15.75    0.93
   2   0 -10   13.73    0.83
  -2   0  10   14.51    0.65
   2   0 -10   16.09    0.95
  -2   1  10    6.50    0.35
   2   1 -10    6.64    0.71
   2   1 -10    7.52    0.56
   2  -1  10    6.57    0.52
  -2  -1 -10    7.63    0.70
  -2  -1 -10    6.83    0.66
  -2  -1  10    6.55    0.43
   2  -1 -10    6.58    0.67
   2  -1 -10    6.57    0.67
   2   1  10    7.16    0.52
  -2   1 -10    6.61    0.72
  -2   1 -10    6.45    0.53
   2   2 -10    6.91    0.77
   2  -2  10    5.35    0.54
  -2  -2 -10    7.27    0.58
  -2  -2 -10    4.47    0.58
   2   2 -10    5.45    0.51
  -2   2  10    5.79    0.33
  -2   2 -10    5.38    0.49
   2  -2 -10    6.19    0.72
  -2   2 -10    6.27    0.70
   2  -2 -10    5.90    0.61
  -2  -2  10    5.29    0.47
   2   2  10    6.62    0.48
   2   3 -10   25.11    1.35
  -2  -3 -10   25.68    1.33
   2   3 -10   27.89    1.14
   2   3 -10   25.90    1.03
  -2  -3 -10   25.27    1.15
  -2   3  10   26.01    0.95
   2   3  10   24.21    1.08
   2  -3 -10   25.28    1.20
  -2   3 -10   24.58    1.37
   2  -3 -10   25.18    1.36
  -2   3 -10   25.58    0.98
  -2   4  10    4.78    0.44
  -2  -4 -10    4.29    0.69
  -2  -4 -10    4.68    0.49
   2   4 -10    3.08    0.57
   2  -4  10    3.89    0.52
   2   4 -10    3.17    0.47
  -2   4 -10    3.62    0.61
  -2   4 -10    3.36    0.50
   2   4  10    4.48    0.51
   2  -4 -10    3.45    0.63
   2  -4 -10    3.47    0.48
   2   5 -10    6.97    0.88
   2   5 -10    5.39    0.66
  -2  -5 -10    5.40    0.76
  -2  -5 -10    5.96    0.53
  -2   5  10    5.16    0.54
   2  -5 -10    5.56    0.77
   2  -5 -10    6.67    0.62
  -2   5 -10    5.79    0.79
  -2   5 -10    5.39    0.66
   2   5  10    6.20    0.64
   2   6 -10    9.45    0.90
  -2  -6 -10    6.56    0.85
   2   6 -10    8.51    0.98
  -2   6  10    9.06    0.69
  -2   6 -10    7.58    0.94
   2   6  10    7.88    0.82
   2  -6 -10    8.50    0.98
   2  -6 -10    7.91    0.62
  -2   6 -10    7.70    0.82
   2   7 -10    8.23    0.94
   2   7 -10    7.17    0.94
  -2  -7 -10    8.80    1.06
  -2   7 -10    9.22    0.94
   2   7  10    9.96    0.97
   2  -7 -10    9.42    1.11
  -2   7 -10    7.29    0.96
   2   8 -10    0.06    0.38
  -2  -8 -10    0.12    0.47
   2   8 -10    0.43    0.42
   2  -8 -10   -0.06    0.44
  -2   8 -10    0.00    0.38
   2   8  10    0.54    0.42
  -2   8 -10    0.56    0.53
   2   9 -10    7.18    1.06
   2   9 -10    6.54    0.98
  -2  -9 -10    7.57    1.11
   2  -9 -10    7.66    1.10
  -2   9 -10    7.18    0.96
  -2   9 -10    7.67    1.08
  -2 -10 -10   15.49    1.57
   2  10 -10   14.27    1.47
   2  10 -10   10.35    1.31
  -2  10 -10   12.60    1.31
   2 -10 -10   15.29    1.56
  -2  10 -10   14.17    1.50
  -2 -11 -10    0.22    0.57
   2  11 -10   -0.23    0.45
   2  11 -10   -0.35    0.50
  -2  11 -10    0.23    0.60
  -2  11 -10    0.25    0.55
   2 -11 -10    0.11    0.64
   2   0 -11   -0.28    0.27
   2   0 -11   -0.18    0.23
   2   0  11   -0.21    0.18
  -2   0 -11    0.06    0.29
  -2   0  11   -0.11    0.13
  -2   0 -11    0.06    0.17
   2   1 -11   24.05    1.32
  -2  -1 -11   25.69    1.27
  -2  -1 -11   26.48    1.28
   2  -1  11   25.01    1.14
   2   1 -11   25.40    1.17
  -2   1  11   23.11    0.87
  -2   1 -11   25.88    1.16
  -2  -1  11   25.67    1.00
   2  -1 -11   26.96    1.32
   2   1  11   24.97    1.10
   2  -1 -11   26.00    1.28
  -2   1 -11   22.90    1.28
  -2  -2 -11   12.17    0.81
   2   2 -11   14.37    0.77
  -2   2  11   12.68    0.54
  -2  -2 -11   14.31    0.96
   2   2 -11   12.66    0.95
   2  -2  11   12.22    0.76
   2   2  11   12.32    0.71
  -2   2 -11   12.41    0.93
   2  -2 -11   12.60    0.87
   2  -2 -11   10.74    0.87
  -2   2 -11   12.03    0.71
  -2  -2  11   12.02    0.67
   2   3 -11    6.57    0.81
  -2  -3 -11    6.05    0.61
   2   3 -11    5.97    0.49
  -2  -3 -11    5.41    0.71
   2   3 -11    6.80    0.60
   2   3  11    6.66    0.52
   2  -3 -11    5.93    0.77
   2  -3 -11    7.86    0.74
  -2   3 -11    6.16    0.46
  -2   3 -11    4.71    0.69
   2   4 -11   11.22    0.80
   2   4 -11   14.54    1.08
  -2  -4 -11   15.29    1.10
  -2  -4 -11   12.66    0.79
   2  -4  11   13.54    0.88
   2   4  11   13.79    0.80
  -2   4 -11   13.40    1.06
   2  -4 -11   14.41    1.05
   2  -4 -11   13.33    0.85
  -2  -5 -11   22.16    1.39
   2   5 -11   23.01    1.22
   2   5 -11   25.88    1.49
   2   5  11   22.85    1.17
  -2   5 -11   23.77    1.45
  -2   5 -11   23.30    1.23
   2  -5 -11   23.55    1.48
   2  -5 -11   23.83    1.17
  -2  -6 -11    3.73    0.76
   2   6 -11    3.39    0.59
   2   6 -11    2.77    0.65
   2   6  11    4.19    0.61
  -2   6 -11    4.23    0.64
  -2   6 -11    4.87    0.80
   2  -6 -11    4.31    0.76
   2   7 -11   11.36    1.25
  -2  -7 -11   11.66    1.24
   2   7 -11   12.02    1.12
  -2   7 -11   14.36    1.41
  -2   7 -11   11.31    1.11
   2   7  11   13.36    1.01
   2  -7 -11   11.28    1.24
   2   8 -11    8.84    1.15
  -2  -8 -11    8.80    1.17
   2   8 -11    8.61    1.01
   2  -8 -11   11.15    1.26
  -2   8 -11    7.72    0.95
  -2   8 -11   11.17    1.26
   2   9 -11    0.57    0.52
  -2  -9 -11    0.20    0.49
   2   9 -11   -0.01    0.47
  -2   9 -11    0.67    0.54
   2  -9 -11    1.01    0.61
  -2   9 -11    0.90    0.60
   2  10 -11    0.84    0.62
  -2 -10 -11    0.16    0.61
   2  10 -11    1.25    0.67
   2 -10 -11    0.95    0.69
  -2  10 -11    1.73    0.71
  -2  10 -11    1.23    0.67
  -2 -11 -11    4.55    1.02
   2  11 -11    3.61    0.88
   2  11 -11    2.56    0.83
  -2  11 -11    2.49    0.81
   2 -11 -11    2.18    0.85
  -2  11 -11    3.58    0.94
  -2   0 -12   58.14    2.31
   2   0 -12   56.75    2.20
   2   0  12   57.11    2.05
   2   0 -12   54.31    2.30
   2   1 -12    3.15    0.49
  -2  -1 -12    3.48    0.56
  -2  -1 -12    3.87    0.58
   2   1 -12    3.84    0.63
   2  -1  12    4.28    0.52
  -2  -1  12    3.98    0.42
   2  -1 -12    3.14    0.56
   2  -1 -12    3.87    0.62
  -2   1 -12    4.38    0.66
   2   1  12    3.90    0.48
  -2   1 -12    3.81    0.52
  -2  -2 -12   22.07    1.20
   2   2 -12   25.36    1.14
   2  -2  12   23.15    1.13
   2   2 -12   22.30    1.35
  -2  -2 -12   23.47    1.33
  -2   2 -12   24.99    1.11
  -2  -2  12   22.76    1.02
   2  -2 -12   23.07    1.30
   2  -2 -12   24.30    1.28
   2   2  12   23.38    1.04
  -2   2 -12   23.02    1.37
  -2  -3 -12   11.00    1.05
  -2  -3 -12   12.57    0.81
   2   3 -12    9.51    1.01
   2  -3  12   11.16    0.77
   2   3 -12   11.33    0.69
   2  -3 -12   12.11    1.11
   2  -3 -12   11.14    0.84
  -2  -3  12   10.85    0.71
   2   3  12   10.99    0.70
  -2   3 -12   10.32    1.04
   2   4 -12    0.21    0.30
   2   4 -12    0.49    0.40
  -2  -4 -12    0.16    0.35
  -2  -4 -12    0.67    0.30
   2  -4 -12   -0.36    0.33
  -2   4 -12    0.24    0.37
   2   4  12    0.43    0.27
   2  -4 -12    0.24    0.29
   2   5 -12   -0.04    0.41
  -2  -5 -12    0.22    0.42
   2   5 -12    0.67    0.39
   2  -5  12   -0.25    0.35
   2   5  12    0.18    0.29
  -2   5 -12    0.80    0.53
   2  -5 -12   -0.46    0.39
   2  -5 -12    0.43    0.33
  -2  -6 -12   12.80    1.31
   2   6 -12   10.02    0.94
   2   6 -12   11.65    1.27
  -2   6 -12   11.51    1.22
   2  -6 -12   10.65    1.19
  -2   6 -12   10.45    0.99
   2   7 -12    8.45    1.12
  -2  -7 -12    9.03    1.17
   2   7 -12    9.53    1.01
  -2   7 -12    8.23    1.15
   2  -7 -12    8.47    1.13
  -2   7 -12    7.94    0.95
  -2  -8 -12    0.71    0.62
   2   8 -12    0.29    0.50
   2   8 -12   -0.05    0.40
  -2   8 -12    0.13    0.48
   2  -8 -12    0.22    0.55
  -2   8 -12   -0.16    0.48
   2   9 -12    7.43    1.01
  -2  -9 -12    7.75    1.17
   2   9 -12    7.47    1.16
  -2   9 -12    6.53    1.08
   2  -9 -12    8.17    1.23
  -2   9 -12    5.68    0.95
   2  10 -12    4.81    0.94
   2  10 -12    6.29    1.11
  -2 -10 -12    6.55    1.19
   2 -10 -12    5.32    1.10
  -2  10 -12    5.86    1.09
  -2  10 -12    4.25    0.88
  -2   0 -13   -0.45    0.25
   2   0  13    0.16    0.24
   2   0 -13    0.40    0.42
  -2  -1 -13    5.44    0.70
  -2  -1 -13    4.26    0.65
   2   1 -13    4.48    0.73
   2  -1  13    5.14    0.59
   2   1 -13    5.67    0.66
   2  -1 -13    4.46    0.65
   2  -1 -13    5.71    0.70
   2   1  13    6.66    0.60
  -2   1 -13    4.37    0.71
  -2   1 -13    6.77    0.69
   2  -2  13   20.68    1.09
   2   2 -13   18.10    1.25
  -2  -2 -13   23.88    1.34
  -2  -2 -13   19.94    1.18
   2   2 -13   19.97    1.07
   2  -2 -13   21.80    1.25
  -2   2 -13   20.59    1.04
  -2   2 -13   21.16    1.35
   2   2  13   19.07    1.03
   2  -2 -13   21.29    1.30
  -2  -2  13   19.68    0.96
  -2  -3 -13    1.70    0.58
   2  -3  13    2.35    0.45
  -2  -3 -13    1.82    0.46
   2   3 -13    2.23    0.62
  -2  -3  13    3.31    0.49
   2  -3 -13    1.57    0.42
  -2   3 -13    2.44    0.59
   2  -3 -13    1.64    0.53
   2   4 -13    2.81    0.73
  -2  -4 -13    3.00    0.68
   2  -4 -13    2.71    0.64
   2  -4 -13    2.72    0.53
  -2  -4  13    3.70    0.54
  -2   4 -13    3.42    0.74
   2  -5  13   25.86    1.42
  -2  -5 -13   30.21    1.76
   2   5 -13   25.17    1.67
   2   5 -13   24.83    1.33
   2  -5 -13   26.60    1.65
  -2   5 -13   28.07    1.74
   2  -6  13    1.99    0.56
  -2  -6 -13    2.53    0.72
   2   6 -13    2.15    0.58
   2   6 -13    1.62    0.64
  -2   6 -13    1.26    0.60
   2  -6 -13    2.07    0.69
   2   7 -13    3.45    0.85
   2   7 -13    6.32    0.84
  -2  -7 -13    3.58    0.89
   2  -7  13    4.83    0.77
   2  -7 -13    4.60    0.91
  -2   7 -13    3.60    0.68
  -2   7 -13    6.39    1.01
  -2  -8 -13    6.52    1.08
   2   8 -13    7.08    1.10
   2   8 -13    7.83    0.97
  -2   8 -13    6.91    1.11
  -2   8 -13    6.18    0.93
   2  -8 -13    8.98    1.23
   2   9 -13    0.87    0.64
  -2  -9 -13    1.06    0.62
   2   9 -13    0.69    0.55
   2  -9 -13    1.91    0.81
  -2   9 -13    0.51    0.56
  -2   9 -13    0.51    0.56
   2  10 -13    0.76    0.65
   2  10 -13    0.03    0.60
  -2 -10 -13    0.13    0.60
   2 -10 -13    2.08    0.91
  -2  10 -13    0.94    0.66
  -2  10 -13    0.70    0.63
   2   0 -14    9.72    1.01
  -2   0 -14    9.84    1.00
   2  -1  14    3.15    0.50
  -2  -1 -14    2.98    0.61
   2   1 -14    2.39    0.62
   2   1 -14    2.36    0.52
  -2  -1 -14    3.73    0.65
  -2   1 -14    3.82    0.57
   2  -1 -14    2.30    0.54
   2  -1 -14    2.31    0.54
  -2   1 -14    2.04    0.54
   2   2 -14    0.83    0.40
  -2  -2 -14    1.03    0.51
   2  -2  14    0.96    0.38
  -2  -2 -14    1.20    0.46
   2   2 -14    1.65    0.57
  -2   2 -14    1.76    0.43
  -2   2 -14    0.94    0.50
   2  -2 -14    0.81    0.44
   2  -2 -14    1.81    0.57
  -2  -3 -14   14.41    1.05
  -2  -3 -14   17.89    1.29
   2   3 -14   16.59    1.31
   2  -3  14   14.88    0.96
   2  -3 -14   12.36    1.22
  -2   3 -14   13.50    1.28
   2  -3 -14   14.94    1.10
  -2  -4 -14    7.34    1.00
   2   4 -14    5.54    0.90
  -2  -4  14    6.80    0.74
   2  -4 -14    6.91    1.02
   2  -4 -14    6.13    0.79
  -2   4 -14    5.98    0.94
  -2  -5 -14    1.45    0.61
   2   5 -14    1.59    0.67
  -2  -5  14    1.97    0.52
   2  -5 -14    1.86    0.66
  -2   5 -14    2.10    0.72
   2   6 -14    3.83    0.87
   2  -6  14    4.45    0.74
   2   6 -14    4.43    0.70
  -2  -6 -14    4.85    0.89
  -2   6 -14    3.63    0.83
   2  -6 -14    4.80    0.95
   2   7 -14    2.72    0.82
   2   7 -14    2.47    0.62
  -2  -7 -14    2.68    0.77
   2  -7  14    2.33    0.66
   2  -7 -14    2.10    0.81
  -2   7 -14    2.88    0.82
  -2  -8 -14    0.09    0.53
   2   8 -14    0.19    0.51
   2   8 -14   -0.07    0.49
   2  -8  14    0.04    0.51
   2  -8 -14    0.29    0.69
  -2   8 -14    0.73    0.60
  -2  -9 -14    2.17    0.87
   2   9 -14    3.00    0.94
   2   9 -14    4.07    0.87
  -2   9 -14    3.48    0.78
   2  -9 -14    5.40    1.10
  -2   9 -14    4.17    1.02
  -2   0 -15   -0.42    0.36
   2   0 -15   -0.25    0.39
   2   1 -15    8.98    0.89
  -2  -1 -15    8.54    0.97
  -2  -1 -15    8.70    0.96
   2   1 -15   10.01    1.12
  -2   1 -15    8.86    0.87
   2  -1 -15    9.40    1.02
   2  -1 -15    7.35    0.88
  -2   1 -15    6.56    0.91
  -2  -2 -15   12.37    1.12
   2   2 -15    9.61    1.11
  -2  -2 -15    9.41    1.07
   2  -2 -15   10.23    1.10
  -2   2 -15    8.65    1.06
   2  -2 -15   11.16    1.11
   2   3 -15   -0.07    0.50
  -2  -3 -15    0.67    0.53
  -2  -3 -15    0.21    0.38
   2  -3  15    0.44    0.36
  -2   3 -15    0.16    0.41
   2  -3 -15    0.59    0.53
   2  -3 -15   -0.37    0.35
   2   4 -15    5.16    0.92
   2  -4  15    5.24    0.70
  -2  -4 -15    7.68    1.05
  -2   4 -15    4.35    0.84
   2  -4 -15    4.32    0.88
   2  -4 -15    5.14    0.74
  -2  -5 -15   10.00    1.26
   2   5 -15    7.14    1.08
  -2   5 -15   10.94    1.28
   2  -5 -15    9.94    1.28
   2  -6  15    0.70    0.47
  -2  -6 -15    2.09    0.82
   2   6 -15    1.07    0.68
   2  -6 -15    1.49    0.75
  -2   6 -15    1.66    0.72
   2   7 -15    4.41    1.03
   2  -7  15    5.03    0.89
   2   7 -15    3.81    0.74
  -2  -7 -15    4.31    0.95
   2  -7 -15    3.55    0.96
  -2   7 -15    2.43    0.83
   2  -8  15    4.97    0.96
  -2  -8 -15    6.39    1.19
   2   8 -15    6.22    0.91
   2   8 -15    4.08    1.01
  -2   8 -15    5.48    1.09
   2  -8 -15    7.22    1.22
   2  -9  15    0.76    0.63
   2   9 -15    0.54    0.75
  -2  -9 -15    0.89    0.77
   2   9 -15    0.64    0.60
  -2   9 -15   -0.18    0.61
   2  -9 -15    0.05    0.76
  -2   0 -16   20.30    1.43
   2   0 -16   20.25    1.45
   2   1 -16    1.19    0.48
  -2  -1 -16    1.53    0.56
   2   1 -16    0.94    0.58
  -2  -1 -16    1.92    0.59
   2  -1 -16    1.51    0.55
   2  -1 -16    0.95    0.56
  -2   1 -16    1.60    0.51
  -2   1 -16    0.79    0.50
  -2  -2 -16    7.11    0.90
  -2  -2 -16    7.26    0.95
   2   2 -16    6.69    1.01
  -2   2 -16    6.03    0.97
   2  -2 -16    7.30    1.03
   2  -2 -16    6.88    0.92
  -2  -3 -16    4.05    0.70
  -2  -3 -16    1.73    0.65
   2   3 -16    3.75    0.83
   2  -3 -16    3.54    0.81
  -2   3 -16    3.46    0.79
   2  -3 -16    3.36    0.68
   2   4 -16    0.99    0.56
  -2  -4 -16    2.20    0.76
  -2   4 -16    0.92    0.58
   2  -4 -16    1.07    0.63
   2  -4 -16    1.19    0.53
   2   5 -16    0.14    0.56
  -2  -5 -16   -0.32    0.57
   2  -5 -16    0.16    0.57
  -2   5 -16    0.03    0.52
  -2  -6 -16    3.17    0.94
   2   6 -16    2.61    0.83
   2  -6 -16    3.34    0.92
  -2   6 -16    2.71    0.79
   2  -7  16    4.53    0.85
   2   7 -16    2.65    0.84
  -2  -7 -16    5.88    1.08
   2  -7 -16    3.62    1.01
  -2   7 -16    4.20    0.98
  -2  -8 -16    0.56    0.75
   2   8 -16   -0.54    0.52
   2  -8  16    1.34    0.69
   2  -8 -16   -0.75    0.71
  -2   8 -16    0.19    0.67
   2   0 -17   -0.16    0.49
  -2   0 -17   -0.22    0.45
  -2  -1 -17    3.62    0.78
  -2  -1 -17    3.14    0.72
   2   1 -17    1.76    0.64
   2  -1 -17    3.65    0.76
  -2   1 -17    2.44    0.69
   2  -1 -17    1.48    0.61
  -2  -2 -17    1.52    0.65
  -2  -2 -17    3.90    0.74
   2   2 -17    3.45    0.86
   2  -2 -17    3.18    0.78
  -2   2 -17    2.98    0.80
   2  -2 -17    2.07    0.64
  -2  -3 -17    0.42    0.59
   2   3 -17    0.31    0.59
  -2  -3 -17    0.12    0.45
   2  -3 -17   -0.16    0.54
   2  -3 -17    0.22    0.48
  -2   3 -17    0.44    0.60
  -2  -4 -17    1.96    0.76
   2   4 -17    2.68    0.84
   2  -4 -17    1.43    0.69
  -2   4 -17    2.26    0.75
   2   5 -17    5.12    1.03
  -2  -5 -17    5.81    1.10
   2  -5 -17    4.16    0.91
  -2   5 -17    4.14    0.95
   2   6 -17    1.48    0.72
  -2  -6 -17   -0.35    0.62
   2  -6 -17   -0.02    0.59
  -2   6 -17    1.19    0.70
  -2  -7 -17    1.56    0.89
   2   7 -17    2.27    0.91
   2  -7 -17    1.23    0.75
  -2   7 -17    1.20    0.79
   2   0 -18    8.67    1.14
  -2   0 -18    8.51    1.15
  -2  -1 -18    3.57    0.79
   2   1 -18    1.99    0.70
  -2  -1 -18    2.08    0.68
   2  -1 -18    1.24    0.57
   2  -1 -18    3.08    0.76
  -2   1 -18    0.74    0.64
  -2  -2 -18    1.18    0.63
   2   2 -18   -0.04    0.51
  -2  -2 -18    0.80    0.55
   2  -2 -18    0.99    0.58
   2  -2 -18    0.30    0.54
  -2   2 -18   -0.23    0.57
  -2  -3 -18    8.24    1.15
   2   3 -18    4.83    0.96
  -2   3 -18    4.02    0.97
   2  -3 -18    6.38    1.07
   2  -3 -18    5.78    0.94
   2   4 -18    0.98    0.66
  -2  -4 -18    0.68    0.62
  -2   4 -18    1.52    0.76
   2  -4 -18    1.73    0.72
   2   5 -18   -0.29    0.52
  -2  -5 -18    0.11    0.57
   2  -5 -18   -0.77    0.50
  -2   5 -18    0.13    0.62
   2   6 -18    1.97    0.85
  -2  -6 -18    2.45    0.97
  -2   6 -18    1.98    0.87
   2  -6 -18    2.43    0.97
   2   7 -18    4.09    1.13
  -2   7 -18    3.81    1.04
   2   0 -19    0.41    0.63
  -2   0 -19    0.38    0.55
  -2  -1 -19    3.31    0.81
  -2  -1 -19    2.04    0.74
   2   1 -19    2.42    0.80
  -2   1 -19    3.02    0.86
   2  -1 -19    2.00    0.72
   2  -1 -19    3.43    0.86
  -2  -2 -19    1.48    0.64
  -2  -2 -19    1.70    0.74
   2   2 -19    1.65    0.72
   2  -2 -19    2.37    0.79
  -2   2 -19    2.84    0.87
   2  -2 -19    2.04    0.70
   2   3 -19    0.24    0.65
  -2  -3 -19   -0.55    0.60
   2  -3 -19   -0.08    0.61
   2  -3 -19   -0.40    0.47
  -2   3 -19   -0.06    0.59
  -2  -4 -19    0.52    0.77
   2   4 -19    0.99    0.72
   2  -4 -19    0.24    0.76
  -2   4 -19    0.48    0.63
  -2  -5 -19    2.97    0.98
   2   5 -19    2.72    0.90
  -2   5 -19    2.41    0.94
   2  -5 -19    4.28    1.04
   2   0 -20    3.30    0.91
  -2   0 -20    3.40    0.88
  -2  -1 -20    0.93    0.66
   2   1 -20    1.75    0.83
  -2   1 -20    1.38    0.72
   2  -1 -20    1.28    0.70
  -2  -2 -20   -0.02    0.58
   2   2 -20    0.40    0.57
   2  -2 -20    0.35    0.65
   2  -2 -20    0.70    0.65
  -2   2 -20    0.92    0.75
   2   3 -20    1.39    0.77
  -2  -3 -20    4.47    1.04
   2  -3 -20    4.01    1.01
  -2   3 -20    2.86    0.89
   2   4 -20    0.75    0.77
  -2  -4 -20    2.72    0.98
   2  -4 -20    0.37    0.79
  -2   4 -20    1.26    0.77
   2   0 -21   -0.25    0.61
  -2   0 -21   -0.20    0.64
   2   1 -21    1.43    0.82
  -2  -1 -21    0.50    0.69
  -2   1 -21    1.18    0.81
   2  -1 -21    0.32    0.70
   3   0   0   -0.11    0.06
   3  -1   0   43.35    1.30
   3   1   0   41.98    1.31
   3   1   0   42.58    1.25
  -3  -2   0   90.30    2.69
   3   2   0   94.32    2.60
   3   2   0   92.64    2.75
  -3   2   0   89.79    2.71
   3   3   0    5.47    0.40
   3   3   0    6.07    0.29
  -3  -3   0    6.16    0.35
  -3   3   0    5.04    0.38
   3   4   0   29.38    1.02
  -3   4   0   31.74    1.23
   3   4   0   30.75    1.26
  -3  -4   0   30.62    1.13
  -3   5   0   52.66    1.95
   3  -5   0   51.89    1.79
   3   5   0   52.99    2.00
   3   5   0   53.57    1.69
  -3  -5   0   53.52    1.81
  -3   6   0    0.76    0.32
   3  -6   0    0.44    0.19
   3   6   0    0.49    0.16
   3   6   0    0.42    0.27
  -3  -6   0    0.36    0.20
  -3   7   0   54.16    2.26
   3   7   0   59.69    1.93
   3   7   0   57.15    2.32
  -3  -7   0   55.42    2.04
   3  -7   0   54.96    2.01
   3  -8   0   56.92    2.06
  -3   8   0   53.91    2.31
  -3  -8   0   54.27    2.05
   3   8   0   55.93    2.39
   3  -9   0    2.70    0.48
  -3  -9   0    1.76    0.43
   3   9   0    2.08    0.59
  -3   9   0    1.79    0.59
   3  10   0   26.49    1.68
  -3  10   0   22.87    1.57
  -3  11   0    5.29    0.93
   3  11   0    6.21    1.06
   3  12   0    2.61    0.83
  -3  12   0    2.45    0.81
   3  13   0    0.58    0.74
  -3  13   0    0.22    0.71
  -3   0   1  370.15   10.44
   3   0  -1  378.62   10.41
   3   0  -1  393.27   10.43
  -3  -1  -1   63.99    1.90
   3  -1   1   63.88    1.90
   3   1  -1   62.07    1.87
   3   1   1   62.10    1.90
   3  -1  -1   64.98    1.84
   3   2  -1    0.60    0.16
  -3  -2  -1    0.46    0.06
   3   2  -1    0.11    0.09
  -3  -2  -1    0.41    0.12
   3   2   1    0.45    0.06
  -3   2  -1    0.34    0.13
   3   2   1    0.69    0.15
   3   3  -1  167.77    5.02
   3   3  -1  167.84    4.85
  -3  -3  -1  171.58    4.97
  -3  -3  -1  177.51    4.71
  -3   3   1  170.64    4.96
  -3   3  -1  165.96    4.99
   3   3   1  168.55    5.02
  -3  -3   1  171.15    4.88
   3   3   1  179.68    4.71
  -3  -4  -1    1.47    0.25
  -3   4   1    2.13    0.31
   3   4  -1    1.69    0.30
   3   4  -1    1.93    0.24
  -3   4  -1    1.90    0.32
   3   4   1    1.47    0.29
  -3  -4   1    2.46    0.26
   3   4   1    1.72    0.16
  -3  -5  -1   46.18    1.63
   3   5  -1   40.40    1.71
  -3   5   1   41.66    1.67
   3   5  -1   46.76    1.54
   3  -5   1   44.33    1.51
   3  -5  -1   45.33    1.62
   3   5   1   46.10    1.39
  -3   5  -1   45.00    1.72
  -3  -5   1   43.63    1.51
   3   5   1   42.82    1.73
   3   6  -1    3.80    0.39
   3   6  -1    3.86    0.55
   3  -6   1    4.37    0.42
  -3   6   1    3.48    0.52
  -3  -6  -1    2.69    0.40
  -3  -6   1    4.49    0.43
   3   6   1    4.53    0.60
   3  -6  -1    4.29    0.46
  -3   6  -1    3.73    0.52
   3  -7   1   60.98    2.11
   3   7  -1   62.47    2.49
  -3   7   1   63.50    2.42
  -3  -7  -1   59.48    2.22
   3   7  -1   61.23    2.09
   3   7   1   60.66    2.46
  -3   7  -1   64.55    2.45
  -3  -7   1   62.07    2.13
   3  -7  -1   64.22    2.25
  -3  -8  -1    7.90    0.75
  -3   8   1    7.58    0.86
   3  -8   1    8.83    0.63
   3   8  -1    8.54    0.98
   3   8   1    9.37    1.02
  -3  -8   1    7.53    0.60
   3  -8  -1    8.76    0.79
  -3   8  -1    8.25    0.93
   3   9  -1   13.13    1.30
  -3  -9  -1   15.68    1.02
  -3   9   1   17.48    1.25
  -3  -9   1   18.01    0.96
  -3   9  -1   16.64    1.27
   3  -9  -1   17.98    1.04
   3   9   1   15.04    1.21
   3  10  -1   30.73    1.88
  -3 -10  -1   33.11    1.60
  -3  10   1   33.11    1.85
   3  10   1   31.60    1.89
  -3  10  -1   32.12    1.85
   3  11  -1    1.96    0.72
  -3  11   1    0.10    0.52
   3  11   1    0.94    0.55
  -3  11  -1    0.73    0.58
   3  12  -1   12.92    1.62
  -3  12   1   12.64    1.47
   3  12   1   16.27    1.74
  -3  12  -1   13.64    1.54
  -3  13   1    4.84    1.10
   3  13  -1    2.89    0.99
  -3  13  -1    6.73    1.20
   3  13   1    5.74    1.18
   3   0  -2   -0.21    0.04
  -3   0   2   -0.17    0.05
  -3   0  -2   -0.27    0.07
  -3   0  -2    0.40    0.11
   3   0  -2   -0.19    0.08
   3   0   2   -0.31    0.07
   3  -1   2   20.11    0.74
   3   1  -2   19.17    0.68
  -3  -1  -2   19.86    0.63
  -3  -1  -2   20.09    0.74
  -3   1   2   19.27    0.62
   3   1  -2   19.40    0.73
  -3   1  -2   19.82    0.74
   3  -1  -2   18.45    0.70
   3   1   2   20.25    0.63
   3  -1  -2   19.31    0.62
   3   1   2   19.12    0.72
   3   2  -2  326.18    9.48
  -3  -2  -2  354.91    9.55
  -3   2   2  354.33    9.41
   3   2   2  330.18    9.48
  -3   2  -2  331.33    9.44
  -3   2  -2  340.92    9.49
  -3  -3  -2   57.74    1.87
   3   3  -2   53.28    1.80
   3   3  -2   55.61    1.88
  -3   3  -2   57.82    1.87
  -3   3  -2   55.85    1.87
   3   3   2   57.28    1.88
   3   4  -2   69.11    2.19
  -3  -4  -2   67.70    2.24
  -3   4   2   68.51    2.24
   3   4  -2   68.30    2.32
   3   4   2   67.22    2.30
  -3  -4   2   67.30    2.07
  -3   4  -2   68.50    2.30
  -3   4  -2   67.70    2.24
   3  -5   2   80.87    2.40
  -3   5   2   78.52    2.64
   3   5  -2   76.91    2.52
  -3  -5  -2   77.32    2.60
   3   5  -2   79.65    2.73
  -3   5  -2   79.75    2.61
   3   5   2   81.31    2.73
  -3  -5   2   78.26    2.41
   3  -5  -2   75.82    2.60
  -3   5  -2   78.48    2.70
   3   6  -2   -0.02    0.21
  -3   6   2   -0.12    0.19
   3   6  -2    0.02    0.15
  -3  -6  -2    0.11    0.19
   3  -6   2    0.15    0.15
  -3   6  -2    0.00    0.25
   3   6   2   -0.07    0.22
  -3  -6   2    0.16    0.14
   3  -6  -2   -0.05    0.17
   3   7  -2   19.18    0.96
   3   7  -2   20.70    1.24
   3  -7   2   19.65    0.87
  -3  -7  -2   20.92    1.08
  -3   7   2   18.02    1.13
   3   7   2   19.67    1.18
  -3   7  -2   17.94    1.15
   3  -7  -2   19.62    1.05
  -3  -7   2   20.54    0.89
  -3  -8  -2   12.26    0.84
   3   8  -2    9.64    0.70
  -3   8   2   11.88    1.09
   3   8  -2   10.90    1.11
   3  -8   2   10.09    0.63
  -3   8  -2   10.80    1.04
   3  -8  -2   10.94    0.81
  -3  -8   2   11.79    0.67
   3   8   2   10.03    1.01
  -3  -9  -2    0.57    0.37
   3   9  -2    1.18    0.53
  -3   9   2    2.49    0.61
   3   9   2    1.17    0.49
   3  -9  -2    0.91    0.37
  -3   9  -2    1.07    0.53
   3  10  -2    2.65    0.75
  -3 -10  -2    3.17    0.63
  -3  10   2    2.29    0.70
   3 -10  -2    3.91    0.65
   3  10   2    2.98    0.78
  -3  10  -2    2.03    0.69
  -3  11   2    8.21    1.14
   3  11  -2    9.20    1.26
  -3  11  -2    7.43    1.11
   3  11   2   10.16    1.33
  -3  12   2    1.98    0.82
   3  12  -2    1.70    0.82
  -3  12  -2    1.85    0.77
   3  12   2    2.46    0.89
   3  13  -2    0.67    0.68
  -3  13   2    0.16    0.67
  -3  13  -2   -0.03    0.63
   3  13   2   -0.05    0.66
  -3   0  -3  100.67    2.94
   3   0  -3  103.31    2.80
   3   0  -3  100.80    2.97
  -3   0   3  101.41    2.80
   3   0   3   97.96    2.99
  -3  -1  -3  144.11    4.09
   3  -1   3  138.05    4.05
   3   1  -3  135.46    3.97
   3   1  -3  145.80    4.08
  -3  -1  -3  142.92    3.94
   3   1   3  139.42    4.05
  -3   1  -3  137.31    3.94
  -3   1  -3  140.28    4.06
   3  -1  -3  138.48    4.01
   3  -1  -3  141.44    3.87
  -3  -2  -3   49.46    1.66
   3   2  -3   47.45    1.63
  -3   2   3   51.76    1.52
  -3  -2  -3   49.86    1.41
   3   2  -3   50.12    1.61
   3   2   3   50.31    1.42
   3  -2  -3   48.35    1.56
  -3   2  -3   46.53    1.64
   3   2   3   48.91    1.61
  -3   2  -3   50.10    1.63
  -3  -3  -3   69.56    2.30
  -3   3   3   71.13    2.19
   3   3  -3   69.34    2.28
   3   3  -3   69.06    2.26
  -3   3  -3   70.21    2.30
   3  -3  -3   70.98    2.15
   3   3   3   72.52    2.28
  -3   3  -3   71.57    2.29
   3   4  -3   24.16    1.08
  -3  -4  -3   24.85    1.07
   3   4   3   24.03    1.08
  -3   4  -3   24.44    1.06
  -3   4  -3   24.83    1.08
   3   5  -3    0.07    0.25
  -3  -5  -3    0.14    0.22
  -3   5   3   -0.06    0.20
   3  -5   3    0.09    0.12
   3   5  -3    0.14    0.21
  -3   5  -3    0.05    0.22
   3  -5  -3   -0.07    0.21
  -3   5  -3   -0.09    0.20
   3   5   3   -0.14    0.18
  -3   6   3   15.45    0.89
   3   6  -3   16.41    0.86
  -3  -6  -3   14.77    0.88
  -3  -6  -3   15.86    0.53
   3  -6   3   16.47    0.66
   3   6  -3   16.08    0.98
  -3   6  -3   14.62    0.93
  -3   6  -3   15.33    0.89
   3   6   3   15.03    0.95
   3  -6  -3   14.98    0.89
  -3  -6   3   15.90    0.68
   3  -7   3   13.47    0.63
   3   7  -3   12.37    0.96
  -3  -7  -3   13.98    0.89
   3   7  -3   12.97    0.81
  -3   7   3   14.02    0.94
  -3   7  -3   12.26    0.93
   3   7   3   12.62    0.96
  -3  -7   3   13.80    0.67
   3  -7  -3   13.83    0.90
  -3   7  -3   13.93    0.88
   3   8  -3    4.05    0.71
   3   8  -3    4.31    0.55
  -3   8   3    4.58    0.69
  -3  -8  -3    5.25    0.69
  -3  -8   3    4.98    0.46
   3   8   3    6.16    0.81
   3  -8  -3    4.81    0.66
  -3   8  -3    5.85    0.81
   3   9  -3    8.34    0.78
  -3  -9  -3    7.64    0.85
  -3   9   3    9.24    1.03
   3   9  -3    8.48    1.06
   3   9   3    7.71    0.97
  -3   9  -3    8.50    0.99
   3  -9  -3    7.19    0.82
  -3 -10  -3   18.53    1.25
  -3  10   3   21.22    1.43
   3  10  -3   19.87    1.48
   3  10   3   22.25    1.52
  -3  10  -3   17.73    1.46
   3 -10  -3   21.10    1.31
  -3 -11  -3    1.71    0.56
  -3  11   3    0.14    0.51
   3  11  -3    1.35    0.65
   3  11   3    1.38    0.67
  -3  11  -3    0.49    0.52
   3  12  -3   12.20    1.53
  -3  12   3   14.00    1.56
   3  12   3   12.96    1.58
  -3  12  -3   15.35    1.66
  -3  13   3    6.88    1.17
   3  13  -3    7.82    1.33
   3  13   3    7.51    1.29
  -3  13  -3    8.65    1.39
   3   0  -4   -0.19    0.04
  -3   0  -4   -0.08    0.09
  -3   0   4   -0.17    0.04
   3   0   4   -0.07    0.11
  -3   0  -4    0.02    0.11
   3   0  -4   -0.18    0.10
  -3  -1  -4    1.00    0.15
   3  -1   4    0.58    0.15
   3   1  -4    0.50    0.16
  -3  -1  -4    0.59    0.16
   3   1  -4    0.65    0.13
   3  -1  -4    0.47    0.16
   3   1   4    0.55    0.15
  -3   1  -4    0.78    0.13
  -3   1  -4    0.83    0.19
   3   2  -4  212.46    6.11
  -3   2   4  218.16    5.98
  -3  -2  -4  221.89    5.94
   3   2  -4  208.36    6.17
  -3  -2  -4  215.47    6.23
  -3   2  -4  209.88    6.19
   3  -2  -4  213.32    6.07
  -3   2  -4  218.38    6.15
   3   2   4  213.42    6.13
   3   3  -4   12.76    0.69
  -3   3   4   12.73    0.58
   3   3  -4   12.80    0.67
  -3  -3  -4   13.71    0.44
   3  -3   4   13.52    0.42
  -3  -3  -4   12.47    0.70
   3  -3  -4   13.21    0.60
  -3   3  -4   12.50    0.66
   3   3   4   12.91    0.66
  -3   3  -4   12.94    0.71
  -3   4   4   19.56    0.84
   3   4  -4   18.85    0.91
   3   4  -4   18.56    0.92
  -3  -4  -4   17.72    0.91
   3  -4  -4   18.02    0.77
  -3   4  -4   18.22    0.93
   3   4   4   18.94    0.91
  -3   4  -4   18.52    0.91
  -3  -5  -4  167.66    5.13
   3   5  -4  166.49    5.10
   3   5  -4  164.87    5.16
   3  -5   4  172.73    4.65
   3  -5  -4  167.40    5.15
   3   5   4  160.07    5.11
  -3   5  -4  168.57    5.11
  -3   5  -4  165.36    5.13
   3  -5  -4  165.76    4.83
  -3  -6  -4   11.80    0.81
   3   6  -4   10.93    0.84
  -3   6   4   11.98    0.78
   3  -6   4   12.58    0.48
   3  -6  -4   11.48    0.80
   3   6   4   12.08    0.83
  -3   6  -4   13.87    0.85
   3  -6  -4   12.43    0.63
  -3   6  -4   11.24    0.82
  -3   7   4   38.05    1.66
  -3  -7  -4   35.13    1.62
   3   7  -4   36.80    1.59
   3   7  -4   34.10    1.70
  -3   7  -4   36.96    1.73
   3   7   4   36.04    1.71
   3  -7  -4   35.03    1.63
  -3   7  -4   37.20    1.64
   3   8  -4   29.52    1.41
  -3   8   4   26.89    1.50
  -3  -8  -4   31.10    1.52
   3   8  -4   26.49    1.57
  -3   8  -4   31.21    1.51
   3  -8  -4   32.50    1.55
   3   8   4   30.04    1.61
  -3   8  -4   31.68    1.64
   3   9  -4    3.65    0.58
   3   9  -4    3.70    0.74
  -3   9   4    3.99    0.75
  -3  -9  -4    3.96    0.66
   3   9   4    3.99    0.74
  -3   9  -4    4.48    0.76
   3  -9  -4    3.33    0.62
  -3  10   4    8.60    1.09
  -3 -10  -4    7.09    0.93
   3  10  -4    7.35    1.06
  -3  10  -4    6.89    0.99
   3 -10  -4    9.10    1.00
   3  10   4    8.13    1.08
  -3 -11  -4    5.10    0.79
  -3  11   4    3.33    0.81
   3  11  -4    2.20    0.70
  -3  11  -4    2.33    0.67
   3  11   4    3.64    0.90
   3 -11  -4    3.47    0.73
   3  12  -4    7.07    1.24
  -3  12   4    7.52    1.23
   3  12   4    6.24    1.15
  -3  12  -4    7.84    1.23
  -3   0   5   10.87    0.38
   3   0  -5   11.20    0.37
   3   0  -5   11.12    0.59
  -3   0  -5   11.74    0.58
   3   1  -5    2.86    0.22
  -3  -1  -5    2.70    0.32
   3  -1   5    3.27    0.33
   3   1  -5    3.17    0.36
  -3  -1  -5    3.58    0.28
  -3   1  -5    3.94    0.39
  -3   1  -5    3.04    0.24
   3  -1  -5    3.31    0.35
   3  -2   5   37.34    1.34
  -3   2   5   37.70    1.16
  -3  -2  -5   38.47    1.23
   3   2  -5   37.65    1.31
   3   2  -5   38.59    1.44
  -3  -2  -5   37.28    1.41
  -3   2  -5   36.76    1.16
  -3   2  -5   36.68    1.43
   3  -2  -5   38.72    1.34
  -3  -3  -5   45.22    1.69
   3  -3   5   46.57    1.31
  -3   3   5   44.55    1.48
   3   3  -5   43.43    1.60
  -3  -3  -5   46.51    1.38
   3   3  -5   46.71    1.70
  -3   3  -5   46.69    1.64
  -3   3  -5   45.12    1.71
   3   3   5   43.03    1.58
   3  -3  -5   44.66    1.53
  -3  -4  -5    0.23    0.08
   3   4  -5    0.25    0.20
  -3   4   5    0.23    0.17
   3   4  -5    0.26    0.21
  -3  -4  -5    0.39    0.25
   3  -4  -5    0.40    0.16
   3   4   5    0.07    0.19
  -3   4  -5   -0.27    0.15
  -3   4  -5   -0.07    0.19
  -3  -5  -5   22.04    1.17
   3   5  -5   24.05    1.19
  -3   5   5   25.30    1.10
   3   5  -5   22.81    1.15
   3  -5  -5   25.65    0.99
  -3   5  -5   26.25    1.21
  -3   5  -5   23.57    1.20
   3   5   5   25.38    1.19
   3  -5  -5   23.03    1.19
  -3  -6  -5    9.57    0.87
   3   6  -5    9.40    0.90
   3   6  -5    9.74    0.86
   3  -6  -5    8.16    0.53
   3  -6  -5    9.81    0.78
  -3   6  -5    9.02    0.74
  -3   6  -5   10.11    0.77
   3   6   5   10.15    0.79
  -3   7   5    9.94    0.78
   3   7  -5    9.44    0.94
  -3  -7  -5   10.58    0.95
   3  -7  -5    8.63    0.58
   3  -7  -5   10.54    0.86
  -3   7  -5    7.63    0.80
   3   7   5    9.50    0.95
  -3   7  -5    8.87    0.88
   3   8  -5   -0.32    0.31
  -3   8   5   -0.35    0.28
  -3  -8  -5    0.26    0.36
  -3   8  -5    0.01    0.35
   3   8   5    0.26    0.37
  -3   8  -5   -0.29    0.28
   3  -8  -5    0.03    0.34
  -3  -9  -5   25.91    1.50
   3   9  -5   26.93    1.67
   3   9  -5   25.50    1.41
  -3   9   5   27.10    1.55
   3  -9  -5   27.08    1.52
  -3   9  -5   26.48    1.49
   3   9   5   29.22    1.67
  -3   9  -5   25.55    1.56
  -3 -10  -5   20.47    1.41
  -3  10   5   23.23    1.52
   3  10  -5   26.67    1.68
   3  10   5   22.47    1.55
   3 -10  -5   22.50    1.44
  -3  10  -5   21.45    1.52
   3  11  -5    0.50    0.50
  -3 -11  -5    0.38    0.46
  -3  11   5   -0.16    0.48
   3 -11  -5    0.49    0.47
   3  11   5    0.67    0.56
  -3  11  -5   -0.39    0.41
   3  12  -5   13.06    1.58
  -3 -12  -5    9.71    1.31
  -3  12   5    9.74    1.32
   3  12   5   10.65    1.44
  -3  12  -5   13.33    1.50
  -3   0   6   -0.11    0.05
   3   0  -6    0.02    0.15
  -3   0   6   -0.03    0.05
  -3   0  -6   -0.05    0.09
  -3   0  -6    0.03    0.13
   3   1  -6   44.88    1.59
   3  -1   6   40.26    1.47
  -3  -1  -6   43.14    1.46
   3   1  -6   42.41    1.33
  -3  -1  -6   41.52    1.51
  -3   1  -6   40.87    1.54
  -3   1  -6   41.85    1.40
   3  -1  -6   41.11    1.51
   3   1   6   40.81    1.47
  -3  -2  -6   34.81    1.36
   3   2  -6   35.58    1.40
  -3  -2  -6   34.59    1.18
  -3   2   6   33.45    1.04
   3   2  -6   33.56    1.21
   3  -2   6   32.28    1.27
  -3   2  -6   31.11    1.35
   3   2   6   34.16    1.25
   3  -2  -6   34.86    1.28
  -3   2  -6   33.88    1.10
   3   3  -6   18.12    0.85
  -3   3   6   18.27    0.71
  -3  -3  -6   16.70    0.90
   3   3  -6   16.42    0.91
  -3  -3  -6   18.41    0.69
  -3   3  -6   17.68    0.85
   3  -3  -6   17.50    0.80
  -3   3  -6   17.11    0.94
   3   4  -6   41.14    1.59
  -3   4   6   42.16    1.45
   3   4  -6   39.84    1.65
  -3  -4  -6   40.78    1.26
  -3  -4  -6   39.43    1.64
   3  -4  -6   41.87    1.45
  -3   4  -6   40.15    1.58
   3   4   6   37.17    1.53
   3  -4  -6   41.02    1.68
  -3   4  -6   39.75    1.67
  -3  -5  -6   57.74    1.67
   3   5  -6   54.83    2.17
  -3   5   6   57.37    2.02
  -3  -5  -6   58.09    2.21
   3   5  -6   59.69    2.19
  -3   5  -6   57.33    2.15
  -3   5  -6   54.40    2.19
   3  -5  -6   57.41    1.93
   3  -5  -6   61.77    2.27
   3   5   6   58.42    2.14
   3   6  -6    5.19    0.66
   3   6  -6    6.18    0.70
  -3   6   6    4.55    0.56
  -3  -6  -6    6.41    0.75
   3  -6  -6    5.54    0.71
   3   6   6    6.24    0.71
  -3   6  -6    4.68    0.65
  -3   6  -6    4.71    0.61
   3  -6  -6    5.38    0.43
   3   7  -6   10.52    0.85
   3   7  -6    9.25    0.94
  -3  -7  -6   11.83    0.90
   3  -7  -6    9.49    0.95
   3  -7  -6   10.07    0.62
   3   7   6   11.78    0.92
  -3   7  -6   11.11    0.90
  -3   7  -6   10.73    0.88
  -3  -8  -6   34.61    1.74
   3   8  -6   34.96    1.78
   3   8  -6   34.17    1.82
  -3   8  -6   32.24    1.71
   3   8   6   36.66    1.81
  -3   8  -6   34.52    1.71
   3  -8  -6   34.86    1.77
  -3  -9  -6   -0.08    0.39
  -3   9   6    0.12    0.39
   3   9  -6    0.71    0.48
  -3   9  -6    0.33    0.39
   3   9   6   -0.10    0.40
   3  -9  -6    0.23    0.36
  -3   9  -6    0.00    0.40
   3  10  -6    0.45    0.58
  -3 -10  -6    0.26    0.47
  -3  10   6    1.21    0.58
   3  10  -6    0.61    0.42
  -3  10  -6    0.32    0.47
   3  10   6    0.82    0.56
   3 -10  -6    0.36    0.46
  -3  11   6    7.68    1.09
   3  11  -6    8.06    1.21
  -3 -11  -6    5.38    0.89
  -3  11  -6    6.11    1.01
   3  11   6    8.27    1.21
   3 -11  -6    9.45    1.15
  -3  12   6    4.60    0.99
  -3 -12  -6    5.70    0.99
   3  12  -6    6.02    1.14
   3 -12  -6    3.98    0.82
  -3  12  -6    3.26    0.89
   3  12   6    6.52    1.15
  -3   0   7  269.61    7.18
   3   0  -7  259.94    7.52
  -3   0  -7  260.70    7.46
   3   0   7  247.26    7.45
   3   1  -7    2.08    0.22
  -3  -1  -7    1.72    0.29
  -3  -1  -7    1.01    0.26
   3   1  -7    1.55    0.34
   3   1   7    1.60    0.30
  -3   1  -7    2.76    0.39
  -3   1  -7    1.74    0.26
   3  -1  -7    1.89    0.31
  -3   2   7   65.05    1.91
   3  -2   7   62.67    2.18
   3   2  -7   68.88    2.12
  -3  -2  -7   67.49    2.13
  -3  -2  -7   63.43    2.28
   3   2  -7   65.25    2.34
   3  -2  -7   67.58    2.23
  -3   2  -7   67.49    2.04
  -3   2  -7   67.03    2.34
   3   2   7   64.74    2.17
  -3  -3  -7   37.89    1.58
   3   3  -7   37.62    1.44
   3   3  -7   36.92    1.60
  -3   3   7   39.09    1.28
  -3  -3  -7   40.38    1.33
  -3   3  -7   38.11    1.48
   3   3   7   41.81    1.47
  -3   3  -7   35.73    1.58
   3  -3  -7   39.16    1.44
  -3  -4  -7    5.66    0.35
   3   4  -7    5.33    0.55
   3   4  -7    4.24    0.55
  -3   4   7    6.26    0.43
  -3  -4  -7    5.16    0.59
   3  -4  -7    6.46    0.46
  -3   4  -7    4.94    0.53
  -3   4  -7    5.95    0.67
   3  -4  -7    7.86    0.77
   3   4   7    3.15    0.42
  -3  -5  -7    0.00    0.27
   3   5  -7    0.51    0.35
  -3   5   7    0.12    0.22
  -3  -5  -7    0.53    0.14
   3   5  -7    0.42    0.30
   3  -5  -7    0.01    0.30
   3  -5  -7    0.37    0.22
  -3   5  -7    0.27    0.29
  -3   5  -7    0.05    0.30
   3   5   7    0.50    0.25
  -3   6   7   11.23    0.76
   3   6  -7   10.95    0.86
   3   6  -7   10.57    0.83
  -3  -6  -7   12.43    0.91
   3   6   7   13.32    0.90
  -3   6  -7   11.26    0.87
   3  -6  -7   12.50    0.69
   3  -6  -7   11.04    0.91
  -3   6  -7   11.61    0.92
  -3   7   7   17.38    1.04
   3   7  -7   15.47    1.11
   3   7  -7   18.29    1.16
  -3  -7  -7   17.32    1.18
  -3   7  -7   18.55    1.19
  -3   7  -7   19.12    1.18
   3  -7  -7   17.58    0.87
   3  -7  -7   16.15    1.18
   3   7   7   18.50    1.16
   3   8  -7   -0.42    0.31
   3   8  -7    0.03    0.36
  -3  -8  -7    0.04    0.38
  -3   8  -7    0.09    0.37
   3   8   7    0.03    0.36
   3  -8  -7    0.65    0.45
  -3   8  -7   -0.20    0.34
   3   9  -7    7.55    0.92
   3   9  -7    8.48    1.04
  -3  -9  -7    7.69    0.96
   3  -9  -7    9.93    1.09
  -3   9  -7   11.77    1.17
  -3   9  -7    7.09    0.95
   3   9   7    8.55    1.06
  -3  10   7   12.67    1.27
  -3 -10  -7   11.89    1.25
   3  10  -7   11.16    1.32
   3  10   7   15.66    1.51
  -3  10  -7   12.20    1.27
  -3  10  -7   14.07    1.40
   3 -10  -7   13.37    1.35
  -3 -11  -7   -0.47    0.40
   3  11  -7    0.33    0.61
  -3  11   7    0.25    0.51
   3  11   7    0.12    0.53
   3 -11  -7    0.22    0.51
  -3  11  -7    0.04    0.54
   3  12  -7    5.29    1.08
  -3 -12  -7    6.09    1.08
  -3  12   7    7.25    1.17
  -3  12  -7    7.83    1.24
   3  12   7    6.10    1.15
   3 -12  -7    6.29    1.04
  -3   0   8   -0.03    0.08
  -3   0  -8   -0.14    0.15
   3   0   8   -0.04    0.15
  -3   0  -8   -0.11    0.12
   3   0  -8    0.21    0.21
   3   1  -8   65.90    2.00
  -3  -1  -8   66.50    2.28
   3   1  -8   65.73    2.35
  -3  -1  -8   66.72    2.24
  -3   1   8   66.21    1.85
   3  -1  -8   66.01    2.29
   3   1   8   63.81    2.21
  -3   1  -8   67.78    2.16
  -3   1  -8   63.43    2.31
   3   2  -8   21.04    0.86
  -3  -2  -8   20.47    0.92
   3   2  -8   20.22    1.07
   3  -2   8   20.23    0.95
  -3  -2  -8   19.50    1.02
  -3   2   8   20.12    0.68
   3  -2  -8   21.20    1.00
   3   2   8   20.94    0.93
  -3   2  -8   21.78    0.84
  -3   2  -8   21.58    1.09
  -3  -3  -8   18.88    0.85
   3   3  -8   18.50    0.90
   3  -3   8   20.51    0.97
  -3  -3  -8   19.06    1.05
  -3   3   8   20.80    0.76
   3   3  -8   21.22    1.14
  -3   3  -8   21.05    1.13
   3  -3  -8   20.62    0.96
   3  -3  -8   20.07    1.09
   3   3   8   19.90    0.93
  -3   3  -8   19.70    0.71
  -3  -4  -8    7.03    0.73
   3   4  -8    8.68    0.84
  -3  -4  -8    8.38    0.47
   3   4  -8    6.69    0.63
  -3   4   8    7.55    0.48
  -3   4  -8    6.83    0.64
   3  -4  -8    7.13    0.54
   3   4   8    7.39    0.57
   3  -4  -8    7.80    0.78
  -3   4  -8    8.55    0.81
  -3   5   8   46.93    1.69
  -3  -5  -8   47.60    1.50
   3   5  -8   45.10    1.98
  -3  -5  -8   46.02    1.98
   3   5  -8   47.54    1.88
   3  -5  -8   45.77    1.69
   3  -5  -8   45.96    2.00
  -3   5  -8   45.95    2.00
  -3   5  -8   47.81    1.88
   3   5   8   41.36    1.79
   3   6  -8   21.24    1.25
   3   6  -8   20.80    1.18
  -3   6   8   17.84    0.99
  -3  -6  -8   17.73    1.16
  -3   6  -8   18.98    1.12
   3  -6  -8   19.47    1.21
   3  -6  -8   18.78    0.92
  -3   6  -8   18.76    1.20
   3   7  -8   20.17    1.29
  -3  -7  -8   19.49    1.31
   3   7  -8   20.63    1.31
  -3   7   8   21.51    1.16
   3   7   8   22.37    1.33
   3  -7  -8   19.50    1.34
  -3   7  -8   20.58    1.34
  -3   7  -8   20.24    1.26
   3   8  -8   17.70    1.27
  -3  -8  -8   15.39    1.22
  -3   8   8   16.21    1.09
   3   8  -8   13.67    1.13
  -3   8  -8   16.36    1.23
   3  -8  -8   16.65    1.23
   3   8   8   14.05    1.13
  -3   8  -8   15.62    1.15
  -3   9   8    0.57    0.44
  -3  -9  -8    0.40    0.47
   3   9  -8    0.19    0.39
   3   9  -8    0.33    0.46
  -3   9  -8   -0.01    0.42
   3   9   8    0.10    0.42
  -3   9  -8    0.42    0.45
   3  -9  -8    0.84    0.51
   3  10  -8    2.80    0.70
   3  10  -8    3.27    0.87
  -3 -10  -8    5.25    0.95
  -3  10  -8    2.38    0.71
   3  10   8    4.31    0.84
   3 -10  -8    3.62    0.81
  -3  10  -8    3.88    0.82
   3  11  -8    3.68    0.86
  -3 -11  -8    2.77    0.80
   3 -11  -8    3.05    0.81
  -3  11  -8    2.74    0.79
  -3  11  -8    2.81    0.72
   3  11   8    3.28    0.85
   3  12  -8    3.28    0.92
  -3 -12  -8    2.74    0.80
   3 -12  -8    3.16    0.85
  -3  12  -8    1.27    0.75
   3  12   8    3.68    0.97
  -3   0  -9   23.76    1.12
   3   0  -9   23.63    1.17
   3   0   9   22.24    1.04
  -3   0   9   22.39    0.81
   3  -1   9   23.86    1.06
   3   1  -9   22.62    1.17
  -3  -1  -9   24.01    1.10
  -3   1   9   23.45    0.72
  -3  -1  -9   22.94    1.11
  -3  -1   9   23.10    0.87
  -3   1  -9   23.28    1.00
   3   1   9   22.84    1.04
   3  -1  -9   24.80    1.15
  -3   1  -9   22.19    1.14
  -3   2   9   23.16    0.77
  -3  -2  -9   25.08    1.21
   3   2  -9   23.70    0.95
  -3  -2  -9   25.18    1.09
   3   2  -9   22.62    1.22
   3   2   9   25.53    1.07
  -3   2  -9   23.97    1.23
  -3   2  -9   25.44    0.99
   3  -2  -9   24.17    1.14
   3   3  -9   26.47    1.34
  -3  -3  -9   26.27    1.08
  -3  -3  -9   25.11    1.27
   3  -3   9   26.15    1.17
   3   3  -9   25.80    1.09
  -3   3   9   24.96    0.90
   3  -3  -9   25.43    1.16
  -3   3  -9   22.50    1.28
   3  -3  -9   23.94    1.27
   3   3   9   25.66    1.12
  -3   3  -9   26.18    0.92
  -3  -4  -9    2.92    0.35
   3   4  -9    1.64    0.44
  -3   4   9    3.03    0.34
   3   4  -9    3.00    0.45
  -3  -4  -9    2.33    0.50
   3  -4   9    3.26    0.49
   3  -4  -9    3.74    0.47
   3   4   9    4.38    0.51
  -3   4  -9    2.08    0.48
  -3   4  -9    2.74    0.46
   3  -4  -9    2.88    0.55
  -3   5   9    0.03    0.19
   3   5  -9    0.08    0.28
   3   5  -9    0.10    0.29
  -3  -5  -9    0.09    0.17
  -3  -5  -9   -0.44    0.27
  -3   5  -9   -0.19    0.24
   3  -5  -9   -0.09    0.29
   3  -5  -9    0.25    0.22
   3   5   9    0.14    0.25
  -3   5  -9    0.35    0.39
   3   6  -9   16.34    1.15
  -3  -6  -9   14.66    1.08
   3   6  -9   15.41    1.04
  -3   6   9   15.85    0.90
  -3   6  -9   16.25    1.16
   3  -6  -9   15.52    1.11
   3  -6  -9   16.09    0.87
  -3   6  -9   15.54    1.05
   3   7  -9   16.80    1.23
  -3  -7  -9   15.88    1.18
   3   7  -9   15.10    1.13
  -3   7   9   13.14    0.92
  -3   7  -9   15.93    1.22
  -3   7  -9   16.02    1.13
   3  -7  -9   14.21    1.16
   3   8  -9    1.39    0.52
  -3  -8  -9    1.17    0.54
  -3   8   9    1.44    0.46
   3   8  -9    1.63    0.55
  -3   8  -9    1.10    0.54
  -3   8  -9    1.20    0.55
   3  -8  -9    1.63    0.57
  -3  -9  -9    8.38    1.08
   3   9  -9    8.21    1.08
   3   9  -9    9.43    1.12
  -3   9  -9   11.81    1.27
   3   9   9   11.05    1.19
   3  -9  -9    8.69    1.12
  -3   9  -9    9.18    1.11
   3  10  -9   10.34    1.26
  -3 -10  -9   12.88    1.40
   3  10  -9   13.87    1.37
   3  10   9   14.92    1.44
   3 -10  -9   13.26    1.45
  -3  10  -9   12.79    1.36
  -3  10  -9   14.40    1.43
  -3 -11  -9    0.12    0.55
   3  11  -9    0.61    0.67
  -3  11  -9    0.13    0.52
  -3  11  -9    0.63    0.59
   3 -11  -9   -0.18    0.56
   3  11   9   -0.52    0.50
   3   0 -10   -0.24    0.26
  -3   0 -10    0.00    0.25
   3   0  10    0.16    0.20
  -3   0  10   -0.21    0.11
  -3  -1 -10    8.31    0.65
  -3   1  10    8.08    0.33
   3  -1  10    7.90    0.59
   3   1 -10    7.43    0.74
  -3  -1 -10    6.73    0.67
   3  -1 -10    7.61    0.72
  -3  -1  10    7.27    0.44
   3   1  10    8.18    0.59
  -3   1 -10    8.11    0.58
  -3   1 -10    9.07    0.73
  -3   2  10   23.91    0.76
  -3  -2 -10   24.97    1.13
   3   2 -10   23.27    0.96
  -3  -2 -10   22.71    1.22
   3   2 -10   22.50    1.25
  -3   2 -10   23.47    1.26
   3   2  10   23.75    1.06
   3  -2 -10   23.14    1.22
  -3   2 -10   23.89    1.00
   3  -2 -10   22.87    1.16
  -3   3  10    2.74    0.26
   3  -3  10    2.30    0.42
  -3  -3 -10    2.25    0.51
  -3  -3 -10    2.59    0.39
   3   3 -10    2.62    0.53
   3   3 -10    2.74    0.40
   3   3  10    3.38    0.44
  -3   3 -10    2.65    0.32
  -3   3 -10    2.45    0.50
   3  -3 -10    2.83    0.45
   3  -3 -10    2.99    0.56
   3   4 -10   15.73    0.88
   3  -4  10   14.96    0.93
   3   4 -10   14.36    1.05
  -3  -4 -10   15.47    0.80
  -3  -4 -10   14.40    1.06
   3  -4 -10   13.47    1.01
   3  -4 -10   18.09    0.94
  -3   4 -10   14.89    1.09
   3   4  10   15.67    0.87
  -3  -5 -10   34.21    1.72
   3   5 -10   36.86    1.58
  -3   5  10   35.95    1.45
   3   5 -10   33.71    1.75
  -3   5 -10   33.87    1.77
   3   5  10   31.87    1.50
   3  -5 -10   35.74    1.78
   3  -5 -10   33.19    1.45
  -3   5 -10   35.19    1.56
  -3  -6 -10    0.22    0.36
   3   6 -10    0.45    0.41
   3   6 -10    0.04    0.32
   3   6  10    0.34    0.32
   3  -6 -10    0.13    0.36
   3  -6 -10   -0.14    0.24
  -3   6 -10    0.14    0.32
  -3   6 -10    0.28    0.40
   3   7 -10   13.62    1.31
   3   7 -10   13.21    1.08
  -3  -7 -10   11.68    1.20
   3  -7 -10   13.22    1.32
  -3   7 -10   12.52    1.01
  -3   7 -10   12.66    1.22
   3   7  10   10.03    1.05
   3   8 -10   14.71    1.43
  -3  -8 -10   14.99    1.46
   3   8 -10   12.73    1.23
  -3   8 -10   15.65    1.26
  -3   8 -10   15.62    1.20
   3  -8 -10   13.76    1.37
  -3  -9 -10    0.15    0.54
   3   9 -10    0.05    0.47
   3   9 -10    1.04    0.57
  -3   9 -10    0.52    0.49
   3  -9 -10    0.19    0.45
  -3   9 -10    0.16    0.42
   3  10 -10    1.13    0.65
   3  10 -10    2.09    0.70
  -3 -10 -10    0.24    0.54
   3  10  10    1.33    0.57
  -3  10 -10    1.83    0.67
  -3  10 -10    1.00    0.64
   3 -10 -10    1.14    0.63
  -3 -11 -10    6.33    1.15
   3  11 -10    5.63    1.00
   3  11 -10    5.52    1.05
  -3  11 -10    3.76    0.87
  -3  11 -10    7.34    1.17
   3 -11 -10    5.59    1.09
   3   0 -11   73.00    2.72
  -3   0 -11   75.98    2.69
   3   0 -11   75.12    2.64
  -3   0  11   71.53    2.23
   3   0  11   72.62    2.53
   3   1 -11    2.73    0.52
   3  -1  11    2.64    0.44
   3   1 -11    3.03    0.45
  -3  -1 -11    3.48    0.52
  -3  -1 -11    2.69    0.47
  -3  -1  11    2.39    0.30
   3   1  11    2.68    0.41
  -3   1 -11    1.85    0.44
   3  -1 -11    3.47    0.55
   3  -1 -11    2.81    0.50
  -3   1 -11    2.56    0.42
   3  -2  11   19.89    1.03
   3   2 -11   20.61    1.22
  -3  -2 -11   19.33    1.04
  -3  -2 -11   18.81    1.14
   3  -2 -11   19.05    1.14
   3  -2 -11   20.28    1.10
  -3  -2  11   18.95    0.88
  -3   2 -11   20.05    0.93
  -3   2 -11   19.05    1.17
   3   2  11   20.90    0.99
   3   3 -11   15.33    1.08
   3  -3  11   13.09    0.85
   3   3 -11   15.38    0.82
   3   3 -11   13.77    0.76
  -3  -3 -11   15.14    0.87
  -3  -3 -11   16.76    1.07
   3   3  11   15.62    0.85
   3  -3 -11   14.20    0.91
   3  -3 -11   14.81    1.03
  -3   3 -11   13.30    1.04
  -3   3 -11   16.08    0.73
   3  -4  11    1.81    0.44
   3   4 -11    2.29    0.58
   3   4 -11    2.04    0.41
  -3  -4 -11    0.75    0.41
  -3  -4 -11    1.54    0.33
   3  -4 -11    1.37    0.38
   3  -4 -11    2.27    0.55
   3   4  11    1.45    0.35
  -3   4 -11    0.85    0.42
  -3  -5 -11    0.28    0.39
   3   5 -11    0.15    0.31
   3   5 -11    0.30    0.39
   3  -5  11    0.02    0.33
   3  -5 -11    0.16    0.24
  -3   5 -11    0.34    0.44
   3  -5 -11   -0.06    0.35
   3   5  11    0.33    0.28
   3   6 -11   17.45    1.31
  -3  -6 -11   17.97    1.27
   3   6 -11   15.78    1.08
  -3   6 -11   17.03    1.29
   3   6  11   16.57    1.08
   3  -6 -11   16.04    1.26
  -3   6 -11   16.79    1.13
  -3  -7 -11    7.92    1.03
   3   7 -11    6.97    0.88
   3   7 -11    7.26    0.99
   3   7  11    7.69    0.89
  -3   7 -11    6.18    0.81
   3  -7 -11    5.52    0.91
  -3   7 -11    7.19    1.00
  -3  -8 -11   -0.52    0.48
   3   8 -11   -0.14    0.40
   3   8 -11   -0.47    0.44
   3  -8 -11   -0.45    0.46
  -3   8 -11   -0.05    0.44
  -3   8 -11    0.30    0.47
   3   8  11   -0.03    0.37
  -3  -9 -11    5.70    1.03
   3   9 -11    7.58    1.15
   3   9 -11    6.82    0.98
  -3   9 -11    4.56    0.88
  -3   9 -11    4.87    0.96
   3  -9 -11    5.24    0.94
  -3 -10 -11   10.69    1.38
   3  10 -11    6.09    1.02
   3  10 -11    7.96    1.17
  -3  10 -11    7.93    1.09
   3 -10 -11    7.05    1.18
  -3  10 -11    8.74    1.23
   3  11 -11   -0.23    0.58
  -3 -11 -11   -1.31    0.48
   3  11 -11   -0.50    0.52
  -3  11 -11    0.46    0.53
   3 -11 -11   -0.60    0.54
  -3  11 -11    0.65    0.60
   3   0 -12   -0.08    0.29
   3   0 -12   -0.67    0.28
   3   0  12   -0.06    0.22
  -3   0 -12   -0.19    0.29
  -3  -1 -12   18.90    1.13
   3  -1  12   19.04    1.02
   3   1 -12   21.50    1.11
   3   1 -12   19.97    1.25
  -3  -1 -12   20.76    1.15
  -3   1 -12   20.56    1.04
  -3  -1  12   19.27    0.84
   3   1  12   17.30    0.97
   3  -1 -12   19.25    1.15
   3  -1 -12   17.91    1.12
  -3   1 -12   18.24    1.16
   3   2 -12   15.64    1.12
  -3  -2 -12   12.91    0.99
   3   2 -12   13.76    0.84
   3  -2  12   13.83    0.88
  -3  -2 -12   12.64    0.91
   3   2  12   12.79    0.78
   3  -2 -12   13.53    0.94
   3  -2 -12   13.99    1.03
  -3   2 -12   13.60    1.02
  -3  -2  12   13.72    0.72
  -3   2 -12   13.50    0.80
   3   3 -12    0.40    0.38
   3   3 -12    0.99    0.29
  -3  -3 -12    0.81    0.42
  -3  -3 -12    0.52    0.30
   3  -3 -12    1.22    0.50
   3  -3 -12    0.77    0.34
  -3   3 -12    0.39    0.37
  -3  -3  12    1.00    0.28
   3   3  12    0.57    0.27
   3  -4  12    0.90    0.35
  -3  -4 -12    0.48    0.39
   3   4 -12    0.52    0.32
  -3  -4 -12    0.59    0.31
   3   4 -12    0.16    0.35
  -3   4 -12    0.61    0.40
   3  -4 -12    0.07    0.41
   3  -4 -12    0.04    0.29
   3   4  12    0.59    0.30
  -3  -5 -12   27.99    1.67
   3   5 -12   28.95    1.71
   3   5 -12   31.59    1.44
   3  -5  12   31.41    1.55
   3   5  12   28.44    1.39
   3  -5 -12   26.97    1.38
  -3   5 -12   27.51    1.69
   3  -5 -12   30.58    1.75
   3  -6  12    2.44    0.59
   3   6 -12    3.27    0.72
  -3  -6 -12    3.76    0.74
   3   6 -12    5.04    0.70
   3  -6 -12    5.70    0.88
  -3   6 -12    4.02    0.82
   3   6  12    5.57    0.73
   3   7 -12    7.56    1.06
  -3  -7 -12   11.75    1.32
   3   7 -12    9.10    1.01
  -3   7 -12    9.36    1.16
  -3   7 -12    8.39    0.99
   3  -7 -12    8.91    1.17
   3   8 -12    6.81    0.91
  -3  -8 -12    7.71    1.13
   3   8 -12    9.33    1.24
  -3   8 -12    9.93    1.25
  -3   8 -12    7.98    1.01
   3  -8 -12    9.69    1.21
  -3  -9 -12    0.03    0.56
   3   9 -12    0.39    0.53
   3   9 -12   -0.69    0.47
   3  -9 -12    0.36    0.62
  -3   9 -12   -0.06    0.51
  -3   9 -12   -0.27    0.44
   3  10 -12   -0.01    0.58
   3  10 -12    1.21    0.70
  -3 -10 -12    1.16    0.70
   3 -10 -12    0.65    0.66
  -3  10 -12   -0.12    0.56
  -3  10 -12    0.39    0.62
   3   0 -13   17.51    1.06
  -3   0 -13   14.45    1.03
   3   0 -13   15.36    1.13
   3   0  13   17.38    0.96
  -3  -1 -13    4.40    0.67
   3   1 -13    4.26    0.68
  -3  -1 -13    4.91    0.70
   3  -1  13    4.18    0.56
   3   1 -13    6.30    0.69
  -3   1 -13    3.51    0.62
   3  -1 -13    4.80    0.68
   3  -1 -13    4.27    0.66
  -3   1 -13    4.50    0.58
   3   1  13    5.77    0.61
   3   2 -13    4.17    0.74
  -3  -2 -13    2.31    0.54
   3   2 -13    3.97    0.55
  -3  -2 -13    3.40    0.58
   3  -2  13    4.51    0.58
  -3   2 -13    4.23    0.72
   3  -2 -13    3.23    0.60
  -3   2 -13    3.72    0.52
   3  -2 -13    3.29    0.65
   3   2  13    3.75    0.49
   3   3 -13   11.51    1.19
  -3  -3 -13   13.34    1.19
  -3  -3 -13   10.29    0.82
  -3   3 -13   11.80    1.18
   3  -3 -13    9.79    1.03
   3  -3 -13   12.28    0.94
   3   3  13   10.23    0.73
  -3  -3  13   11.39    0.74
   3   4 -13   14.44    1.36
  -3  -4 -13    9.80    1.09
   3   4 -13   12.25    0.85
   3  -4 -13   11.66    0.93
  -3   4 -13   11.81    1.21
   3  -4 -13   12.13    1.23
   3   5 -13    2.10    0.51
   3  -5  13    2.35    0.58
   3   5 -13    2.61    0.68
  -3  -5 -13    2.99    0.76
   3  -5 -13    2.69    0.71
  -3   5 -13    2.71    0.69
   3   6 -13    5.43    0.74
   3   6 -13    4.65    0.90
  -3  -6 -13    6.76    1.00
   3  -6  13    5.30    0.78
  -3   6 -13    4.61    0.86
   3  -6 -13    5.24    0.97
   3   7 -13    3.60    0.89
  -3  -7 -13    3.16    0.85
   3   7 -13    3.80    0.71
   3  -7  13    4.95    0.82
   3  -7 -13    5.03    0.93
   3   8 -13    0.98    0.61
   3   8 -13   -0.20    0.44
   3  -8  13   -0.47    0.44
  -3  -8 -13   -0.84    0.50
   3  -8 -13    0.70    0.64
  -3   8 -13    0.05    0.53
  -3   8 -13   -0.41    0.46
   3   9 -13    4.20    0.95
   3   9 -13    4.12    0.86
  -3  -9 -13    3.75    0.89
  -3   9 -13    4.62    0.86
   3  -9 -13    3.60    0.95
  -3   9 -13    3.42    0.89
   3  10 -13    6.11    1.14
   3  10 -13    5.48    0.99
  -3 -10 -13    4.51    1.00
   3 -10 -13    3.45    0.95
  -3  10 -13    6.29    1.18
  -3  10 -13    5.32    0.93
   3   0  14    0.07    0.26
  -3   0 -14   -0.14    0.34
   3   0 -14    0.14    0.39
   3   1 -14    2.90    0.66
  -3  -1 -14    3.20    0.60
   3  -1  14    2.50    0.48
   3   1 -14    2.53    0.50
  -3  -1 -14    2.37    0.57
  -3   1 -14    3.34    0.55
   3  -1 -14    2.72    0.57
   3  -1 -14    1.36    0.50
  -3   1 -14    2.17    0.56
   3   2 -14   18.81    1.36
  -3  -2 -14   19.91    1.30
   3   2 -14   19.02    1.09
   3  -2  14   19.13    1.08
  -3  -2 -14   17.59    1.15
   3  -2 -14   18.03    1.28
   3  -2 -14   16.48    1.18
  -3   2 -14   18.37    1.33
  -3  -3 -14   12.25    1.19
  -3  -3 -14   10.60    0.98
   3  -3  14    9.80    0.91
   3   3 -14    8.32    1.05
  -3   3 -14    8.53    1.05
   3  -3 -14    9.85    0.99
   3  -3 -14    9.75    1.12
  -3  -4 -14   21.46    1.49
   3   4 -14   20.26    1.51
  -3   4 -14   18.63    1.41
   3  -4 -14   23.16    1.32
   3  -4 -14   23.72    1.58
  -3  -5 -14   12.51    1.30
   3   5 -14   14.74    1.47
   3   5 -14   13.41    0.99
   3  -5  14   16.38    1.12
  -3   5 -14   11.41    1.27
   3  -5 -14   12.49    0.98
   3  -5 -14   12.89    1.35
  -3  -6 -14    0.66    0.53
   3  -6  14    0.72    0.47
   3   6 -14    0.99    0.46
   3   6 -14    1.06    0.65
   3  -6 -14    0.12    0.55
  -3   6 -14    0.05    0.47
   3   7 -14    2.58    0.76
   3  -7  14    4.51    0.80
   3   7 -14    3.37    0.69
  -3  -7 -14    2.67    0.81
   3  -7 -14    3.73    0.88
  -3   7 -14    5.27    1.03
   3   8 -14    3.53    0.93
   3   8 -14    3.73    0.76
  -3  -8 -14    5.43    1.08
   3  -8  14    2.45    0.75
   3  -8 -14    3.61    0.95
  -3   8 -14    4.68    1.01
   3  -9  14    0.60    0.64
   3   9 -14    1.43    0.72
  -3  -9 -14    1.37    0.75
   3   9 -14    2.01    0.67
  -3   9 -14    1.47    0.72
   3  -9 -14    1.95    0.86
   3   0 -15   14.67    1.33
  -3   0 -15    9.67    1.08
  -3  -1 -15    1.11    0.47
   3   1 -15    1.35    0.59
   3   1 -15    2.46    0.54
  -3  -1 -15    1.82    0.56
  -3   1 -15    1.09    0.43
   3  -1 -15    0.59    0.40
   3  -1 -15    1.39    0.52
  -3   1 -15    0.77    0.52
   3   2 -15    3.43    0.75
   3  -2  15    3.69    0.58
  -3  -2 -15    2.56    0.66
  -3  -2 -15    3.46    0.62
   3  -2 -15    3.36    0.69
  -3   2 -15    3.77    0.80
   3  -2 -15    4.69    0.82
   3   3 -15    9.26    1.16
  -3  -3 -15   11.21    1.16
  -3  -3 -15   10.13    0.98
   3  -3  15    8.49    0.88
   3  -3 -15   10.01    1.03
  -3   3 -15    8.97    1.11
   3  -3 -15   11.78    1.22
   3   4 -15    0.24    0.52
  -3  -4 -15    0.42    0.50
   3  -4  15    0.13    0.39
   3  -4 -15    0.03    0.38
   3  -4 -15    0.44    0.53
  -3   4 -15    0.07    0.51
   3   5 -15    0.61    0.52
  -3  -5 -15    0.95    0.65
   3  -5 -15   -1.10    0.41
  -3   5 -15   -0.09    0.53
   3   6 -15    2.14    0.80
   3  -6  15    3.77    0.73
  -3  -6 -15    4.81    0.99
  -3   6 -15    2.08    0.72
   3  -6 -15    4.04    0.92
   3   7 -15    0.74    0.69
  -3  -7 -15    2.33    0.85
   3  -7  15    1.90    0.62
  -3   7 -15    2.86    0.89
   3  -7 -15    0.65    0.69
  -3  -8 -15   -0.14    0.69
   3   8 -15    0.14    0.50
   3   8 -15   -0.43    0.52
   3  -8  15    0.87    0.61
  -3   8 -15   -0.20    0.61
   3  -8 -15    0.09    0.63
  -3  -9 -15    0.95    0.81
   3   9 -15    2.12    0.73
   3  -9  15    2.09    0.77
   3   9 -15    0.92    0.80
  -3   9 -15    1.94    0.89
   3  -9 -15    1.97    0.87
   3   0 -16    0.12    0.48
  -3   0 -16   -0.89    0.40
  -3  -1 -16    6.83    0.93
  -3  -1 -16    9.09    1.02
   3   1 -16    7.61    1.03
   3   1 -16    8.13    0.92
  -3   1 -16    9.38    1.14
   3  -1 -16    9.04    1.07
   3  -1 -16    8.20    1.01
   3   2 -16    4.24    0.83
  -3  -2 -16    5.67    0.81
  -3  -2 -16    4.12    0.79
  -3   2 -16    3.28    0.75
   3  -2 -16    4.79    0.81
   3  -2 -16    6.23    0.92
  -3  -3 -16   -0.32    0.45
  -3  -3 -16    0.16    0.38
   3   3 -16   -0.39    0.44
   3  -3 -16   -0.09    0.46
  -3   3 -16   -0.34    0.42
   3  -3 -16   -0.44    0.37
   3   4 -16    0.30    0.58
  -3  -4 -16    1.13    0.65
   3  -4 -16    0.86    0.49
  -3   4 -16    1.21    0.66
   3  -4 -16    0.92    0.60
  -3  -5 -16   11.66    1.39
   3   5 -16    8.36    1.19
  -3   5 -16    8.47    1.20
   3  -5 -16    8.97    1.21
  -3  -6 -16    0.26    0.59
   3   6 -16    0.37    0.59
   3  -6  16    0.17    0.48
   3  -6 -16    0.29    0.59
  -3   6 -16    0.71    0.60
  -3  -7 -16    4.12    0.98
   3   7 -16    3.44    0.98
   3  -7  16    2.79    0.74
   3  -7 -16    3.94    1.05
  -3   7 -16    2.70    0.91
   3  -8  16    6.09    1.03
  -3  -8 -16    3.81    0.98
   3   8 -16    6.08    1.22
   3  -8 -16    4.46    1.17
  -3   8 -16    4.13    1.01
   3   0 -17   10.47    1.19
  -3   0 -17    9.95    1.16
  -3  -1 -17    2.23    0.67
  -3  -1 -17    1.93    0.62
   3   1 -17    2.66    0.76
   3  -1 -17    1.57    0.61
   3  -1 -17    3.99    0.82
  -3   1 -17    1.87    0.64
  -3  -2 -17    0.72    0.56
   3   2 -17    2.04    0.70
  -3  -2 -17    1.99    0.60
   3  -2 -17    1.59    0.66
   3  -2 -17    1.54    0.58
  -3   2 -17    0.89    0.62
   3   3 -17    4.80    0.96
  -3  -3 -17    4.51    0.95
  -3   3 -17    4.41    0.88
   3  -3 -17    4.65    0.81
   3  -3 -17    4.06    0.94
  -3  -4 -17    2.09    0.82
   3   4 -17    2.04    0.75
   3  -4 -17    3.87    0.95
   3  -4 -17    2.44    0.65
  -3   4 -17    2.94    0.86
  -3  -5 -17   -0.51    0.57
   3   5 -17    0.73    0.67
   3  -5 -17   -0.03    0.56
  -3   5 -17   -0.28    0.49
  -3  -6 -17    2.53    0.86
   3   6 -17    3.80    0.98
   3  -6 -17    3.39    0.93
  -3   6 -17    3.27    0.90
  -3  -7 -17    5.26    1.16
   3   7 -17    2.94    0.91
   3  -7 -17    4.71    1.11
  -3   7 -17    3.07    0.88
   3   0 -18    0.12    0.54
  -3   0 -18    0.43    0.59
  -3  -1 -18    1.26    0.61
  -3  -1 -18    2.36    0.70
   3   1 -18    1.58    0.71
   3  -1 -18    2.31    0.77
   3  -1 -18    0.80    0.57
  -3   1 -18    0.47    0.57
  -3  -2 -18    3.64    0.76
   3   2 -18    3.95    0.88
  -3  -2 -18    3.79    0.84
   3  -2 -18    3.07    0.77
  -3   2 -18    3.02    0.77
   3  -2 -18    4.04    0.89
   3   3 -18   -0.51    0.52
  -3  -3 -18   -0.09    0.57
   3  -3 -18    0.46    0.55
   3  -3 -18    0.78    0.63
  -3   3 -18   -0.08    0.64
  -3  -4 -18    2.10    0.81
   3   4 -18    3.66    0.90
  -3   4 -18    3.36    0.92
   3  -4 -18    1.76    0.77
   3   5 -18    2.23    0.87
  -3  -5 -18    2.18    0.85
   3  -5 -18    1.16    0.74
  -3   5 -18    2.22    0.83
   3   6 -18    1.00    0.83
  -3  -6 -18    0.17    0.75
   3  -6 -18    0.46    0.77
  -3   6 -18    0.44    0.71
   3   0 -19    6.32    1.08
  -3   0 -19    6.26    1.02
  -3  -1 -19    1.57    0.69
  -3  -1 -19    2.93    0.76
   3   1 -19    1.35    0.68
   3  -1 -19    2.01    0.71
   3  -1 -19    2.01    0.75
  -3   1 -19    2.43    0.79
  -3  -2 -19    1.03    0.66
  -3  -2 -19    0.92    0.65
   3   2 -19    0.53    0.67
  -3   2 -19    0.47    0.59
   3  -2 -19    0.86    0.66
   3  -2 -19   -0.02    0.51
   3   3 -19    3.93    0.96
  -3  -3 -19    4.67    1.02
   3  -3 -19    3.56    0.90
   3  -3 -19    2.79    0.79
  -3   3 -19    3.94    0.98
   3   4 -19    0.66    0.76
  -3  -4 -19    0.53    0.73
  -3   4 -19    0.61    0.67
   3  -4 -19    1.81    0.86
  -3  -5 -19   -0.26    0.74
   3   5 -19    0.60    0.74
   3  -5 -19   -0.53    0.63
  -3   5 -19   -0.40    0.59
  -3   0 -20    0.16    0.62
   3   0 -20   -0.94    0.49
  -3  -1 -20   -0.20    0.54
   3   1 -20    0.00    0.63
  -3   1 -20    1.70    0.81
   3  -1 -20    0.56    0.68
   3  -1 -20    0.25    0.65
   3   2 -20    3.96    1.01
  -3  -2 -20    3.28    0.87
   3  -2 -20    1.28    0.71
   3  -2 -20    2.91    0.84
  -3   2 -20    1.62    0.76
   3   3 -20   -0.25    0.67
  -3  -3 -20   -0.57    0.58
  -3   3 -20   -0.14    0.66
   3  -3 -20    0.85    0.76
   3   4 -20    0.06    0.64
  -3  -4 -20    1.76    0.91
   3  -4 -20    1.33    0.87
  -3   4 -20    1.20    0.82
  -3   0 -21    0.59    0.66
   3   0 -21    1.19    0.76
   3   1 -21   -0.36    0.64
  -3  -1 -21    0.75    0.74
   3  -1 -21    0.82    0.71
  -3   1 -21   -0.66    0.60
   4   0   0  187.99    5.28
   4   1   0   13.04    0.54
   4  -1   0   14.18    0.55
   4   1   0   13.66    0.49
   4   2   0  146.58    4.04
   4   2   0  141.82    4.19
  -4   2   0  144.81    4.16
  -4  -2   0  144.49    4.15
  -4  -3   0   36.07    1.26
  -4   3   0   37.34    1.32
   4   3   0   37.31    1.37
   4   3   0   37.69    1.17
  -4   4   0   71.05    2.33
   4   4   0   67.70    2.37
   4   4   0   71.42    2.10
  -4  -4   0   69.64    2.23
  -4   5   0   59.38    2.18
   4   5   0   59.82    2.23
   4   5   0   62.30    1.92
  -4  -5   0   63.43    2.06
  -4  -6   0    6.50    0.50
   4  -6   0    6.42    0.49
  -4   6   0    7.63    0.73
   4   6   0    6.26    0.69
   4   6   0    6.44    0.41
   4  -7   0   34.70    1.39
   4   7   0   33.98    1.65
  -4  -7   0   33.39    1.39
  -4   7   0   31.89    1.59
  -4  -8   0   20.69    1.05
   4  -8   0   19.77    1.03
  -4   8   0   20.67    1.28
   4   8   0   17.47    1.23
  -4  -9   0   19.98    1.11
   4  -9   0   19.76    1.09
  -4   9   0   22.71    1.40
   4   9   0   22.14    1.48
  -4  10   0   31.40    1.87
   4  10   0   35.38    2.00
  -4  11   0    1.45    0.62
   4  11   0    1.55    0.71
  -4  12   0   15.44    1.61
   4  12   0   18.76    1.91
  -4  13   0    4.04    1.03
   4  13   0    4.89    1.11
   4   0   1   -0.12    0.09
   4   0  -1   -0.19    0.07
   4   0  -1   -0.16    0.06
   4  -1   1    4.78    0.30
   4   1  -1    4.85    0.28
  -4  -1  -1    4.90    0.29
   4  -1  -1    4.49    0.26
   4   1   1    4.75    0.30
   4   2  -1  267.72    7.47
   4   2  -1  269.77    7.58
  -4  -2  -1  263.82    7.58
   4   2   1  265.95    7.59
   4   2   1  277.54    7.35
  -4   2  -1  269.99    7.57
   4   3  -1   17.14    0.78
   4   3  -1   17.97    0.68
  -4  -3  -1   16.46    0.73
  -4   3   1   15.86    0.72
  -4  -3  -1   18.16    0.55
   4   3   1   17.39    0.79
  -4   3  -1   16.61    0.75
   4   3   1   16.98    0.56
  -4  -3   1   16.63    0.67
  -4   4   1   62.11    2.10
   4   4  -1   62.09    2.17
   4   4  -1   63.13    1.97
  -4  -4  -1   63.60    2.08
   4   4   1   64.53    1.83
  -4  -4   1   61.68    1.98
   4   4   1   60.09    2.16
  -4   4  -1   62.83    2.13
  -4  -5  -1   71.35    2.42
  -4   5   1   73.71    2.51
   4   5  -1   74.77    2.32
   4   5  -1   75.82    2.61
  -4   5  -1   73.86    2.54
  -4  -5   1   72.67    2.33
   4   5   1   72.60    2.58
   4   5   1   73.69    2.16
   4  -6   1    1.49    0.27
  -4  -6  -1    1.37    0.30
   4   6  -1    0.84    0.32
   4   6  -1    1.29    0.25
  -4   6   1    1.04    0.31
   4   6   1    1.12    0.34
  -4  -6   1    1.17    0.25
   4  -6  -1    0.99    0.27
  -4   6  -1    2.04    0.42
   4   7  -1   38.82    1.81
   4  -7   1   39.77    1.51
   4   7  -1   40.45    1.48
  -4  -7  -1   38.78    1.62
  -4   7   1   40.16    1.77
   4   7   1   39.65    1.84
  -4   7  -1   40.96    1.79
  -4  -7   1   40.58    1.52
   4  -7  -1   37.47    1.59
  -4  -8  -1   18.33    1.02
  -4   8   1   18.07    1.19
   4  -8   1   18.55    0.94
   4   8  -1   17.55    1.22
   4  -8  -1   18.32    1.04
  -4  -8   1   17.60    0.94
   4   8   1   20.36    1.32
  -4   8  -1   18.45    1.22
   4   9  -1    4.10    0.78
  -4   9   1    3.87    0.75
  -4  -9  -1    3.37    0.55
   4   9   1    3.85    0.79
  -4  -9   1    2.79    0.46
  -4   9  -1    2.29    0.56
   4  -9  -1    2.35    0.47
   4  10  -1    5.94    0.97
  -4 -10  -1    5.26    0.71
  -4  10   1    6.76    0.97
  -4  10  -1    5.06    0.90
   4  10   1    7.67    1.08
  -4  11   1    6.50    1.02
   4  11  -1    6.24    1.11
   4  11   1    9.30    1.23
  -4  11  -1    5.08    0.90
  -4  12   1    2.77    0.87
   4  12  -1    2.74    0.86
   4  12   1    3.08    0.85
  -4  12  -1    1.53    0.68
  -4  13   1    0.20    0.63
   4  13  -1    0.25    0.72
   4  13   1    0.01    0.60
  -4  13  -1    0.01    0.63
   4   0  -2   51.67    1.50
   4   0   2   49.87    1.64
   4   0  -2   51.45    1.60
  -4   0  -2   51.32    1.57
  -4  -1  -2   22.07    0.83
   4   1  -2   22.52    0.77
   4   1  -2   22.52    0.83
   4  -1   2   23.24    0.85
   4  -1  -2   23.44    0.82
  -4   1  -2   21.37    0.83
   4  -1  -2   22.22    0.72
   4   1   2   21.65    0.83
  -4   2   2   31.98    1.04
  -4  -2  -2   30.58    1.13
   4   2  -2   32.10    1.12
  -4   2  -2   30.57    1.13
   4   2   2   31.82    1.13
  -4   2  -2   31.02    1.12
   4   2   2   32.09    0.92
   4   3  -2  124.89    3.60
  -4  -3  -2  121.87    3.68
   4   3  -2  123.36    3.70
  -4   3  -2  122.17    3.67
   4   3   2  119.65    3.67
  -4   3  -2  117.88    3.65
   4   4  -2    6.65    0.51
   4   4  -2    5.76    0.41
  -4   4   2    5.56    0.44
  -4  -4  -2    5.97    0.46
  -4   4  -2    6.04    0.46
   4   4   2    6.69    0.51
  -4   4  -2    5.73    0.47
   4   5  -2    6.25    0.46
  -4  -5  -2    5.17    0.52
  -4   5   2    7.31    0.57
   4   5  -2    6.41    0.64
  -4  -5   2    6.57    0.42
   4   5   2    5.51    0.60
  -4   5  -2    5.69    0.59
   4  -6   2   10.61    0.57
   4   6  -2   11.75    0.67
  -4   6   2   11.46    0.77
  -4  -6  -2   12.09    0.75
   4   6  -2   11.79    0.84
  -4  -6   2   11.50    0.60
  -4   6  -2   10.72    0.78
   4  -6  -2   10.13    0.70
   4   6   2   11.78    0.82
   4   7  -2   13.70    1.01
  -4   7   2   16.17    1.02
   4  -7   2   15.52    0.76
  -4  -7  -2   15.08    0.92
   4   7  -2   16.96    0.85
  -4   7  -2   14.86    1.04
  -4  -7   2   14.64    0.76
   4  -7  -2   14.67    0.90
   4   7   2   16.06    1.09
  -4  -8  -2    1.02    0.36
   4   8  -2    0.42    0.25
   4  -8   2    0.40    0.23
  -4   8   2    0.50    0.35
   4   8  -2    0.93    0.46
  -4   8  -2    1.10    0.45
   4  -8  -2    0.91    0.34
   4   8   2    0.02    0.37
  -4  -8   2    0.46    0.25
   4   9  -2    4.87    0.83
  -4  -9  -2    7.11    0.79
  -4   9   2    7.58    0.94
   4  -9  -2    6.11    0.73
  -4   9  -2    5.80    0.85
   4   9   2    7.46    0.96
  -4 -10  -2   27.92    1.50
   4  10  -2   28.15    1.82
  -4  10   2   27.50    1.66
   4  10   2   28.03    1.77
   4 -10  -2   25.12    1.43
  -4  10  -2   29.19    1.78
   4  11  -2    0.36    0.57
  -4  11   2    0.71    0.55
  -4  11  -2    0.64    0.59
   4  11   2    0.61    0.61
  -4  12   2   15.19    1.61
   4  12  -2   13.75    1.60
   4  12   2   15.25    1.67
  -4  12  -2   13.67    1.52
   4  13  -2    7.20    1.29
  -4  13   2    8.62    1.35
  -4  13  -2    8.66    1.31
   4  13   2    9.30    1.42
  -4   0  -3    0.00    0.09
   4   0  -3   -0.02    0.05
  -4   0  -3    0.11    0.09
   4   0  -3    0.07    0.11
  -4   0   3    0.05    0.06
   4   0   3   -0.13    0.10
   4  -1   3  174.32    5.13
   4   1  -3  180.19    5.03
   4   1  -3  179.95    5.12
  -4  -1  -3  179.79    4.98
  -4  -1  -3  182.12    5.15
   4  -1  -3  179.63    4.93
  -4   1  -3  175.02    5.10
   4  -1  -3  179.80    4.93
   4  -1  -3  177.57    5.07
   4   1   3  175.51    5.13
   4  -2   3  105.54    3.21
   4   2  -3  107.69    3.18
  -4   2   3  109.58    3.06
   4   2  -3  105.17    3.20
  -4  -2  -3  106.91    3.25
   4   2   3  105.54    3.21
  -4   2  -3  106.66    3.20
  -4   2  -3  102.85    3.22
   4   2   3  109.52    2.98
   4  -2  -3  105.42    3.14
  -4  -3  -3   29.61    1.17
   4   3  -3   29.91    1.16
   4   3  -3   28.33    1.14
  -4   3   3   28.74    1.05
   4   3   3   30.92    1.16
  -4   3  -3   28.75    1.13
  -4   3  -3   29.78    1.17
   4  -3  -3   27.35    1.04
   4   4  -3   28.78    1.20
  -4  -4  -3   28.86    1.18
  -4   4   3   22.12    1.04
  -4   4  -3   31.16    1.21
   4   4   3   27.90    1.19
  -4   4  -3   27.98    1.17
   4   5  -3  210.93    6.38
  -4   5   3  218.36    6.27
  -4  -5  -3  214.45    6.33
   4   5  -3  209.51    6.19
   4   5   3  217.81    6.39
  -4   5  -3  203.77    6.32
  -4   5  -3  206.48    6.26
   4   6  -3    2.96    0.49
  -4   6   3    3.01    0.46
  -4  -6  -3    2.44    0.42
   4  -6   3    2.22    0.27
   4   6  -3    2.82    0.41
   4  -6  -3    1.73    0.38
   4   6   3    2.97    0.53
  -4   6  -3    2.38    0.42
  -4   6  -3    2.46    0.44
   4  -7   3   29.21    1.11
   4   7  -3   28.54    1.31
  -4  -7  -3   31.18    1.43
  -4   7   3   29.71    1.45
   4   7  -3   29.31    1.52
   4  -7  -3   28.89    1.40
   4   7   3   29.97    1.53
  -4   7  -3   33.62    1.57
  -4  -8  -3   23.92    1.31
   4   8  -3   25.75    1.53
  -4   8   3   26.52    1.43
   4   8  -3   27.33    1.26
  -4   8  -3   24.61    1.42
   4  -8  -3   26.40    1.36
   4   8   3   25.73    1.51
  -4  -9  -3    2.14    0.50
  -4   9   3    2.13    0.56
   4   9  -3    2.11    0.62
   4   9   3    1.67    0.60
  -4   9  -3    1.26    0.48
   4  -9  -3    1.16    0.42
   4  10  -3    2.84    0.75
  -4  10   3    1.09    0.60
  -4 -10  -3    1.68    0.54
   4  10   3    3.71    0.83
  -4  10  -3    2.46    0.73
   4 -10  -3    2.21    0.53
   4  11  -3    6.41    1.04
  -4  11   3    6.37    1.00
  -4 -11  -3    4.81    0.79
  -4  11  -3    6.36    1.03
   4  11   3    7.79    1.20
   4  12  -3    9.22    1.35
  -4  12   3    7.62    1.20
   4  12   3    7.00    1.21
  -4  12  -3    5.52    1.13
  -4   0   4   16.20    0.51
  -4   0  -4   14.80    0.65
  -4   0  -4   16.39    0.68
   4   0   4   14.91    0.71
   4   0  -4   15.45    0.51
   4   0  -4   16.36    0.72
   4  -1   4   84.91    2.58
   4   1  -4   79.67    2.58
  -4  -1  -4   79.92    2.44
   4   1  -4   82.51    2.43
  -4  -1  -4   81.79    2.57
   4  -1  -4   85.03    2.29
   4  -1  -4   83.51    2.29
  -4   1  -4   83.23    2.44
   4  -1  -4   82.76    2.54
  -4   1  -4   84.35    2.58
   4   1   4   81.36    2.57
  -4   2   4  137.99    3.85
  -4  -2  -4  138.30    4.12
   4   2  -4  135.28    4.09
   4  -2   4  135.58    4.06
  -4  -2  -4  139.61    3.84
   4   2  -4  134.82    4.00
   4  -2  -4  139.78    4.00
  -4   2  -4  134.32    4.10
   4   2   4  133.83    4.05
  -4  -3  -4   37.40    1.41
   4   3  -4   34.70    1.37
  -4  -3  -4   37.21    1.06
  -4   3   4   37.53    1.25
   4   3  -4   36.66    1.36
   4   3   4   35.03    1.36
  -4   3  -4   37.22    1.39
  -4   3  -4   36.75    1.43
   4  -3  -4   36.76    1.29
   4   4  -4    0.44    0.23
   4   4  -4    0.56    0.22
  -4  -4  -4    0.46    0.22
  -4   4   4    0.72    0.21
   4   4   4    0.48    0.23
  -4   4  -4    0.87    0.26
  -4   4  -4    0.69    0.24
   4  -4  -4    0.98    0.21
   4  -5   4    2.76    0.21
   4   5  -4    1.92    0.41
  -4   5   4    3.15    0.44
  -4  -5  -4    2.82    0.45
   4   5   4    2.73    0.43
  -4   5  -4    2.65    0.43
  -4   5  -4    2.07    0.39
   4  -5  -4    3.37    0.38
   4   6  -4   11.55    0.87
   4  -6   4   12.20    0.50
  -4   6   4   11.27    0.76
  -4  -6  -4   14.44    0.87
   4   6  -4   11.07    0.75
  -4   6  -4   12.56    0.85
  -4   6  -4   11.81    0.81
   4  -6  -4   11.73    0.80
   4   6   4   13.83    0.91
   4   7  -4   13.30    0.99
   4   7  -4   12.71    0.84
  -4   7   4   13.38    0.92
  -4  -7  -4   12.89    0.92
  -4   7  -4   11.44    0.88
  -4   7  -4   13.46    0.96
   4   7   4   14.16    1.01
   4  -7  -4   12.32    0.91
   4   8  -4    0.19    0.35
  -4  -8  -4   -0.09    0.29
   4   8  -4    0.02    0.23
  -4   8   4    0.08    0.34
  -4   8  -4    0.29    0.34
   4   8   4    0.28    0.36
   4  -8  -4   -0.05    0.29
  -4  -9  -4   20.02    1.24
   4   9  -4   18.71    1.12
   4   9  -4   17.30    1.36
  -4   9   4   18.06    1.26
   4  -9  -4   20.67    1.26
  -4   9  -4   18.06    1.29
   4   9   4   19.11    1.34
   4  10  -4   15.24    1.49
  -4  10   4   15.98    1.24
  -4 -10  -4   16.89    1.20
   4  10   4   17.36    1.41
   4 -10  -4   16.08    1.20
  -4  10  -4   15.45    1.49
  -4  11   4    0.15    0.54
   4  11  -4    0.63    0.66
  -4 -11  -4    0.76    0.45
  -4  11  -4    0.17    0.43
   4  11   4    0.25    0.62
   4 -11  -4    0.18    0.43
  -4  12   4   13.43    1.51
   4  12  -4   13.09    1.57
   4  12   4   13.93    1.64
  -4  12  -4   12.53    1.47
  -4   0  -5   -0.03    0.11
   4   0   5   -0.17    0.11
  -4   0  -5    0.16    0.14
  -4   0   5   -0.05    0.05
   4   0  -5   -0.13    0.05
   4   0  -5    0.51    0.19
  -4  -1  -5    4.95    0.44
  -4  -1  -5    4.74    0.33
   4   1  -5    5.45    0.42
   4  -1   5    3.99    0.39
   4   1  -5    4.68    0.29
  -4   1  -5    5.15    0.32
  -4   1  -5    4.97    0.40
   4  -1  -5    4.65    0.37
   4   1   5    4.74    0.38
  -4  -2  -5   40.35    1.50
  -4  -2  -5   40.37    1.30
  -4   2   5   41.56    1.21
   4  -2   5   39.34    1.44
   4   2  -5   38.30    1.51
   4   2  -5   41.76    1.39
   4  -2  -5   39.77    1.42
   4   2   5   38.46    1.43
  -4   2  -5   41.00    1.53
  -4  -3  -5   80.49    2.77
   4   3  -5   86.11    2.79
  -4   3   5   86.52    2.54
  -4  -3  -5   85.65    2.42
   4   3  -5   84.00    2.70
  -4   3  -5   81.82    2.71
  -4   3  -5   84.54    2.81
   4   3   5   82.96    2.71
   4  -3  -5   86.73    2.64
   4   4  -5   54.88    2.05
  -4  -4  -5   52.87    2.04
   4   4  -5   55.11    2.02
  -4   4   5   57.14    1.88
   4  -4  -5   58.94    1.90
  -4   4  -5   57.88    2.11
   4   4   5   56.65    2.02
  -4   4  -5   58.19    2.04
  -4   5   5   76.36    2.50
  -4  -5  -5   73.23    2.64
   4   5  -5   75.04    2.65
   4   5  -5   76.29    2.63
   4   5   5   74.19    2.64
  -4   5  -5   76.78    2.68
   4  -5  -5   72.96    2.40
  -4   5  -5   76.01    2.63
   4  -5  -5   73.11    2.67
   4   6  -5    8.30    0.78
  -4  -6  -5    8.09    0.81
  -4   6   5    9.24    0.67
   4   6  -5    8.63    0.86
   4   6   5    9.71    0.88
  -4   6  -5    9.20    0.84
  -4   6  -5    8.33    0.79
   4  -6  -5    9.03    0.85
   4  -6  -5    9.07    0.57
  -4  -7  -5   16.06    1.07
   4   7  -5   18.88    1.20
  -4   7  -5   16.57    1.09
  -4   7  -5   16.97    1.10
   4  -7  -5   19.26    1.14
   4   7   5   19.65    1.19
   4  -7  -5   19.36    0.91
   4   8  -5   25.91    1.38
   4   8  -5   25.06    1.52
  -4   8   5   26.61    1.42
  -4  -8  -5   27.44    1.46
   4  -8  -5   24.13    1.43
   4  -8  -5   25.41    1.15
  -4   8  -5   27.67    1.47
  -4   8  -5   24.70    1.44
   4   8   5   28.08    1.56
   4   9  -5    1.05    0.40
   4   9  -5    2.41    0.63
  -4   9   5    1.98    0.58
  -4  -9  -5    1.08    0.46
   4   9   5    1.03    0.49
   4  -9  -5    2.12    0.54
  -4   9  -5    1.94    0.59
   4  10  -5    1.77    0.67
  -4 -10  -5    1.76    0.59
  -4  10   5    1.79    0.61
   4 -10  -5    2.46    0.62
  -4  10  -5    1.87    0.66
   4  10   5    3.02    0.77
   4  11  -5    3.70    0.90
  -4 -11  -5    4.24    0.78
  -4  11   5    3.80    0.84
   4  11   5    5.12    0.95
   4 -11  -5    4.26    0.81
  -4  11  -5    4.28    0.88
  -4  12   5    4.95    0.97
   4  12  -5    4.82    1.14
  -4 -12  -5    5.92    0.97
  -4  12  -5    6.36    1.08
   4  12   5    5.66    1.09
   4   0  -6  172.47    4.79
  -4   0  -6  133.91    4.63
   4   0   6  162.99    4.75
  -4   0  -6  168.00    4.71
   4   1  -6    0.41    0.12
  -4  -1  -6    0.19    0.14
  -4  -1  -6    0.45    0.20
   4   1  -6    0.28    0.19
   4  -1   6    0.49    0.19
   4  -1  -6    0.41    0.19
  -4   1  -6    0.53    0.16
   4   1   6   -0.03    0.09
  -4   1  -6    0.11    0.16
   4   2  -6    8.16    0.48
   4  -2   6    8.26    0.54
   4   2  -6    7.68    0.60
  -4  -2  -6    8.40    0.46
  -4  -2  -6    8.25    0.58
  -4   2   6    8.59    0.32
  -4   2  -6    7.95    0.61
   4  -2  -6    8.85    0.55
  -4   2  -6    8.05    0.40
   4  -2  -6    8.86    0.33
  -4  -3  -6  106.61    3.52
   4   3  -6  111.11    3.41
  -4   3   6  112.44    3.21
   4   3  -6  106.63    3.52
  -4  -3  -6  112.40    3.18
   4  -3   6  107.78    3.43
   4   3   6  112.49    3.44
   4  -3  -6  110.91    3.37
  -4   3  -6  106.30    3.54
  -4   3  -6  108.13    3.43
   4   4  -6    4.91    0.57
  -4   4   6    4.39    0.40
  -4  -4  -6    4.24    0.24
   4   4  -6    4.44    0.51
  -4  -4  -6    3.31    0.47
  -4   4  -6    4.72    0.52
  -4   4  -6    3.23    0.50
   4   4   6    4.56    0.51
   4  -4  -6    4.15    0.42
   4   5  -6    0.63    0.30
  -4  -5  -6    1.15    0.40
  -4   5   6    1.13    0.29
   4   5  -6    0.71    0.35
   4  -5  -6    0.88    0.37
   4  -5  -6    1.06    0.25
  -4   5  -6    0.65    0.33
  -4   5  -6    1.16    0.37
   4   5   6    1.07    0.34
  -4  -6  -6   15.70    1.04
   4   6  -6   18.65    1.07
   4   6  -6   16.34    1.05
  -4   6   6   17.22    0.93
   4  -6  -6   18.04    0.85
   4  -6  -6   17.99    1.10
  -4   6  -6   15.88    1.02
   4   6   6   15.80    1.02
  -4   6  -6   16.85    1.07
   4   7  -6    9.44    0.90
  -4  -7  -6   11.22    0.92
  -4   7   6   11.05    0.83
   4   7  -6   11.12    0.91
   4  -7  -6   11.44    0.93
   4  -7  -6   12.19    0.71
  -4   7  -6   12.25    0.95
  -4   7  -6    9.60    0.93
   4   7   6   10.34    0.98
  -4  -8  -6   -0.17    0.35
   4   8  -6   -0.15    0.41
   4   8   6   -0.34    0.29
  -4   8  -6    0.08    0.36
   4  -8  -6   -0.10    0.34
  -4   8  -6    0.12    0.35
   4   9  -6   10.76    1.18
  -4  -9  -6   10.72    1.15
  -4   9   6    9.87    1.04
   4   9   6    9.30    1.09
   4  -9  -6   10.12    1.10
  -4   9  -6    9.40    1.03
  -4   9  -6   11.04    1.17
   4  10  -6   21.26    1.59
  -4  10   6   18.05    1.35
  -4 -10  -6   21.62    1.45
  -4  10  -6   18.68    1.40
   4  10   6   22.24    1.57
   4 -10  -6   18.72    1.39
  -4  11   6   -0.40    0.43
  -4 -11  -6   -0.45    0.36
   4  11  -6    0.41    0.54
   4 -11  -6   -0.17    0.43
   4  11   6   -0.06    0.55
  -4  11  -6    0.57    0.52
   4  12  -6    9.03    1.32
  -4  12   6    6.64    1.10
  -4 -12  -6    5.65    0.98
  -4  12  -6    6.74    1.11
   4  12   6    9.51    1.39
   4 -12  -6    5.38    0.97
   4   0  -7    0.22    0.20
  -4   0  -7   -0.12    0.17
  -4   0  -7   -0.21    0.12
   4   0   7    0.00    0.09
  -4   0   7   -0.10    0.06
   4  -1   7   56.66    1.99
  -4  -1  -7   59.10    1.96
   4   1  -7   54.68    2.06
  -4  -1  -7   58.06    2.02
   4   1  -7   57.63    1.77
  -4   1  -7   60.35    1.91
   4  -1  -7   59.75    2.05
  -4   1  -7   56.26    2.05
  -4  -2  -7   49.51    1.66
   4  -2   7   48.14    1.76
   4   2  -7   49.96    1.65
  -4  -2  -7   48.23    1.84
   4   2  -7   50.21    1.90
   4  -2  -7   50.94    1.80
  -4   2  -7   48.99    1.88
  -4   2  -7   48.78    1.58
   4  -3   7    1.92    0.35
  -4  -3  -7    1.55    0.34
   4   3  -7    1.91    0.40
  -4   3   7    1.51    0.19
  -4  -3  -7    1.24    0.21
   4   3  -7    0.97    0.27
   4  -3  -7    1.93    0.32
  -4   3  -7    1.21    0.36
   4   4  -7    9.03    0.73
  -4  -4  -7   11.02    0.48
  -4   4   7   11.36    0.56
  -4  -4  -7   10.11    0.74
   4   4  -7    9.29    0.67
   4  -4  -7   10.87    0.64
  -4   4  -7   10.88    0.71
  -4   4  -7   10.46    0.77
   4   4   7    8.82    0.64
   4   5  -7   65.17    2.40
   4   5  -7   64.60    2.47
  -4  -5  -7   64.92    2.49
  -4   5   7   63.96    2.19
   4   5   7   67.71    2.41
   4  -5  -7   65.92    2.51
   4  -5  -7   63.97    2.20
  -4   5  -7   66.42    2.41
  -4   5  -7   64.46    2.50
   4   6  -7    5.86    0.72
  -4   6   7    5.71    0.58
   4   6  -7    4.69    0.62
  -4  -6  -7    5.67    0.72
   4   6   7    4.39    0.64
  -4   6  -7    5.05    0.67
  -4   6  -7    7.92    0.87
   4  -6  -7    5.92    0.78
   4  -6  -7    6.14    0.55
  -4  -7  -7   17.43    1.17
  -4   7   7   20.50    1.11
   4   7  -7   18.84    1.21
   4   7  -7   18.48    1.20
   4  -7  -7   18.14    0.93
  -4   7  -7   20.25    1.27
   4   7   7   18.70    1.20
   4  -7  -7   19.71    1.27
  -4   7  -7   19.82    1.20
  -4  -8  -7   25.66    1.52
   4   8  -7   28.87    1.62
   4   8  -7   26.89    1.51
  -4   8   7   26.99    1.43
   4   8   7   26.61    1.56
   4  -8  -7   24.99    1.51
  -4   8  -7   26.21    1.50
  -4   8  -7   24.07    1.46
  -4  -9  -7    0.31    0.45
   4   9  -7    0.05    0.39
  -4   9  -7    0.40    0.46
   4   9   7    0.22    0.46
  -4   9  -7    0.08    0.37
   4  -9  -7    3.85    0.81
   4  10  -7    1.66    0.67
  -4 -10  -7    0.80    0.56
  -4  10  -7    1.37    0.56
   4  10   7    1.76    0.64
  -4  10  -7    2.49    0.73
   4 -10  -7    1.71    0.61
   4  11  -7    4.75    0.99
  -4  11   7    5.28    0.92
  -4 -11  -7    5.61    0.97
   4 -11  -7    6.71    1.05
  -4  11  -7    7.20    1.11
   4  11   7    7.93    1.23
   4  12  -7    3.13    0.93
  -4 -12  -7    4.61    0.92
   4  12   7    3.70    0.93
  -4  12  -7    4.43    0.96
   4 -12  -7    4.33    0.91
  -4   0  -8   40.11    1.59
   4   0  -8   42.29    1.65
  -4   0   8   42.07    1.25
   4  -1   8   19.10    1.01
   4   1  -8   25.06    1.21
  -4  -1  -8   27.85    1.11
  -4  -1  -8   23.23    1.10
   4   1  -8   24.17    0.86
  -4   1  -8   27.34    1.04
  -4   1  -8   23.15    1.13
   4  -1  -8   25.16    1.13
   4   1   8   25.31    1.10
  -4  -2  -8   43.81    1.58
  -4  -2  -8   44.21    1.75
   4  -2   8   44.16    1.66
   4   2  -8   45.73    1.53
   4   2  -8   41.99    1.78
   4   2   8   42.65    1.63
   4  -2  -8   45.86    1.71
  -4   2  -8   45.17    1.81
  -4   2  -8   45.36    1.50
  -4  -3  -8    6.40    0.43
   4   3  -8    5.70    0.67
   4  -3   8    5.75    0.58
  -4  -3  -8    5.67    0.64
  -4   3   8    5.37    0.31
   4   3  -8    5.65    0.52
  -4   3  -8    4.57    0.58
   4   3   8    5.76    0.55
  -4   3  -8    5.06    0.31
   4  -3  -8    5.26    0.54
   4  -4   8    7.27    0.68
  -4  -4  -8    4.43    0.59
  -4   4   8    6.41    0.42
  -4  -4  -8    6.30    0.40
   4   4  -8    4.83    0.63
   4   4  -8    6.50    0.63
   4  -4  -8    6.14    0.57
   4   4   8    3.30    0.46
   4  -4  -8    6.41    0.74
  -4   4  -8    6.59    0.71
  -4   4  -8    6.64    0.65
   4   5  -8   -0.41    0.24
  -4  -5  -8    0.07    0.12
  -4   5   8   -0.10    0.17
  -4  -5  -8   -0.20    0.32
   4   5  -8    0.35    0.30
  -4   5  -8    0.23    0.28
   4  -5  -8   -0.02    0.30
   4   5   8    0.03    0.19
  -4   5  -8    0.54    0.36
   4  -5  -8   -0.02    0.18
  -4  -6  -8   13.46    1.01
   4   6  -8   12.26    0.93
  -4   6   8   11.96    0.76
   4   6  -8   11.30    0.90
   4  -6  -8   12.15    0.96
  -4   6  -8   10.75    0.90
   4  -6  -8   12.14    0.75
   4   6   8   12.03    0.89
  -4   6  -8   13.87    1.01
   4   7  -8   17.78    1.23
   4   7  -8   17.40    1.21
  -4   7   8   17.53    1.03
  -4  -7  -8   17.31    1.24
   4   7   8   16.72    1.15
  -4   7  -8   18.26    1.19
   4  -7  -8   15.45    0.89
   4  -7  -8   16.76    1.20
  -4   7  -8   17.61    1.24
   4   8  -8    0.54    0.46
   4   8  -8    0.79    0.46
  -4  -8  -8    0.80    0.46
  -4   8   8    1.08    0.44
  -4   8  -8    0.88    0.50
   4   8   8    1.75    0.55
  -4   8  -8    0.99    0.48
   4  -8  -8    0.30    0.41
   4   9  -8   10.35    1.13
   4   9  -8    9.07    1.09
  -4   9   8   11.00    1.08
  -4  -9  -8   10.19    1.13
  -4   9  -8    9.95    1.12
   4  -9  -8   10.61    1.17
   4   9   8   11.75    1.24
  -4   9  -8   11.39    1.20
   4  10  -8   12.16    1.40
  -4 -10  -8   12.18    1.33
  -4  10  -8   10.63    1.23
   4 -10  -8    9.06    1.14
   4  10   8   10.01    1.22
  -4  10  -8   10.42    1.24
  -4 -11  -8    0.10    0.45
   4  11  -8   -0.11    0.57
   4  11   8    1.16    0.67
   4 -11  -8    0.54    0.57
  -4  11  -8    0.58    0.52
  -4 -12  -8    3.97    0.88
   4  12  -8    4.99    1.10
   4 -12  -8    5.40    1.03
  -4  12  -8    5.37    1.06
   4  12   8    5.52    1.15
  -4   0  -9    0.08    0.21
  -4   0  -9   -0.12    0.14
   4   0  -9   -0.18    0.19
   4   0   9   -0.13    0.17
  -4   0   9   -0.04    0.09
  -4  -1  -9   13.26    0.78
  -4  -1  -9   13.83    0.83
   4   1  -9   12.63    0.86
  -4  -1   9   13.65    0.58
  -4   1  -9   13.62    0.85
  -4   1  -9   14.41    0.74
   4  -1  -9   14.96    0.87
   4   1   9   13.23    0.78
   4   2  -9   21.90    1.23
  -4  -2  -9   25.50    1.09
   4  -2   9   25.64    1.14
   4   2  -9   25.01    0.98
  -4  -2  -9   24.79    1.21
   4  -2  -9   24.82    1.18
  -4   2  -9   26.15    1.01
   4   2   9   22.37    1.08
  -4   2  -9   25.57    1.27
   4  -3   9    5.98    0.58
  -4   3   9    5.89    0.32
   4   3  -9    6.83    0.52
  -4  -3  -9    6.51    0.48
   4   3  -9    6.41    0.73
  -4  -3  -9    5.23    0.63
  -4   3  -9    6.40    0.38
  -4   3  -9    5.85    0.71
   4   3   9    6.16    0.59
   4  -3  -9    6.25    0.62
   4   4  -9   17.18    0.92
   4   4  -9   17.90    1.11
  -4  -4  -9   15.01    1.04
  -4  -4  -9   16.66    0.76
   4  -4   9   16.69    0.95
  -4   4   9   17.65    0.73
   4  -4  -9   14.54    1.02
   4   4   9   16.18    0.93
  -4   4  -9   14.95    1.07
   4  -4  -9   15.72    0.88
  -4   5   9   28.97    1.15
   4   5  -9   27.90    1.34
   4   5  -9   26.55    1.48
  -4  -5  -9   26.37    1.45
  -4   5  -9   29.98    1.40
   4  -5  -9   28.03    1.24
  -4   5  -9   26.82    1.50
   4   5   9   25.45    1.30
   4  -5  -9   29.01    1.51
  -4  -6  -9    3.16    0.61
  -4   6   9    2.98    0.45
   4   6  -9    3.33    0.58
   4   6  -9    4.41    0.73
  -4   6  -9    3.35    0.63
   4  -6  -9    4.21    0.51
   4  -6  -9    3.63    0.66
  -4   6  -9    3.56    0.63
  -4  -7  -9   20.46    1.41
  -4   7   9   23.67    1.21
   4   7  -9   23.35    1.47
   4   7  -9   21.49    1.34
  -4   7  -9   24.12    1.51
  -4   7  -9   22.88    1.38
   4  -7  -9   23.79    1.52
   4   8  -9   14.94    1.17
  -4  -8  -9   15.69    1.24
   4   8  -9   16.97    1.28
   4  -8  -9   14.99    1.24
  -4   8  -9   14.68    1.14
   4   8   9   13.64    1.13
  -4   8  -9   14.80    1.19
  -4  -9  -9   -0.10    0.40
   4   9  -9   -0.07    0.47
   4   9  -9    0.34    0.49
   4  -9  -9   -0.20    0.45
  -4   9  -9    0.66    0.49
  -4   9  -9    0.23    0.50
   4   9   9    0.50    0.47
  -4 -10  -9    3.58    0.87
   4  10  -9    3.52    0.77
   4  10  -9    4.72    0.96
   4 -10  -9    3.30    0.83
   4  10   9    3.44    0.83
  -4  10  -9    3.38    0.84
  -4  10  -9    5.34    0.93
   4  11  -9    3.25    0.86
  -4 -11  -9    2.90    0.82
   4 -11  -9    3.25    0.87
  -4  11  -9    4.14    0.90
   4  11   9    1.98    0.76
  -4  11  -9    2.71    0.81
   4   0  10  113.95    3.61
   4   0 -10  111.79    3.75
  -4   0 -10  112.37    3.68
  -4   0  10  109.88    3.20
   4   1 -10    8.32    0.83
   4  -1  10    5.21    0.58
  -4  -1 -10    6.74    0.68
  -4  -1 -10    7.81    0.62
  -4   1 -10    5.44    0.65
   4  -1 -10    7.11    0.71
  -4   1 -10    6.75    0.53
   4   1  10    8.62    0.65
  -4  -1  10    6.83    0.40
  -4  -2 -10    6.15    0.70
  -4  -2 -10    6.18    0.60
   4   2 -10    7.17    0.49
   4  -2  10    6.98    0.67
   4   2 -10    7.03    0.76
  -4   2 -10    7.78    0.79
  -4   2 -10    7.61    0.52
   4  -2 -10    8.25    0.75
   4   2  10    8.12    0.61
  -4  -3 -10   41.32    1.83
   4   3 -10   43.28    1.93
  -4  -3 -10   43.20    1.61
   4  -3  10   41.92    1.72
   4   3 -10   41.80    1.58
  -4   3 -10   44.24    1.46
   4   3  10   42.10    1.66
   4  -3 -10   43.00    1.89
   4  -3 -10   43.49    1.74
  -4   3 -10   42.11    1.90
   4  -4  10    4.30    0.59
  -4  -4 -10    4.83    0.48
   4   4 -10    6.13    0.81
  -4  -4 -10    4.81    0.67
   4   4 -10    5.51    0.58
   4  -4 -10    4.66    0.68
  -4   4 -10    5.33    0.75
   4   4  10    5.62    0.61
   4  -4 -10    5.30    0.60
   4  -5  10    1.48    0.42
  -4  -5 -10    1.88    0.55
   4   5 -10    1.43    0.48
   4   5 -10    1.99    0.45
  -4   5 -10    1.56    0.50
   4  -5 -10    1.53    0.38
   4  -5 -10    1.42    0.48
   4   5  10    1.25    0.38
  -4  -6 -10   11.61    1.17
   4   6 -10   15.12    1.16
   4   6 -10   13.46    0.99
  -4   6 -10   13.67    1.27
   4  -6 -10   14.69    1.16
  -4   6 -10   13.80    1.01
   4  -6 -10   11.64    0.81
   4   6  10   12.07    0.97
   4   7 -10   15.97    1.19
   4   7 -10   15.16    1.21
  -4  -7 -10   15.39    1.27
   4  -7 -10   17.41    1.53
  -4   7 -10   17.00    1.20
  -4   7 -10   15.64    1.24
   4   8 -10    0.46    0.46
  -4  -8 -10    0.09    0.49
   4   8 -10    1.99    0.66
  -4   8 -10    2.20    0.63
   4  -8 -10    1.04    0.62
  -4   8 -10    1.70    0.62
   4   9 -10    6.37    0.95
   4   9 -10    6.87    1.01
  -4  -9 -10    9.26    1.18
   4   9  10    7.60    1.01
  -4   9 -10    7.43    1.06
   4  -9 -10    6.39    1.06
  -4   9 -10    6.93    0.99
  -4 -10 -10   10.69    1.39
   4  10 -10    9.86    1.29
   4  10 -10   10.72    1.31
   4 -10 -10    9.40    1.25
  -4  10 -10   11.00    1.30
   4  10  10   11.77    1.33
  -4  10 -10    9.06    1.24
  -4 -11 -10    0.03    0.51
   4  11 -10   -0.62    0.54
   4 -11 -10   -0.34    0.58
   4  11  10   -0.11    0.56
  -4  11 -10    0.36    0.57
  -4  11 -10    0.43    0.64
   4   0 -11    0.09    0.30
  -4   0 -11   -0.27    0.15
  -4   0 -11   -0.51    0.24
   4   0  11   -0.13    0.22
  -4  -1 -11    6.36    0.67
   4   1 -11    4.81    0.66
   4  -1  11    5.53    0.62
  -4  -1 -11    5.80    0.69
   4   1  11    5.85    0.62
  -4  -1  11    5.79    0.39
  -4   1 -11    6.42    0.63
   4  -1 -11    5.82    0.69
  -4   1 -11    6.35    0.73
  -4  -2 -11   14.96    0.89
  -4  -2 -11   18.44    1.06
   4   2 -11   14.50    1.04
   4  -2 -11   17.09    1.09
  -4   2 -11   16.03    1.06
  -4   2 -11   15.03    0.80
   4   2  11   15.36    0.88
  -4  -2  11   14.53    0.73
   4  -2 -11   16.69    1.01
  -4  -3 -11    0.05    0.24
   4  -3  11    0.43    0.29
  -4  -3 -11    0.60    0.36
   4   3 -11    0.29    0.26
   4   3 -11    0.53    0.41
  -4   3 -11    0.38    0.35
  -4   3 -11    0.38    0.21
   4   3  11    0.60    0.28
   4  -3 -11    0.97    0.37
   4  -3 -11    0.81    0.41
   4   4 -11    2.54    0.42
  -4  -4 -11    2.55    0.58
   4   4 -11    1.92    0.51
   4  -4  11    2.26    0.47
  -4  -4 -11    2.55    0.39
   4  -4 -11    1.70    0.41
  -4   4 -11    2.16    0.52
   4   4  11    3.05    0.48
   4  -4 -11    2.59    0.61
   4   5 -11   26.41    1.32
   4   5 -11   25.48    1.53
   4  -5  11   26.83    1.40
  -4  -5 -11   24.23    1.47
   4   5  11   25.69    1.31
   4  -5 -11   25.92    1.27
  -4   5 -11   22.61    1.46
   4  -5 -11   25.86    1.56
   4   6 -11    0.06    0.37
   4   6 -11    1.43    0.48
   4  -6  11    1.41    0.47
  -4  -6 -11    2.00    0.61
  -4   6 -11    1.20    0.54
  -4   6 -11    0.98    0.43
   4   6  11    1.19    0.44
   4  -6 -11    1.63    0.56
   4   7 -11    8.46    0.99
  -4  -7 -11    9.41    1.18
   4   7 -11   10.14    1.19
  -4   7 -11   12.11    1.27
  -4   7 -11    9.64    1.02
   4  -7 -11    8.90    1.14
   4   7  11    9.25    0.98
   4   8 -11   10.91    1.30
   4   8 -11   10.07    1.08
  -4  -8 -11   11.26    1.30
  -4   8 -11   11.25    1.27
   4  -8 -11    8.87    1.18
  -4   8 -11   13.99    1.28
  -4  -9 -11    0.19    0.46
   4   9 -11    0.64    0.55
   4   9 -11    0.44    0.51
   4  -9 -11   -0.27    0.41
  -4   9 -11    0.01    0.49
  -4   9 -11   -0.03    0.51
   4  10 -11   -0.36    0.55
  -4 -10 -11    0.77    0.63
   4  10 -11    0.35    0.60
  -4  10 -11    1.07    0.67
  -4  10 -11    0.42    0.60
   4 -10 -11    0.56    0.56
  -4 -11 -11    2.63    0.90
   4  11 -11    3.43    0.94
   4  11 -11    2.40    0.81
  -4  11 -11    2.14    0.78
   4 -11 -11    2.75    0.89
  -4  11 -11    4.39    1.01
   4   0  12   35.40    1.51
   4   0 -12   35.75    1.70
  -4   0 -12   31.40    1.59
  -4  -1 -12    7.68    0.81
   4  -1  12   10.49    0.76
   4   1 -12    8.39    0.88
  -4  -1 -12    8.38    0.83
   4  -1 -12    8.65    0.87
   4   1  12    8.72    0.78
  -4   1 -12    9.37    0.94
   4  -1 -12   10.22    0.94
  -4   1 -12    8.29    0.67
   4  -2  12   12.72    0.85
  -4  -2 -12   10.94    0.82
  -4  -2 -12   13.61    1.00
   4   2 -12   10.40    1.04
  -4  -2  12   10.90    0.64
   4   2  12   12.83    0.81
   4  -2 -12   11.95    0.94
   4  -2 -12   12.73    0.93
  -4   2 -12   12.92    1.14
  -4   2 -12   12.66    0.77
   4   3 -12    6.91    0.88
  -4  -3 -12    8.73    0.69
   4   3 -12    7.87    0.60
  -4  -3 -12    8.22    0.89
   4  -3 -12    9.42    0.98
  -4   3 -12    5.58    0.80
   4  -3 -12    9.06    0.86
   4   3  12    8.57    0.67
  -4  -4 -12    9.32    1.00
  -4  -4 -12   10.69    0.73
   4   4 -12    8.51    0.97
   4   4 -12   10.14    0.75
   4  -4  12    9.61    0.89
   4   4  12   10.47    0.78
   4  -4 -12    9.44    0.86
  -4   4 -12    8.95    1.04
   4  -4 -12   10.67    1.06
  -4  -5 -12    0.17    0.47
   4   5 -12    0.50    0.39
   4  -5  12    0.34    0.38
   4   5 -12    0.62    0.50
   4  -5 -12    1.01    0.56
  -4   5 -12    0.62    0.48
   4  -5 -12    0.52    0.35
   4   5  12    0.30    0.34
   4  -6  12   14.51    1.11
  -4  -6 -12   13.31    1.30
   4   6 -12   14.39    1.38
   4   6 -12   14.78    1.07
   4   6  12   13.97    1.03
  -4   6 -12   14.77    1.40
   4  -6 -12   14.67    1.40
   4   7 -12    5.36    0.92
  -4  -7 -12    8.42    1.16
   4  -7  12    6.16    0.91
   4   7 -12    6.65    0.89
  -4   7 -12    5.65    0.99
   4  -7 -12    5.45    1.01
   4   7  12    6.39    0.87
  -4  -8 -12   -0.82    0.45
   4   8 -12    0.34    0.48
   4   8 -12    0.35    0.55
  -4   8 -12   -0.25    0.38
  -4   8 -12   -0.48    0.50
   4  -8 -12   -0.30    0.52
   4   9 -12    4.67    0.87
  -4  -9 -12    3.73    0.86
   4   9 -12    3.13    0.79
  -4   9 -12    3.02    0.81
  -4   9 -12    3.28    0.75
   4  -9 -12    3.85    0.91
   4  10 -12    4.49    0.89
   4  10 -12    5.78    1.05
  -4 -10 -12    4.69    0.99
  -4  10 -12    5.81    0.99
   4 -10 -12    4.71    0.99
  -4  10 -12    5.63    1.06
   4   0 -13    0.20    0.34
  -4   0 -13   -0.62    0.25
   4   0  13   -0.25    0.23
   4   0 -13   -0.04    0.28
  -4  -1 -13    2.94    0.56
   4  -1  13    5.52    0.66
   4   1 -13    3.58    0.65
  -4  -1 -13    4.48    0.66
   4   1 -13    5.56    0.67
  -4   1 -13    4.30    0.58
  -4   1 -13    4.67    0.72
   4   1  13    5.69    0.64
   4  -1 -13    4.73    0.70
   4  -1 -13    4.87    0.71
  -4  -2 -13   19.93    1.13
   4   2 -13   18.42    1.31
   4   2 -13   18.26    1.05
  -4  -2 -13   18.48    1.22
   4  -2  13   19.25    1.09
  -4   2 -13   19.51    1.01
   4   2  13   17.02    0.98
   4  -2 -13   18.21    1.19
  -4   2 -13   16.56    1.23
   4  -2 -13   17.56    1.22
  -4  -3 -13   11.32    1.10
  -4  -3 -13   13.31    0.92
   4   3 -13   11.14    1.17
   4   3  13   12.15    0.84
   4  -3 -13   13.55    1.01
   4  -3 -13   12.86    1.22
  -4   3 -13   11.64    1.15
  -4  -4 -13   22.72    1.43
   4  -4  13   18.53    1.18
   4   4 -13   20.77    1.44
   4   4 -13   21.92    1.11
   4  -4 -13   20.11    1.24
   4   4  13   20.04    1.13
  -4   4 -13   19.85    1.39
   4  -4 -13   22.91    1.50
   4  -5  13   18.13    1.20
  -4  -5 -13   19.58    1.41
   4   5 -13   18.60    1.13
   4   5 -13   19.94    1.49
   4  -5 -13   19.99    1.46
   4  -5 -13   18.68    1.16
  -4   5 -13   17.63    1.38
   4  -6  13    0.01    0.42
   4   6 -13    0.45    0.51
  -4  -6 -13    0.77    0.53
   4   6 -13    0.32    0.42
  -4   6 -13    0.53    0.56
   4  -6 -13    0.88    0.59
   4   7 -13    6.23    0.82
  -4  -7 -13    4.69    0.91
   4  -7  13    4.63    0.81
   4   7 -13    5.58    1.00
   4  -7 -13    3.93    0.90
  -4   7 -13    5.95    1.02
   4   8 -13    3.18    0.71
   4  -8  13    4.36    0.78
   4   8 -13    4.23    0.95
  -4  -8 -13    2.78    0.80
   4  -8 -13    3.61    0.93
  -4   8 -13    3.49    0.87
  -4  -9 -13    2.77    0.84
   4   9 -13    1.11    0.59
   4   9 -13    2.47    0.80
   4  -9  13    2.37    0.79
  -4   9 -13    1.17    0.64
   4  -9 -13    2.25    0.79
  -4   9 -13    2.92    0.92
   4  10 -13    0.27    0.60
   4 -10  13    0.61    0.65
  -4 -10 -13   -0.90    0.48
   4  10 -13    1.15    0.67
  -4  10 -13   -0.12    0.56
   4 -10 -13    0.48    0.75
  -4  10 -13   -0.50    0.53
  -4   0 -14    1.43    0.49
   4   0 -14    1.42    0.52
   4   0  14    2.16    0.45
   4   0 -14    1.92    0.47
   4  -1  14    3.97    0.59
   4   1 -14    2.43    0.63
   4   1 -14    3.84    0.59
  -4  -1 -14    3.82    0.65
  -4  -1 -14    3.98    0.68
   4  -1 -14    3.37    0.63
  -4   1 -14    3.51    0.56
   4  -1 -14    3.20    0.63
   4   1  14    3.39    0.52
  -4   1 -14    4.31    0.77
   4   2 -14   -0.25    0.43
  -4  -2 -14    0.17    0.42
  -4  -2 -14   -0.41    0.31
   4   2 -14   -0.12    0.29
   4  -2  14   -0.01    0.32
   4  -2 -14    0.09    0.41
   4  -2 -14   -0.06    0.40
  -4   2 -14    0.52    0.43
  -4  -3 -14   29.09    1.67
   4   3 -14   26.83    1.69
   4  -3 -14   25.84    1.49
  -4   3 -14   28.88    1.72
   4  -3 -14   26.30    1.64
  -4  -4 -14    2.47    0.69
   4   4 -14    1.55    0.60
   4  -4 -14    1.11    0.58
   4  -4 -14    1.59    0.53
  -4   4 -14    1.85    0.61
   4  -5  14    4.78    0.75
   4   5 -14    5.12    0.72
  -4  -5 -14    5.62    0.96
   4   5 -14    5.54    0.97
  -4   5 -14    4.15    0.83
   4  -5 -14    5.68    1.00
   4  -5 -14    3.79    0.68
  -4  -6 -14    2.85    0.76
   4   6 -14    2.27    0.74
   4  -6  14    3.48    0.67
   4   6 -14    2.15    0.57
  -4   6 -14    1.90    0.68
   4  -6 -14    2.07    0.80
   4   7 -14   -0.05    0.41
   4   7 -14    0.26    0.50
  -4  -7 -14    1.19    0.66
   4  -7  14    0.60    0.44
   4  -7 -14    1.26    0.68
  -4   7 -14    0.57    0.60
   4   8 -14   -0.31    0.49
   4   8 -14   -0.39    0.42
  -4  -8 -14   -0.24    0.58
   4  -8  14    0.77    0.55
   4  -8 -14   -0.19    0.60
  -4   8 -14    0.65    0.67
  -4  -9 -14    1.97    0.84
   4   9 -14    1.11    0.73
   4  -9  14    2.76    0.85
   4   9 -14    1.17    0.65
   4  -9 -14    4.12    1.04
  -4   9 -14    2.06    0.81
   4   0 -15   -0.04    0.35
  -4   0 -15    0.18    0.44
   4   0 -15   -0.52    0.38
   4   1 -15    5.25    0.72
   4  -1  15    4.83    0.65
  -4  -1 -15    4.68    0.74
   4   1 -15    5.13    0.83
  -4  -1 -15    4.33    0.73
  -4   1 -15    4.62    0.84
   4  -1 -15    4.87    0.79
  -4   1 -15    5.48    0.73
   4  -1 -15    5.00    0.77
   4   2 -15   10.85    1.20
  -4  -2 -15   11.24    1.12
  -4  -2 -15   11.14    1.06
   4  -2  15   11.35    0.92
   4  -2 -15    9.05    1.04
   4  -2 -15   12.70    1.18
  -4   2 -15   10.11    1.11
  -4  -3 -15    0.79    0.42
   4  -3  15    1.22    0.45
   4   3 -15    2.09    0.66
  -4  -3 -15    1.31    0.56
   4  -3 -15    0.79    0.48
  -4   3 -15    1.77    0.57
   4  -3 -15    1.80    0.64
  -4  -4 -15    4.88    0.89
   4   4 -15    4.98    0.95
   4  -4 -15    6.17    0.84
  -4   4 -15    6.48    1.01
   4  -4 -15    5.86    0.95
   4  -5  15   17.59    1.23
   4   5 -15   12.75    1.41
  -4  -5 -15   18.36    1.50
   4  -5 -15   16.55    1.22
  -4   5 -15   13.64    1.45
   4  -5 -15   17.50    1.64
   4   6 -15    0.37    0.55
   4  -6  15    0.03    0.42
  -4  -6 -15   -0.46    0.49
   4  -6 -15   -1.02    0.50
  -4   6 -15    0.08    0.49
   4   7 -15    1.26    0.63
  -4  -7 -15    1.49    0.72
   4  -7  15    2.26    0.67
   4  -7 -15    2.00    0.86
  -4   7 -15    0.99    0.73
  -4  -8 -15    4.90    1.11
   4   8 -15    1.86    0.86
   4  -8  15    3.80    0.86
   4  -8 -15    4.29    0.99
  -4   8 -15    3.38    0.91
  -4  -9 -15    0.67    0.76
   4  -9  15    0.63    0.68
   4   9 -15   -0.03    0.57
   4  -9 -15    0.09    0.74
  -4   9 -15    1.42    0.73
   4   0 -16   11.39    1.22
  -4   0 -16    8.17    1.00
  -4  -1 -16    3.11    0.68
   4   1 -16    2.15    0.55
   4   1 -16    2.40    0.73
  -4  -1 -16    2.30    0.60
   4  -1 -16    1.73    0.61
  -4   1 -16    2.05    0.64
   4  -1 -16    2.26    0.63
   4   2 -16    5.28    0.90
  -4  -2 -16    4.10    0.73
  -4  -2 -16    4.98    0.85
   4  -2 -16    3.26    0.73
  -4   2 -16    3.73    0.77
   4  -2 -16    4.69    0.82
  -4  -3 -16    4.00    0.85
   4   3 -16    3.41    0.83
   4  -3 -16    4.24    0.75
  -4   3 -16    3.32    0.80
   4  -3 -16    3.52    0.77
  -4  -4 -16    2.44    0.77
   4   4 -16    1.72    0.74
   4  -4 -16    2.38    0.61
   4  -4 -16    3.11    0.81
  -4   4 -16    2.30    0.73
   4   5 -16   -0.37    0.46
  -4  -5 -16    0.16    0.53
  -4   5 -16   -0.18    0.58
   4  -5 -16    0.16    0.61
   4  -6  16    3.31    0.73
  -4  -6 -16    4.31    0.97
   4   6 -16    3.41    0.99
  -4   6 -16    2.82    0.87
   4  -6 -16    3.70    0.94
   4   7 -16    3.82    1.02
  -4  -7 -16    3.18    0.99
   4  -7  16    3.79    0.83
   4  -7 -16    3.34    0.92
  -4   7 -16    3.79    0.98
  -4  -8 -16   -0.74    0.49
   4   8 -16   -0.05    0.68
   4  -8  16    0.36    0.57
  -4   8 -16    1.44    0.74
   4  -8 -16   -0.27    0.66
   4   0 -17    0.08    0.51
  -4   0 -17   -0.07    0.46
  -4  -1 -17    4.53    0.81
   4   1 -17    3.12    0.77
  -4  -1 -17    3.23    0.71
  -4   1 -17    3.67    0.86
   4  -1 -17    3.02    0.73
   4  -1 -17    3.73    0.79
   4   2 -17    3.46    0.83
  -4  -2 -17    3.84    0.79
  -4  -2 -17    3.37    0.71
   4  -2 -17    2.48    0.69
  -4   2 -17    4.07    0.86
   4  -2 -17    3.68    0.83
   4   3 -17    0.85    0.67
  -4  -3 -17   -0.14    0.55
  -4   3 -17   -0.77    0.38
   4  -3 -17    0.92    0.56
   4  -3 -17   -0.19    0.50
   4   4 -17    2.96    0.82
  -4  -4 -17    2.50    0.81
   4  -4 -17    2.75    0.82
   4  -4 -17    2.39    0.66
  -4   4 -17    2.77    0.84
  -4  -5 -17    5.03    0.97
   4   5 -17    4.49    0.97
   4  -5 -17    3.30    0.92
  -4   5 -17    4.00    0.93
  -4  -6 -17    0.73    0.67
   4   6 -17    0.55    0.71
  -4   6 -17    0.48    0.64
   4  -6 -17   -0.31    0.55
   4   7 -17    3.07    1.00
   4  -7  17    1.56    0.75
  -4  -7 -17    3.62    0.98
  -4   7 -17    1.68    0.86
   4  -7 -17    2.64    0.97
   4   0 -18    6.81    1.08
  -4   0 -18    6.57    1.02
  -4  -1 -18    1.43    0.62
  -4  -1 -18    2.08    0.67
   4   1 -18    1.20    0.63
  -4   1 -18    0.91    0.58
   4  -1 -18    1.75    0.64
   4  -1 -18    0.91    0.61
  -4  -2 -18    0.21    0.57
   4   2 -18    0.35    0.60
  -4  -2 -18    0.43    0.50
   4  -2 -18   -0.13    0.56
   4  -2 -18    0.56    0.56
  -4   2 -18   -0.02    0.49
  -4  -3 -18    6.52    1.06
   4   3 -18    5.96    1.09
  -4   3 -18    4.94    0.95
   4  -3 -18    6.50    1.12
   4  -3 -18    6.02    0.95
   4   4 -18    2.27    0.85
  -4  -4 -18    1.59    0.76
   4  -4 -18    1.68    0.78
  -4   4 -18    1.04    0.66
   4   5 -18    0.37    0.64
  -4  -5 -18    0.92    0.72
   4  -5 -18   -0.54    0.65
  -4   5 -18    0.00    0.61
  -4  -6 -18    2.80    0.89
   4   6 -18    2.29    0.82
   4  -6 -18    2.18    0.85
  -4   6 -18    1.97    0.88
  -4   0 -19   -0.11    0.53
   4   0 -19    0.67    0.62
   4   1 -19    0.60    0.67
  -4  -1 -19    0.64    0.61
  -4  -1 -19    0.48    0.61
   4  -1 -19    0.42    0.62
  -4   1 -19    0.71    0.60
   4  -1 -19    1.65    0.72
   4   2 -19    3.42    0.94
  -4  -2 -19    4.01    0.93
   4  -2 -19    5.18    0.97
  -4   2 -19    3.99    0.96
   4  -2 -19    2.68    0.80
  -4  -3 -19    0.31    0.64
   4   3 -19   -0.18    0.58
   4  -3 -19    0.57    0.62
   4  -3 -19    1.37    0.74
  -4   3 -19    0.76    0.73
  -4  -4 -19    2.48    0.86
   4   4 -19    2.09    0.81
  -4   4 -19    3.52    0.97
   4  -4 -19    3.27    0.95
   4   5 -19    3.86    1.06
  -4  -5 -19    3.13    0.93
   4  -5 -19    1.69    0.90
  -4   5 -19    2.82    0.89
   4   0 -20    1.80    0.81
  -4   0 -20    1.51    0.75
  -4  -1 -20    1.82    0.72
   4   1 -20    1.31    0.77
   4  -1 -20    0.56    0.68
   4  -1 -20    0.80    0.66
  -4   1 -20   -0.02    0.56
  -4  -2 -20    0.24    0.67
   4   2 -20    0.81    0.75
   4  -2 -20   -0.43    0.54
  -4   2 -20    1.00    0.72
   4  -2 -20   -0.34    0.56
  -4  -3 -20    3.03    0.95
   4   3 -20    3.85    1.02
  -4   3 -20    1.69    0.86
   4  -3 -20    2.78    0.82
   4  -3 -20    3.50    0.99
  -4  -4 -20    1.87    0.87
   4   4 -20    1.95    0.90
  -4   4 -20   -0.19    0.76
   4   0 -21   -0.72    0.54
  -4   0 -21    0.11    0.66
   4   1 -21    0.45    0.73
   4  -1 -21    1.49    0.77
  -4   1 -21    1.19    0.74
   5   0   0   -0.18    0.09
   5   1   0   89.25    2.67
   5  -1   0   90.62    2.67
  -5   2   0  269.77    7.68
   5   2   0  276.54    7.74
   5   2   0  282.29    7.56
  -5  -2   0  270.01    7.70
   5  -2   0  269.55    7.68
  -5  -3   0   17.51    0.75
  -5   3   0   17.25    0.76
   5   3   0   18.77    0.84
   5   3   0   18.53    0.67
   5   4   0   44.16    1.69
  -5  -4   0   42.53    1.54
  -5   4   0   47.35    1.65
   5   4   0   45.63    1.43
   5   5   0   83.89    2.95
  -5   5   0   86.48    2.88
   5   5   0   87.34    2.60
  -5  -5   0   88.59    2.77
   5   6   0   17.48    0.72
   5   6   0   14.34    0.97
  -5  -6   0   16.91    0.84
  -5   6   0   15.94    0.94
  -5   7   0   35.57    1.65
   5  -7   0   35.97    1.46
  -5  -7   0   35.03    1.45
   5   7   0   35.56    1.71
   5   8   0    2.85    0.64
  -5   8   0    2.77    0.58
  -5  -8   0    1.56    0.39
   5  -8   0    1.97    0.42
   5   9   0   12.32    1.27
   5  -9   0    8.79    0.73
  -5   9   0   10.11    1.07
  -5  -9   0    8.52    0.80
  -5  10   0    3.83    0.82
   5  10   0    2.35    0.71
   5  11   0    3.91    0.91
  -5  11   0    4.65    0.88
  -5  12   0    3.28    0.94
   5  12   0    3.56    0.93
  -5  13   0    0.36    0.72
   5  13   0    0.30    0.62
   5   0   1  124.58    3.69
   5   0  -1  125.91    3.62
   5   0  -1  128.32    3.62
   5   1  -1   53.77    1.89
   5   1  -1   65.10    1.94
  -5  -1  -1   64.50    1.96
   5  -1   1   67.72    2.00
   5  -1  -1   65.53    1.92
   5   1   1   64.54    1.99
   5  -2   1   28.96    1.05
  -5  -2  -1   29.10    1.06
   5   2  -1   28.82    1.06
   5   2  -1   29.55    1.01
   5   2   1   29.36    0.91
   5   2   1   29.08    1.08
   5   3  -1   45.70    1.61
   5   3  -1   46.20    1.47
  -5   3   1   44.92    1.52
  -5  -3  -1   43.44    1.53
  -5   3  -1   44.30    1.55
   5   3   1   43.10    1.58
   5   3   1   46.18    1.34
   5   4  -1   23.90    1.13
  -5   4   1   28.04    1.11
   5   4  -1   26.33    0.99
  -5  -4  -1   25.82    1.06
   5   4   1   27.65    0.86
  -5  -4   1   27.39    1.01
   5   4   1   26.30    1.16
  -5   4  -1   26.17    1.11
   5   5  -1    8.60    0.67
  -5   5   1    8.25    0.63
   5   5  -1    8.60    0.50
  -5  -5  -1    8.35    0.58
   5   5   1    8.34    0.39
  -5  -5   1    8.42    0.52
  -5   5  -1    9.93    0.66
   5   5   1    9.02    0.68
   5   6  -1   17.75    0.81
  -5  -6  -1   17.70    0.92
  -5   6   1   18.92    1.01
   5   6  -1   17.85    1.06
   5   6   1   16.38    1.02
  -5  -6   1   18.60    0.86
  -5   6  -1   19.56    1.05
   5   6   1   17.81    0.68
  -5  -7  -1   10.69    0.74
   5   7  -1   10.99    1.06
   5  -7   1   10.43    0.66
  -5   7   1   10.79    0.96
  -5  -7   1   10.69    0.67
   5   7   1    9.46    0.96
  -5   7  -1    9.36    0.90
   5  -7  -1   10.23    0.73
  -5   8   1    4.96    0.70
   5   8  -1    6.55    0.88
  -5  -8  -1    4.63    0.59
   5  -8   1    4.26    0.51
   5  -8  -1    4.79    0.61
  -5   8  -1    4.95    0.73
  -5  -8   1    4.58    0.53
   5   8   1    5.56    0.84
   5   9  -1   12.11    1.24
  -5  -9  -1   11.66    0.86
  -5   9   1   13.42    1.09
   5   9   1   10.00    1.11
   5  -9  -1   10.32    0.83
  -5   9  -1   12.46    1.20
  -5  10   1   28.04    1.72
  -5 -10  -1   28.79    1.47
   5  10  -1   26.90    1.77
  -5  10  -1   27.77    1.68
   5  10   1   26.41    1.74
   5  11  -1    1.23    0.61
  -5  11   1    1.33    0.58
   5  11   1    0.68    0.61
  -5  11  -1    0.81    0.52
  -5  12   1   17.80    1.71
   5  12  -1   18.50    1.91
  -5  12  -1   19.36    1.79
   5  12   1   19.47    1.98
  -5  13   1    7.01    1.18
   5  13  -1    5.08    1.16
  -5  13  -1    5.72    1.14
   5  13   1    5.48    1.20
   5   0   2    0.11    0.12
   5   0  -2    0.05    0.07
   5   0  -2    0.25    0.12
   5   1  -2   29.72    0.98
  -5  -1  -2   26.89    1.01
   5   1  -2   28.06    1.02
   5  -1   2   28.41    1.06
   5  -1  -2   29.55    0.94
   5   1   2   28.54    1.05
   5  -1  -2   29.33    1.02
  -5   2   2   58.89    1.83
  -5  -2  -2   60.79    1.96
   5   2  -2   60.40    1.93
   5  -2   2   61.43    1.96
   5   2   2   61.05    1.96
  -5  -3  -2   10.97    0.60
   5   3  -2   11.07    0.58
   5   3  -2   11.63    0.63
   5   3   2   11.37    0.62
   5   3   2   11.43    0.37
  -5   3  -2   11.19    0.61
  -5  -4  -2   35.09    1.36
  -5   4   2   33.41    1.30
   5   4  -2   36.06    1.29
   5   4  -2   35.26    1.41
  -5   4  -2   33.78    1.36
   5   4   2   34.96    1.41
  -5   5   2  235.67    7.09
  -5  -5  -2  251.67    7.15
   5   5  -2  245.13    6.97
   5   5  -2  234.94    7.22
   5   5   2  244.19    7.25
  -5   5  -2  244.77    7.18
   5   6  -2    0.46    0.31
   5   6  -2    0.48    0.21
  -5  -6  -2    0.84    0.29
  -5   6   2    0.94    0.32
   5  -6   2    0.50    0.18
   5   6   2    0.58    0.31
  -5  -6   2    0.73    0.21
  -5   6  -2    1.36    0.39
   5  -7   2   36.76    1.39
   5   7  -2   38.84    1.80
  -5  -7  -2   36.85    1.59
   5   7  -2   37.15    1.47
  -5   7   2   35.71    1.64
  -5  -7   2   37.95    1.42
  -5   7  -2   37.63    1.70
   5   7   2   34.10    1.72
   5  -7  -2   39.22    1.62
  -5  -8  -2   47.16    1.91
  -5   8   2   45.44    2.01
   5  -8   2   45.51    1.68
   5   8  -2   44.45    1.73
   5   8  -2   43.28    2.09
  -5  -8   2   44.94    1.69
  -5   8  -2   42.31    2.01
   5  -8  -2   47.35    1.91
   5   8   2   46.96    2.14
   5   9  -2    0.13    0.40
  -5   9   2    0.65    0.44
  -5  -9  -2   -0.25    0.27
   5  -9  -2   -0.04    0.29
   5   9   2    0.07    0.38
  -5   9  -2   -0.04    0.36
   5  10  -2    3.56    0.85
  -5  10   2    1.41    0.63
  -5 -10  -2    1.21    0.47
   5 -10  -2    1.78    0.51
  -5  10  -2    1.23    0.61
   5  10   2    1.28    0.56
  -5  11   2   11.47    1.29
   5  11  -2   11.91    1.41
  -5  11  -2    8.85    1.14
   5  11   2    8.14    1.20
   5  12  -2    4.94    1.08
  -5  12   2    4.67    0.99
  -5  12  -2    5.96    1.12
   5  12   2    2.04    0.89
  -5   0  -3  325.41    9.15
   5   0  -3  344.21    9.00
   5   0   3  317.11    9.23
  -5   0  -3  323.63    9.08
   5   0  -3  325.15    9.13
   5  -1   3   22.58    0.93
   5   1  -3   23.43    0.83
  -5  -1  -3   23.64    0.92
   5   1  -3   22.47    0.91
  -5   1  -3   24.42    0.93
   5  -1  -3   23.72    0.76
   5   1   3   22.74    0.93
   5  -1  -3   23.71    0.90
   5   2  -3    8.88    0.50
  -5   2   3    7.53    0.37
   5  -2   3    8.28    0.50
  -5  -2  -3    8.34    0.50
   5   2  -3    8.87    0.47
   5   2   3    9.39    0.52
  -5   2  -3    7.84    0.50
   5  -2  -3    8.92    0.47
  -5   3   3   38.22    1.29
  -5  -3  -3   39.68    1.44
   5   3  -3   37.23    1.40
   5  -3  -3   36.96    1.32
  -5   3  -3   36.78    1.42
  -5   3  -3   38.43    1.40
   5   3   3   38.10    1.42
  -5   4   3    0.81    0.22
  -5  -4  -3    0.79    0.25
   5   4  -3    0.79    0.27
   5   4   3    0.81    0.26
  -5   4  -3    0.88    0.24
  -5   4  -3    0.85    0.28
   5   5  -3   10.62    0.64
  -5  -5  -3    8.27    0.66
   5   5  -3    9.58    0.73
  -5   5   3    5.84    0.59
   5   5   3    8.81    0.68
  -5   5  -3   10.18    0.70
  -5   5  -3    9.07    0.66
   5   6  -3   13.35    0.78
   5   6  -3   13.61    0.91
   5  -6   3   13.66    0.62
  -5   6   3   14.31    0.85
  -5  -6  -3   12.71    0.83
  -5   6  -3   13.26    0.89
   5   6   3   12.48    0.89
   5   7  -3   19.31    1.18
  -5   7   3   15.68    1.02
   5  -7   3   18.56    0.80
  -5  -7  -3   16.15    1.00
   5   7  -3   15.83    0.91
   5   7   3   17.95    1.16
   5  -7  -3   16.99    1.03
  -5   7  -3   18.77    1.12
   5   8  -3    3.42    0.50
  -5   8   3    2.13    0.53
  -5  -8  -3    2.48    0.49
   5   8  -3    2.96    0.62
   5  -8  -3    2.01    0.49
  -5   8  -3    3.06    0.60
   5   8   3    2.64    0.61
  -5   9   3   11.83    1.17
   5   9  -3   13.78    1.31
  -5  -9  -3   13.07    0.98
  -5   9  -3   12.04    1.16
   5   9   3   12.16    1.24
   5  -9  -3   11.01    1.06
  -5 -10  -3   24.28    1.44
  -5  10   3   27.29    1.61
   5  10  -3   22.36    1.68
   5 -10  -3   28.78    1.53
   5  10   3   25.61    1.74
  -5  10  -3   26.88    1.65
   5  11  -3    0.69    0.61
  -5  11   3   -0.36    0.38
  -5 -11  -3    0.01    0.40
  -5  11  -3    0.33    0.54
   5  11   3    0.66    0.61
   5  12  -3   17.45    1.85
  -5  12   3   13.85    1.52
   5  12   3   15.40    1.74
  -5  12  -3   17.55    1.73
   5   0  -4   -0.23    0.06
   5   0   4    0.01    0.14
  -5   0  -4   -0.01    0.12
  -5   0  -4    0.01    0.12
   5   0  -4   -0.14    0.12
  -5  -1  -4  118.27    3.46
   5  -1   4  117.53    3.61
   5   1  -4  123.20    3.63
  -5  -1  -4  123.66    3.62
   5   1  -4  118.87    3.45
   5  -1  -4  120.82    3.33
   5  -1  -4  121.25    3.33
   5  -1  -4  123.04    3.58
  -5   1  -4  115.80    3.58
   5   1   4  119.21    3.63
  -5   1  -4  114.85    3.47
   5  -2   4   18.10    0.83
   5   2  -4   18.55    0.78
  -5  -2  -4   18.85    0.66
  -5  -2  -4   19.82    0.88
   5   2  -4   18.44    0.86
  -5   2   4   18.66    0.65
   5   2   4   19.66    0.85
  -5   2  -4   17.82    0.85
   5  -2  -4   18.78    0.80
  -5   3   4   65.84    2.03
   5   3  -4   66.60    2.19
   5   3  -4   66.37    2.22
  -5  -3  -4   66.58    2.24
  -5   3  -4   68.23    2.21
   5  -3  -4   63.43    2.10
  -5   3  -4   64.73    2.24
   5   3   4   62.56    2.19
  -5   4   4   61.69    2.03
   5   4  -4   62.11    2.19
  -5  -4  -4   61.89    2.20
   5   4  -4   62.18    2.15
   5   4   4   62.72    2.19
   5  -4  -4   63.37    2.05
  -5   4  -4   59.17    2.15
  -5   4  -4   61.98    2.21
  -5  -5  -4   60.33    2.23
  -5   5   4   60.48    2.10
   5   5  -4   57.86    2.22
  -5   5  -4   59.73    2.22
  -5   5  -4   62.19    2.23
   5   5   4   61.34    2.26
   5  -5  -4   60.37    2.02
   5  -6   4   22.98    0.84
  -5  -6  -4   23.39    1.20
   5   6  -4   22.12    1.11
   5   6  -4   23.64    1.26
   5   6   4   23.32    1.24
  -5   6  -4   22.71    1.21
  -5   6  -4   22.53    1.20
   5  -6  -4   23.98    1.22
   5   7  -4   33.50    1.65
   5   7  -4   30.82    1.41
  -5   7   4   31.44    1.47
  -5  -7  -4   33.14    1.54
  -5   7  -4   30.94    1.53
   5   7   4   31.28    1.59
   5  -7  -4   29.35    1.49
   5   8  -4   13.70    1.13
  -5  -8  -4   14.21    1.01
  -5   8   4   11.37    0.91
   5   8  -4   14.22    0.93
   5  -8  -4   13.74    1.00
  -5   8  -4   14.26    1.09
   5   8   4   15.95    1.14
   5   9  -4    1.08    0.38
  -5   9   4    1.47    0.52
  -5  -9  -4    0.57    0.39
   5   9  -4    1.46    0.60
   5   9   4    1.99    0.65
   5  -9  -4    1.40    0.46
  -5   9  -4    0.96    0.54
  -5 -10  -4   -0.04    0.38
  -5  10   4    0.39    0.47
   5  10  -4   -0.21    0.50
   5 -10  -4    1.06    0.46
  -5  10  -4    1.30    0.57
   5  10   4    1.33    0.61
  -5  11   4    3.90    0.85
  -5 -11  -4    3.53    0.70
   5  11  -4    2.66    0.75
   5 -11  -4    3.71    0.73
   5  11   4    4.13    0.92
  -5  11  -4    3.80    0.84
   5  12  -4    8.41    1.32
  -5  12   4   10.37    1.34
  -5  12  -4    8.75    1.27
   5  12   4    8.61    1.35
  -5   0  -5   43.35    1.53
  -5   0   5   46.18    1.31
   5   0  -5   44.37    1.30
   5   0   5   43.44    1.60
  -5   0  -5   43.50    1.51
   5   0  -5   45.11    1.60
  -5  -1  -5   89.00    2.74
   5  -1   5   92.40    2.89
   5   1  -5   91.87    2.91
  -5  -1  -5   92.22    2.87
   5   1  -5   90.74    2.68
  -5   1  -5   93.41    2.89
   5   1   5   88.38    2.89
   5  -1  -5   92.91    2.86
  -5   1  -5   91.31    2.74
   5   2  -5   47.89    1.74
   5  -2   5   48.31    1.69
  -5  -2  -5   47.27    1.73
   5   2  -5   49.14    1.61
  -5  -2  -5   47.29    1.51
   5  -2  -5   49.04    1.67
   5   2   5   46.26    1.68
  -5   2  -5   48.13    1.75
  -5   3   5   89.45    2.63
  -5  -3  -5   89.51    2.93
  -5  -3  -5   87.88    2.52
   5  -3   5   87.48    2.85
   5   3  -5   90.67    2.91
   5   3  -5   91.00    2.83
  -5   3  -5   81.18    2.89
   5   3   5   89.06    2.86
   5  -3  -5   88.53    2.77
  -5   4   5   18.04    0.79
   5   4  -5   17.40    0.91
  -5  -4  -5   16.69    0.92
   5   4  -5   17.85    0.93
  -5   4  -5   17.29    0.96
  -5   4  -5   17.22    0.91
   5   4   5   17.28    0.90
   5  -4  -5   16.94    0.81
  -5   5   5    0.03    0.19
   5   5  -5    0.40    0.32
  -5  -5  -5    0.36    0.30
   5   5  -5    0.25    0.25
   5   5   5    0.44    0.29
   5  -5  -5    0.33    0.20
  -5   5  -5    0.63    0.29
  -5   5  -5    0.55    0.32
   5   6  -5   17.54    1.08
  -5   6   5   16.57    0.91
   5   6  -5   16.01    0.96
  -5  -6  -5   16.75    1.03
   5   6   5   14.92    1.01
   5  -6  -5   16.93    1.04
  -5   6  -5   17.71    1.05
  -5   6  -5   15.08    0.98
   5  -6  -5   17.40    0.85
  -5  -7  -5    5.64    0.70
   5   7  -5    7.43    0.88
   5  -7  -5    6.81    0.81
   5   7   5    8.02    0.87
  -5   7  -5    6.65    0.77
   5  -7  -5    7.24    0.57
  -5   7  -5    5.98    0.74
  -5  -8  -5    0.26    0.32
   5   8  -5   -0.50    0.31
   5   8  -5    0.16    0.28
   5  -8  -5   -0.03    0.23
   5  -8  -5    0.17    0.35
   5   8   5   -0.03    0.36
  -5   8  -5    0.20    0.32
  -5   9   5    8.82    0.96
   5   9  -5    9.92    0.94
   5   9  -5    7.51    1.00
  -5  -9  -5   11.30    1.12
   5  -9  -5   10.93    1.09
  -5   9  -5   10.15    1.09
   5   9   5   10.45    1.19
   5  10  -5   14.13    1.51
  -5 -10  -5   13.95    1.28
  -5  10   5   11.60    1.22
   5  10   5   12.10    1.39
   5 -10  -5   13.11    1.26
  -5  10  -5   12.05    1.26
   5  11  -5   -0.04    0.51
  -5  11   5    0.21    0.50
  -5 -11  -5    0.14    0.44
   5 -11  -5   -0.35    0.38
  -5  11  -5    0.71    0.50
   5  11   5    0.28    0.57
   5  12  -5   12.16    1.57
  -5  12   5   13.32    1.48
  -5 -12  -5   13.53    1.38
   5  12   5   14.33    1.67
  -5  12  -5    8.62    1.24
   5   0  -6    0.04    0.06
   5   0   6   -0.13    0.15
   5   0  -6    0.02    0.15
  -5   0  -6    0.05    0.16
  -5   0  -6    0.01    0.15
  -5  -1  -6    2.49    0.31
   5   1  -6    1.99    0.33
  -5  -1  -6    3.37    0.40
   5   1  -6    2.87    0.23
   5  -1   6    2.81    0.37
  -5   1  -6    2.86    0.30
  -5   1  -6    2.61    0.38
   5   1   6    3.81    0.44
   5  -1  -6    2.35    0.35
   5  -2   6   86.15    2.79
  -5  -2  -6   85.38    2.84
  -5  -2  -6   86.53    2.61
   5   2  -6   89.44    2.89
   5   2  -6   83.48    2.65
   5  -2  -6   87.65    2.42
  -5   2  -6   82.64    2.56
  -5   2  -6   85.59    2.86
   5  -2  -6   87.04    2.77
   5  -2  -6   89.01    2.42
   5   2   6   87.07    2.80
   5   3  -6   25.91    1.22
   5  -3   6   26.27    1.15
  -5  -3  -6   26.11    0.92
  -5   3   6   26.60    0.92
   5   3  -6   27.31    1.12
  -5  -3  -6   27.52    1.22
   5  -3  -6   26.87    1.11
   5   3   6   26.63    1.16
  -5   3  -6   26.38    1.23
   5   4  -6   17.95    1.00
   5   4  -6   19.49    0.98
  -5  -4  -6   19.41    0.62
  -5  -4  -6   19.09    1.01
  -5   4   6   18.67    0.80
   5  -4  -6   19.07    0.89
  -5   4  -6   17.44    0.95
  -5   4  -6   19.27    1.05
   5   4   6   19.31    0.98
  -5   5   6  123.21    3.79
   5   5  -6  124.43    4.03
  -5  -5  -6  118.78    4.02
   5   5  -6  125.57    4.02
   5   5   6  123.64    4.01
  -5   5  -6  127.26    4.10
  -5   5  -6  123.79    4.00
   5  -5  -6  120.93    3.78
   5   6  -6    2.71    0.50
   5   6  -6    2.79    0.53
  -5   6   6    2.03    0.38
  -5  -6  -6    2.80    0.53
   5   6   6    1.49    0.41
   5  -6  -6    2.32    0.49
  -5   6  -6    1.99    0.45
  -5   6  -6    2.31    0.48
   5  -6  -6    2.82    0.39
   5   7  -6   15.72    1.10
   5   7  -6   16.52    1.04
  -5   7   6   14.52    0.94
  -5  -7  -6   14.14    1.01
   5  -7  -6   13.69    1.04
   5   7   6   13.81    1.04
  -5   7  -6   16.14    1.05
  -5   7  -6   13.74    1.04
   5  -7  -6   12.62    0.79
  -5  -8  -6   21.55    1.38
   5   8  -6   22.17    1.46
   5   8   6   26.79    1.54
   5  -8  -6   25.25    1.44
  -5   8  -6   22.83    1.39
  -5   8  -6   25.72    1.46
   5   9  -6    1.78    0.51
   5   9  -6    1.41    0.56
  -5  -9  -6    1.02    0.49
   5  -9  -6    1.56    0.54
   5   9   6    2.15    0.66
  -5   9  -6    1.28    0.50
  -5  10   6    1.67    0.60
   5  10  -6    1.00    0.60
  -5 -10  -6    1.31    0.55
   5  10   6    2.09    0.66
  -5  10  -6    2.50    0.71
   5 -10  -6    1.62    0.60
  -5 -11  -6    7.21    1.05
  -5  11   6    7.88    1.08
   5  11  -6    7.47    1.15
  -5  11  -6    7.53    1.07
   5  11   6    7.78    1.20
   5 -11  -6    6.95    1.04
   5  12  -6    4.70    1.05
  -5  12   6    2.88    0.87
  -5 -12  -6    5.11    0.95
  -5  12  -6    1.56    0.80
   5  12   6    4.72    1.05
   5 -12  -6    5.46    1.08
  -5   0   7   56.34    1.57
  -5   0  -7   58.93    1.96
  -5   0  -7   50.43    1.87
   5   0  -7   57.45    2.02
   5   0   7   52.28    1.96
   5   1  -7   20.19    1.01
   5   1  -7   20.64    0.73
  -5  -1  -7   20.62    0.90
  -5  -1  -7   19.76    0.94
   5  -1   7   18.69    0.92
  -5   1  -7   18.34    0.95
   5  -1  -7   18.86    0.94
  -5   1  -7   19.07    0.83
   5   1   7   19.13    0.95
   5  -2   7   10.01    0.65
   5   2  -7   11.38    0.75
  -5  -2  -7    9.39    0.68
   5   2  -7   10.86    0.57
  -5  -2  -7   11.88    0.60
   5  -2  -7   11.57    0.69
  -5   2  -7   11.12    0.53
  -5   2  -7   10.20    0.71
   5   2   7   10.77    0.66
   5   3  -7   35.58    1.41
  -5  -3  -7   37.97    1.57
  -5   3   7   37.94    1.19
   5  -3   7   37.73    1.51
   5   3  -7   35.94    1.57
  -5  -3  -7   37.61    1.28
  -5   3  -7   38.40    1.61
   5  -3  -7   37.47    1.46
   5   3   7   39.72    1.51
  -5   4   7    2.52    0.29
   5   4  -7    2.08    0.39
  -5  -4  -7    2.86    0.47
   5  -4   7    2.30    0.42
  -5  -4  -7    2.84    0.25
   5   4  -7    1.62    0.39
   5   4   7    3.26    0.47
  -5   4  -7    2.25    0.42
  -5   4  -7    2.58    0.45
   5  -4  -7    2.73    0.39
  -5  -5  -7   -0.08    0.27
   5   5  -7   -0.28    0.25
  -5   5   7   -0.17    0.17
   5   5  -7    0.10    0.27
   5   5   7    0.02    0.24
  -5   5  -7   -0.30    0.26
  -5   5  -7    0.08    0.26
   5  -5  -7   -0.04    0.19
  -5   6   7   14.60    0.84
  -5  -6  -7   15.98    1.06
   5   6  -7   14.81    0.99
   5   6  -7   13.77    0.97
  -5   6  -7   13.97    0.95
   5   6   7   14.62    0.98
   5  -6  -7   14.05    0.80
   5  -6  -7   14.76    1.05
  -5   6  -7   13.48    1.01
   5   7  -7   11.00    1.04
  -5   7   7   11.28    0.83
  -5  -7  -7    9.06    0.95
   5   7  -7   10.66    1.01
   5  -7  -7   11.65    0.73
   5   7   7   11.27    1.09
  -5   7  -7   12.84    1.15
   5  -7  -7   10.82    1.07
  -5   7  -7   10.97    0.90
   5   8  -7    2.02    0.55
  -5   8   7    2.09    0.53
   5   8  -7    2.45    0.62
  -5  -8  -7    3.30    0.66
   5  -8  -7    2.30    0.59
   5   8   7    3.07    0.69
  -5   8  -7    2.54    0.59
  -5   8  -7    2.35    0.61
   5   9  -7    8.12    1.04
  -5  -9  -7    8.86    1.06
  -5   9  -7    8.26    1.03
   5  -9  -7   11.11    1.22
   5   9   7    8.50    1.05
  -5   9  -7   10.97    1.12
   5  10  -7   19.23    1.55
  -5 -10  -7   16.69    1.53
  -5  10  -7   19.36    1.42
   5 -10  -7   18.17    1.42
   5  10   7   18.84    1.50
  -5 -11  -7   -0.46    0.39
   5  11  -7   -0.20    0.50
  -5  11  -7   -0.20    0.49
   5  11   7    0.69    0.63
   5 -11  -7   -0.20    0.44
  -5 -12  -7    5.85    1.02
   5  12  -7    5.33    1.12
  -5  12  -7    3.77    0.97
   5 -12  -7    4.70    0.97
   5  12   7    4.92    1.08
   5   0   8   -0.01    0.17
  -5   0  -8   -0.10    0.16
   5   0  -8   -0.13    0.16
  -5   0  -8    0.03    0.18
  -5  -1  -8    7.82    0.55
   5   1  -8    7.74    0.73
   5  -1   8    7.96    0.60
  -5  -1  -8    7.02    0.58
   5   1  -8    7.85    0.40
  -5   1  -8    8.02    0.52
   5  -1  -8    8.43    0.62
  -5   1  -8    7.89    0.63
   5   2  -8   26.00    1.29
   5   2  -8   27.46    1.05
  -5  -2  -8   29.36    1.13
  -5  -2  -8   25.76    1.23
   5  -2   8   27.08    1.20
  -5   2  -8   29.00    1.32
  -5   2  -8   26.28    1.02
   5  -2  -8   26.36    1.20
  -5  -3  -8    0.19    0.24
  -5   3   8    1.04    0.14
  -5  -3  -8    0.96    0.23
   5   3  -8    0.58    0.25
   5  -3   8    0.80    0.29
   5   3  -8    1.11    0.35
  -5   3  -8    1.05    0.34
   5   3   8    0.15    0.14
   5  -3  -8    0.54    0.25
   5   4  -8   22.19    1.24
  -5  -4  -8   22.67    1.21
  -5  -4  -8   21.92    0.84
  -5   4   8   22.21    0.85
   5   4  -8   22.05    1.08
   5  -4   8   20.83    1.09
  -5   4  -8   21.58    1.21
   5  -4  -8   19.34    1.00
   5   4   8   19.32    1.05
  -5   5   8   31.53    1.23
  -5  -5  -8   30.30    1.54
   5   5  -8   30.40    1.43
   5   5  -8   31.42    1.55
  -5   5  -8   30.73    1.44
   5   5   8   34.07    1.50
   5  -5  -8   30.34    1.33
   5  -5  -8   29.95    1.57
  -5   5  -8   34.90    1.64
   5   6  -8    0.99    0.40
  -5  -6  -8    0.04    0.31
   5   6  -8   -0.13    0.28
  -5   6   8    0.27    0.24
   5  -6  -8   -0.43    0.29
  -5   6  -8    0.61    0.40
  -5   6  -8    0.61    0.33
   5   6   8    0.20    0.31
   5  -6  -8    0.23    0.23
  -5  -7  -8   30.87    1.66
   5   7  -8   32.52    1.68
  -5   7   8   30.83    1.41
   5   7  -8   26.65    1.56
   5  -7  -8   29.32    1.33
   5   7   8   28.97    1.57
  -5   7  -8   31.57    1.62
   5  -7  -8   31.29    1.68
  -5   7  -8   30.37    1.69
  -5   8   8   23.61    1.31
   5   8  -8   26.87    1.58
   5   8  -8   24.49    1.51
  -5  -8  -8   22.92    1.51
   5  -8  -8   24.60    1.53
  -5   8  -8   25.97    1.49
  -5   8  -8   25.40    1.56
   5   8   8   24.93    1.50
   5   9  -8   -0.38    0.40
   5   9  -8   -0.07    0.37
  -5  -9  -8   -0.50    0.31
  -5   9   8   -0.21    0.34
   5  -9  -8    0.04    0.46
  -5   9  -8   -0.17    0.38
   5   9   8    0.01    0.43
  -5   9  -8    0.15    0.39
  -5 -10  -8    4.24    0.81
   5  10  -8    4.76    0.90
  -5  10  -8    4.45    0.87
   5 -10  -8    6.28    1.00
  -5  10  -8    4.91    0.89
   5  10   8    6.65    1.06
   5  11  -8    7.42    1.20
  -5 -11  -8    5.64    1.01
  -5  11  -8    3.91    0.87
   5  11   8    5.36    1.03
   5 -11  -8    3.66    0.82
   5  12  -8    4.20    1.04
  -5 -12  -8    2.12    0.79
   5  12   8    1.94    0.85
  -5  12  -8    3.17    0.86
   5 -12  -8    2.93    0.87
   5   0  -9  129.28    3.94
  -5   0  -9  133.03    3.88
  -5   0  -9   99.32    3.69
  -5  -1  -9   16.17    0.89
   5  -1   9   15.33    0.87
   5   1  -9   15.35    0.61
  -5  -1  -9   14.74    0.83
   5   1  -9   14.70    0.94
  -5   1  -9   14.48    0.90
  -5   1  -9   16.92    0.81
   5   1   9   14.73    0.87
   5  -1  -9   14.87    0.89
  -5  -2  -9   17.37    1.00
   5   2  -9   17.33    1.04
  -5  -2  -9   17.73    0.87
   5  -2   9   18.23    0.96
   5   2  -9   18.02    0.78
  -5   2  -9   16.39    0.78
   5   2   9   18.12    0.94
   5  -2  -9   17.97    0.96
  -5   2  -9   15.00    0.97
  -5  -3  -9   23.67    0.98
  -5   3   9   22.87    0.70
  -5  -3  -9   21.16    1.17
   5  -3   9   21.72    1.11
   5   3  -9   24.14    1.26
   5   3  -9   22.18    1.00
   5   3   9   22.41    1.09
   5  -3  -9   21.94    1.10
  -5   3  -9   20.53    0.83
  -5   3  -9   20.20    1.19
  -5   4   9   14.65    0.64
   5   4  -9   14.37    1.04
   5  -4   9   15.42    0.94
  -5  -4  -9   15.67    1.04
   5   4  -9   14.99    0.86
  -5  -4  -9   14.42    0.69
   5  -4  -9   14.49    0.86
  -5   4  -9   14.12    1.00
   5   5  -9    2.42    0.51
  -5  -5  -9    4.28    0.69
   5  -5   9    4.15    0.60
   5   5  -9    4.53    0.61
  -5   5   9    3.83    0.41
   5  -5  -9    3.28    0.62
  -5   5  -9    4.09    0.69
   5  -5  -9    3.98    0.51
   5   6  -9    9.81    1.04
  -5   6   9    9.67    0.68
  -5  -6  -9    8.93    0.96
   5   6  -9    8.71    0.85
   5  -6  -9    9.30    0.69
  -5   6  -9    7.75    0.92
   5   6   9    7.28    0.86
  -5   6  -9   10.24    0.95
   5  -6  -9    9.26    0.98
  -5  -7  -9   21.73    1.41
   5   7  -9   17.78    1.27
   5   7  -9   21.67    1.40
   5  -7  -9   20.64    1.43
   5   7   9   21.23    1.32
  -5   7  -9   20.30    1.30
  -5   7  -9   17.97    1.30
   5   8  -9    1.97    0.59
  -5  -8  -9    2.83    0.71
   5   8  -9    2.12    0.62
  -5   8  -9    1.48    0.56
  -5   8  -9    1.68    0.63
   5   8   9    1.56    0.56
   5  -8  -9    2.36    0.69
   5   9  -9    8.66    1.10
   5   9  -9    8.44    1.11
  -5  -9  -9    7.50    1.06
   5   9   9    6.74    0.98
  -5   9  -9    8.26    1.10
   5  -9  -9   10.78    1.30
  -5   9  -9    8.79    1.06
   5  10  -9    7.66    1.13
   5  10  -9    8.67    1.15
  -5 -10  -9    9.41    1.24
   5 -10  -9    9.31    1.23
  -5  10  -9   11.78    1.36
   5  10   9    9.04    1.19
  -5  10  -9    7.21    1.06
   5  11  -9    0.09    0.56
  -5 -11  -9    1.12    0.63
   5  11   9    2.10    0.76
  -5  11  -9    1.00    0.70
   5 -11  -9    0.26    0.59
   5   0  10    0.03    0.22
   5   0 -10   -0.07    0.28
  -5   0 -10   -0.20    0.26
   5   1 -10    3.75    0.60
  -5  -1 -10    4.28    0.55
  -5  -1 -10    4.22    0.52
   5  -1  10    2.33    0.42
   5  -1 -10    3.85    0.54
  -5  -1  10    3.82    0.30
  -5   1 -10    4.86    0.52
  -5   1 -10    4.06    0.56
   5   1  10    5.26    0.59
   5  -2  10   14.59    0.89
   5   2 -10   14.72    0.71
   5   2 -10   15.93    1.03
  -5  -2 -10   14.07    0.93
  -5  -2 -10   14.65    0.84
   5   2  10   16.82    0.93
  -5   2 -10   15.68    1.00
  -5   2 -10   15.67    0.77
   5  -2 -10   17.27    0.98
   5   3 -10    8.31    0.60
   5   3 -10    8.96    0.92
   5  -3  10    9.13    0.72
  -5  -3 -10    7.28    0.81
  -5  -3 -10    7.19    0.57
   5  -3 -10    5.80    0.64
  -5   3 -10    8.39    0.49
  -5   3 -10    7.06    0.83
   5   3  10    7.23    0.69
   5   4 -10   13.52    0.83
   5   4 -10   14.18    1.03
  -5  -4 -10   12.08    0.69
   5  -4  10   12.29    0.85
  -5  -4 -10   12.03    0.94
   5  -4 -10   13.52    1.03
   5  -4 -10   12.01    0.83
  -5   4 -10   12.65    0.97
   5   4  10   12.95    0.85
   5   5 -10   11.89    1.13
  -5  -5 -10   11.86    1.10
   5   5 -10   13.36    0.90
   5  -5  10   12.35    0.90
   5  -5 -10   13.66    0.87
  -5   5 -10   10.35    1.04
   5  -5 -10   13.67    1.23
  -5  -6 -10    2.38    0.62
   5  -6  10    3.15    0.63
   5   6 -10    1.19    0.50
   5   6 -10    1.54    0.50
  -5   6 -10    1.92    0.61
   5  -6 -10    2.20    0.44
   5  -6 -10    1.72    0.57
  -5   6 -10    1.76    0.51
   5   7 -10   12.89    1.29
  -5  -7 -10    8.15    1.04
   5   7 -10    8.02    0.97
  -5   7 -10   10.77    1.20
   5  -7 -10   10.22    1.16
  -5   7 -10    7.19    0.87
   5   8 -10   14.47    1.39
   5   8 -10   12.22    1.20
  -5  -8 -10   12.80    1.36
  -5   8 -10   11.49    1.13
   5   8  10   13.16    1.25
  -5   8 -10   11.43    1.30
   5  -8 -10   12.70    1.34
   5   9 -10   -0.07    0.45
   5   9 -10    0.29    0.44
  -5  -9 -10    0.24    0.48
  -5   9 -10   -0.05    0.43
   5   9  10    0.06    0.44
  -5   9 -10    0.29    0.47
   5  -9 -10    0.36    0.53
   5  10 -10    1.35    0.64
  -5 -10 -10    0.11    0.60
   5  10 -10    1.31    0.70
  -5  10 -10    0.82    0.65
   5 -10 -10    1.92    0.70
  -5  10 -10    2.63    0.75
   5  10  10    1.82    0.68
  -5 -11 -10    2.69    0.78
   5  11 -10    3.43    0.89
  -5  11 -10    2.11    0.76
  -5  11 -10    3.43    0.87
   5  11  10    2.65    0.79
   5 -11 -10    2.94    0.89
   5   0  11   58.99    2.18
   5   0 -11   54.61    2.28
  -5   0 -11   57.72    2.24
  -5  -1 -11   19.51    1.08
  -5  -1 -11   19.50    1.05
   5   1 -11   18.24    1.14
   5   1  11   17.76    1.03
  -5  -1  11   18.77    0.73
  -5   1 -11   17.03    0.94
   5  -1 -11   18.17    1.10
  -5   1 -11   17.45    1.09
  -5  -2 -11    3.41    0.49
   5   2 -11    3.38    0.37
   5  -2  11    4.04    0.56
  -5  -2 -11    3.31    0.59
   5   2 -11    3.01    0.59
   5   2  11    2.77    0.45
   5  -2 -11    2.63    0.50
  -5   2 -11    3.79    0.60
  -5   2 -11    3.54    0.44
  -5  -3 -11   36.51    1.71
   5   3 -11   36.89    1.81
   5   3 -11   37.90    1.43
   5  -3  11   38.26    1.61
  -5  -3 -11   32.44    1.44
   5  -3 -11   35.60    1.61
   5  -3 -11   35.10    1.72
   5   3  11   37.13    1.57
  -5   3 -11   35.15    1.75
  -5  -4 -11    9.72    0.64
  -5  -4 -11    8.75    0.92
   5  -4  11    8.77    0.84
   5   4 -11   10.08    1.04
   5   4 -11    9.59    0.72
   5  -4 -11    9.15    0.97
   5  -4 -11    8.68    0.82
   5   4  11    9.26    0.76
  -5   4 -11    8.65    0.94
   5   5 -11    0.20    0.34
   5  -5  11    0.00    0.33
   5   5 -11   -0.15    0.38
  -5  -5 -11   -0.01    0.36
   5   5  11    0.32    0.30
   5  -5 -11    0.33    0.46
   5  -5 -11    0.09    0.28
  -5   5 -11   -0.59    0.30
  -5  -6 -11   13.28    1.27
   5   6 -11   12.94    0.99
   5   6 -11   15.34    1.40
   5  -6  11   12.81    1.03
  -5   6 -11   12.34    1.26
   5   6  11   13.51    1.06
   5  -6 -11   11.58    1.21
   5   7 -11   16.59    1.33
   5   7 -11   14.07    1.27
  -5  -7 -11   15.36    1.45
   5  -7  11   15.11    1.21
  -5   7 -11   12.84    1.35
  -5   7 -11   17.15    1.23
   5  -7 -11   13.41    1.37
  -5  -8 -11   -0.02    0.52
   5   8 -11    0.00    0.47
   5   8 -11    0.35    0.51
   5  -8 -11   -0.23    0.47
  -5   8 -11    0.48    0.51
  -5   8 -11   -0.02    0.51
   5   9 -11    5.28    0.95
   5   9 -11    4.67    0.86
  -5  -9 -11    6.31    1.08
   5  -9 -11    4.43    0.89
  -5   9 -11    5.59    1.05
  -5   9 -11    3.53    0.80
   5  10 -11    7.74    1.18
   5  10 -11    9.29    1.26
  -5 -10 -11    6.48    1.12
  -5  10 -11    6.98    1.11
  -5  10 -11    6.67    1.01
   5 -10 -11    6.50    1.09
   5  11 -11   -0.14    0.61
  -5 -11 -11    0.59    0.71
   5 -11 -11   -0.22    0.61
  -5  11 -11   -0.06    0.54
  -5  11 -11   -0.31    0.55
   5   0  12   -0.11    0.25
  -5   0 -12   -0.09    0.31
   5   0 -12   -0.11    0.33
   5   1 -12    3.31    0.63
  -5  -1 -12    2.65    0.50
  -5  -1 -12    2.93    0.52
   5  -1  12    2.64    0.48
  -5   1 -12    3.46    0.50
   5   1  12    2.84    0.49
  -5   1 -12    2.86    0.59
   5  -1 -12    2.62    0.56
  -5  -2 -12   12.00    0.83
  -5  -2 -12   12.86    0.94
   5   2 -12   10.94    1.05
  -5   2 -12    8.86    0.94
   5  -2 -12   12.26    0.93
   5  -2 -12   13.13    0.97
   5   2  12   11.80    0.81
  -5   2 -12   11.43    0.73
   5   3 -12    5.80    0.81
  -5  -3 -12    5.90    0.63
   5  -3  12    6.00    0.72
   5   3 -12    6.19    0.58
  -5  -3 -12    7.02    0.87
   5  -3 -12    6.11    0.73
   5   3  12    5.87    0.66
  -5   3 -12    6.27    0.85
   5  -3 -12    4.77    0.73
   5   4 -12   12.47    0.84
   5   4 -12   12.88    1.25
   5  -4  12   11.81    0.94
  -5  -4 -12   15.61    1.17
  -5   4 -12   11.87    1.17
   5  -4 -12   13.17    0.95
   5  -4 -12   15.63    1.18
   5   4  12   13.68    0.91
   5   5 -12   22.55    1.21
   5  -5  12   23.68    1.35
   5   5 -12   22.60    1.50
  -5  -5 -12   23.30    1.48
   5   5  12   22.59    1.26
  -5   5 -12   23.17    1.50
   5  -5 -12   22.02    1.23
   5  -5 -12   23.64    1.54
   5   6 -12    0.66    0.42
   5   6 -12   -0.26    0.46
  -5  -6 -12    0.81    0.55
   5  -6  12    1.24    0.51
   5   6  12    0.55    0.40
   5  -6 -12    0.77    0.52
   5  -6 -12    0.75    0.37
  -5   6 -12    0.16    0.42
   5   7 -12   10.99    1.12
  -5  -7 -12    9.22    1.17
   5  -7  12    8.13    1.03
   5   7 -12    9.60    1.16
   5  -7 -12    8.91    1.15
  -5   7 -12    8.75    1.14
   5   7  12    9.92    1.06
   5   8 -12    8.09    1.16
  -5  -8 -12    5.67    1.01
   5   8 -12    5.05    0.86
   5  -8  12    5.72    0.91
  -5   8 -12    3.08    0.84
   5  -8 -12    7.21    1.15
  -5  -9 -12    0.87    0.71
   5  -9  12    2.05    0.71
   5   9 -12    1.66    0.72
   5   9 -12    0.18    0.51
   5  -9 -12    2.38    0.84
  -5   9 -12    1.25    0.68
  -5   9 -12    1.34    0.68
   5  10 -12    0.96    0.72
   5  10 -12    0.38    0.66
  -5 -10 -12    0.70    0.67
  -5  10 -12    0.45    0.63
   5 -10 -12    0.82    0.70
  -5  10 -12    0.50    0.60
   5   0  13    2.07    0.44
  -5   0 -13    2.68    0.57
   5   0 -13    2.65    0.55
  -5  -1 -13    7.52    0.84
  -5  -1 -13    9.71    0.91
   5  -1  13    7.35    0.77
   5   1 -13    6.49    0.85
  -5   1 -13    7.21    0.87
   5   1  13    7.74    0.76
  -5   1 -13    8.27    0.77
   5  -1 -13    6.88    0.84
   5  -1 -13    6.70    0.81
  -5  -2 -13    0.96    0.46
  -5  -2 -13    1.22    0.42
   5   2 -13    1.07    0.48
   5  -2 -13    1.60    0.55
  -5   2 -13    0.91    0.33
   5   2  13    1.16    0.37
   5  -2 -13    2.50    0.58
  -5   2 -13    1.38    0.46
  -5  -3 -13   28.93    1.35
   5   3 -13   22.71    1.52
  -5  -3 -13   27.22    1.55
   5  -3 -13   24.99    1.53
   5   3  13   25.37    1.29
   5  -3 -13   22.86    1.36
  -5   3 -13   24.53    1.51
  -5  -4 -13    1.80    0.58
   5   4 -13    1.42    0.56
   5   4 -13    1.85    0.44
   5  -4  13    1.84    0.51
   5  -4 -13    1.37    0.47
  -5   4 -13    1.20    0.59
   5   4  13    1.53    0.45
   5  -4 -13    2.32    0.66
   5  -5  13    6.21    0.81
  -5  -5 -13    6.88    1.03
   5   5 -13    5.79    0.71
   5   5 -13    5.81    0.98
   5  -5 -13    4.20    0.64
   5  -5 -13    5.22    0.88
  -5   5 -13    5.74    0.91
   5   5  13    4.35    0.65
   5   6 -13    4.76    0.69
   5  -6  13    5.57    0.83
  -5  -6 -13    4.61    0.84
   5   6 -13    5.40    0.99
  -5   6 -13    5.23    0.90
   5  -6 -13    3.67    0.87
   5   7 -13    0.67    0.61
   5   7 -13    0.74    0.47
   5  -7  13    1.48    0.60
  -5  -7 -13    0.83    0.57
   5  -7 -13    1.41    0.71
  -5   7 -13    1.19    0.65
   5   8 -13    0.23    0.47
   5   8 -13   -0.30    0.42
  -5  -8 -13   -0.19    0.59
   5  -8  13   -0.42    0.49
   5  -8 -13   -0.80    0.56
  -5   8 -13   -0.44    0.52
   5  -9  13    3.42    0.79
  -5  -9 -13    2.93    0.92
   5   9 -13    2.53    0.71
   5   9 -13    4.58    1.05
  -5   9 -13    3.43    0.90
   5  -9 -13    1.77    0.72
   5  10 -13    4.84    1.05
  -5 -10 -13    5.10    1.06
   5  10 -13    8.76    1.22
   5 -10  13    8.33    1.26
  -5  10 -13    6.36    1.23
   5 -10 -13    7.44    1.30
  -5   0 -14    0.10    0.31
   5   0  14   -0.21    0.26
   5   0 -14    0.12    0.35
   5   0 -14   -0.61    0.28
  -5  -1 -14    0.93    0.42
   5   1 -14    0.40    0.41
  -5  -1 -14    0.66    0.39
   5  -1  14    0.44    0.36
   5  -1 -14    1.00    0.48
   5   1  14    1.37    0.39
  -5   1 -14    0.88    0.36
  -5   1 -14    0.63    0.45
   5  -1 -14    0.83    0.45
   5   2 -14   27.52    1.36
   5  -2  14   23.79    1.35
  -5  -2 -14   25.74    1.51
   5   2 -14   26.46    1.61
  -5  -2 -14   24.85    1.40
   5  -2 -14   28.54    1.59
   5   2  14   26.53    1.31
  -5   2 -14   24.75    1.54
   5  -2 -14   23.99    1.48
   5   3 -14    2.49    0.68
  -5  -3 -14    1.71    0.62
   5  -3 -14    1.83    0.54
  -5   3 -14    2.57    0.66
   5  -3 -14    3.42    0.76
   5  -4  14   11.60    1.10
  -5  -4 -14   12.14    1.23
   5   4 -14   11.77    1.27
   5  -4 -14   12.38    1.26
  -5   4 -14   11.21    1.23
   5  -4 -14   12.81    1.01
   5  -5  14   18.28    1.28
   5   5 -14   19.31    1.54
  -5  -5 -14   20.95    1.54
   5  -5 -14   19.04    1.25
   5  -5 -14   19.44    1.47
  -5   5 -14   17.22    1.61
  -5  -6 -14    0.26    0.50
   5   6 -14    0.37    0.49
   5  -6  14    0.27    0.42
   5  -6 -14   -0.14    0.56
  -5   6 -14   -0.56    0.47
   5  -7  14    0.90    0.57
   5   7 -14    1.37    0.74
   5   7 -14    1.92    0.60
  -5  -7 -14    0.02    0.58
   5  -7 -14    1.42    0.70
  -5   7 -14    1.22    0.59
   5   8 -14    5.25    1.11
   5  -8  14    5.09    0.94
   5   8 -14    4.32    0.81
  -5  -8 -14    4.71    0.99
  -5   8 -14    4.22    1.00
   5  -8 -14    4.35    0.98
   5   9 -14    3.22    0.98
   5  -9  14    1.22    0.73
   5   9 -14    2.25    0.71
  -5  -9 -14    0.25    0.66
   5  -9 -14    1.97    0.80
  -5   9 -14    1.52    0.80
   5   0 -15    7.28    0.86
   5   0  15    6.95    0.76
   5   0 -15    7.10    0.93
  -5   0 -15    6.43    0.87
  -5  -1 -15    2.08    0.57
  -5  -1 -15    1.90    0.54
   5  -1  15    1.78    0.45
   5   1 -15    1.80    0.63
   5   1 -15    1.74    0.52
  -5   1 -15    1.46    0.48
   5  -1 -15    1.26    0.54
  -5   1 -15    1.34    0.57
   5  -1 -15    2.60    0.64
   5  -2  15    0.58    0.41
   5   2 -15    1.53    0.48
  -5  -2 -15    1.20    0.49
  -5  -2 -15    1.06    0.49
   5   2 -15    0.28    0.54
   5  -2 -15    0.90    0.51
   5  -2 -15    0.94    0.57
  -5   2 -15    0.68    0.54
  -5  -3 -15    7.09    0.83
  -5  -3 -15    9.82    1.12
   5   3 -15    5.80    0.92
   5  -3 -15    7.26    0.91
  -5   3 -15    6.52    0.94
   5  -3 -15    9.50    1.12
  -5  -4 -15    5.05    0.90
   5   4 -15    3.83    0.86
   5  -4 -15    3.75    0.71
   5  -4 -15    4.53    0.86
  -5   4 -15    5.36    0.92
   5   5 -15    1.03    0.68
  -5  -5 -15    1.02    0.67
   5  -5  15    1.07    0.50
  -5   5 -15    0.76    0.62
   5  -5 -15    0.85    0.49
   5  -5 -15    0.83    0.67
   5  -6  15    2.88    0.71
  -5  -6 -15    1.42    0.67
   5   6 -15    2.81    0.86
   5  -6 -15    1.02    0.73
  -5   6 -15    3.39    0.89
  -5  -7 -15    2.14    0.87
   5  -7  15    2.02    0.69
   5   7 -15    1.51    0.77
   5  -7 -15    2.15    0.85
  -5   7 -15    2.18    0.84
   5   8 -15    0.07    0.68
   5  -8  15    0.20    0.56
  -5  -8 -15   -0.15    0.59
   5  -8 -15   -0.56    0.61
  -5   8 -15   -0.49    0.63
   5  -9  15    4.58    1.01
  -5  -9 -15    2.54    0.98
   5   9 -15    4.22    1.03
  -5   9 -15    2.25    0.97
   5  -9 -15    1.85    0.86
   5   0 -16   -0.67    0.45
   5   0 -16    0.06    0.42
  -5   0 -16   -0.74    0.40
   5   1 -16    4.93    0.92
  -5  -1 -16    6.08    0.87
   5   1 -16    5.25    0.76
  -5  -1 -16    6.23    0.89
  -5   1 -16    5.63    0.93
   5  -1 -16    4.91    0.83
   5  -1 -16    5.00    0.84
  -5  -2 -16    6.29    0.95
   5   2 -16    6.73    1.01
  -5  -2 -16    6.14    0.84
   5  -2 -16    4.64    0.80
   5  -2 -16    4.33    0.82
  -5   2 -16    5.84    0.94
   5  -3  16    0.29    0.42
   5   3 -16    0.12    0.49
  -5  -3 -16    0.73    0.55
   5  -3 -16    1.08    0.53
  -5   3 -16    0.71    0.58
   5  -3 -16    0.98    0.60
   5   4 -16    4.77    0.92
  -5  -4 -16    5.51    0.97
   5  -4 -16    4.71    0.80
   5  -4 -16    3.43    0.83
  -5   4 -16    5.11    0.99
   5   5 -16    7.96    1.23
  -5  -5 -16    5.91    0.99
   5  -5  16    7.83    0.98
  -5   5 -16    5.32    1.00
   5  -5 -16    5.87    1.10
   5  -6  16    1.89    0.65
  -5  -6 -16    1.59    0.72
   5   6 -16    1.58    0.73
  -5   6 -16    1.03    0.74
   5  -6 -16    1.95    0.85
  -5  -7 -16    2.72    0.94
   5   7 -16    2.63    0.86
   5  -7  16    2.97    0.77
   5  -7 -16    2.81    0.92
  -5   7 -16    0.93    0.78
  -5  -8 -16    3.27    0.97
   5  -8  16    4.28    0.92
   5   8 -16    4.30    1.06
  -5   8 -16    4.42    1.10
   5  -8 -16    4.40    1.12
   5   0 -17    8.41    1.15
  -5   0 -17    9.48    1.15
   5   1 -17    2.75    0.79
  -5  -1 -17    1.24    0.55
  -5  -1 -17    2.08    0.66
   5  -1 -17    2.52    0.68
  -5   1 -17    2.44    0.72
   5  -1 -17    1.94    0.69
   5   2 -17    1.94    0.71
  -5  -2 -17    4.22    0.83
  -5  -2 -17    1.60    0.60
   5  -2 -17    1.20    0.56
   5  -2 -17    3.11    0.77
  -5   2 -17    2.34    0.74
  -5  -3 -17    6.58    1.00
   5   3 -17    5.30    1.00
   5  -3 -17    6.15    0.92
   5  -3 -17    5.80    1.06
  -5   3 -17    5.33    1.01
  -5  -4 -17    2.21    0.77
   5   4 -17    0.89    0.68
  -5   4 -17    1.41    0.68
   5  -4 -17    3.04    0.85
   5  -4 -17    2.12    0.64
   5   5 -17    1.15    0.75
  -5  -5 -17   -0.51    0.56
  -5   5 -17    0.06    0.65
   5  -5 -17   -0.71    0.53
  -5  -6 -17    1.73    0.83
   5  -6  17    2.57    0.76
   5   6 -17    2.36    0.84
  -5   6 -17    1.62    0.77
   5  -6 -17    1.18    0.83
   5   7 -17    1.80    0.87
   5  -7  17    1.20    0.71
  -5  -7 -17    2.32    0.91
   5  -7 -17    2.99    0.90
  -5   7 -17    1.30    0.82
  -5   0 -18   -0.16    0.52
   5   0 -18    0.14    0.58
  -5  -1 -18    1.09    0.60
  -5  -1 -18    1.63    0.63
   5   1 -18    2.09    0.71
   5  -1 -18    1.41    0.66
   5  -1 -18    1.56    0.64
  -5   1 -18    1.76    0.70
   5   2 -18    3.27    0.89
  -5  -2 -18    3.25    0.86
   5  -2 -18    3.80    0.86
  -5   2 -18    2.75    0.83
   5  -2 -18    4.37    0.86
  -5  -3 -18   -0.59    0.53
   5   3 -18    0.29    0.64
  -5   3 -18    0.15    0.68
   5  -3 -18    0.16    0.51
   5  -3 -18   -0.42    0.60
  -5  -4 -18    3.58    0.91
   5   4 -18    2.03    0.81
   5  -4 -18    2.11    0.67
  -5   4 -18    0.89    0.67
   5  -4 -18    2.42    0.88
  -5  -5 -18    4.81    1.04
   5   5 -18    1.48    0.76
   5  -5 -18    4.30    1.08
  -5   5 -18    2.89    0.87
  -5  -6 -18    0.34    0.75
   5   6 -18   -0.67    0.54
   5  -6 -18   -0.03    0.73
  -5   6 -18    0.29    0.70
  -5   0 -19    4.61    0.91
   5   0 -19    1.93    0.75
  -5  -1 -19    0.29    0.61
   5   1 -19    0.44    0.64
  -5  -1 -19    0.65    0.63
   5  -1 -19    0.65    0.69
   5  -1 -19   -0.26    0.58
  -5   1 -19    1.38    0.71
   5   2 -19    0.61    0.62
  -5  -2 -19    0.54    0.69
  -5   2 -19    0.57    0.59
   5  -2 -19    0.51    0.61
   5  -2 -19    0.02    0.62
  -5  -3 -19    4.05    0.97
   5   3 -19    4.87    1.10
   5  -3 -19    5.42    0.97
  -5   3 -19    3.94    0.96
   5  -3 -19    3.06    0.97
  -5  -4 -19    0.93    0.75
   5   4 -19    0.75    0.72
  -5   4 -19    1.81    0.85
   5  -4 -19    0.06    0.74
   5   5 -19    0.27    0.76
  -5  -5 -19    0.17    0.80
  -5   5 -19    1.07    0.70
   5  -5 -19   -0.56    0.74
   5   0 -20    0.19    0.64
  -5   0 -20    0.40    0.62
   5   1 -20    0.72    0.69
  -5  -1 -20    0.54    0.62
   5  -1 -20    0.08    0.63
   5  -1 -20    1.09    0.69
  -5   1 -20    1.03    0.72
  -5  -2 -20    1.35    0.76
   5   2 -20    3.01    0.96
   5  -2 -20    0.95    0.69
  -5   2 -20    2.04    0.87
   5  -2 -20    2.08    0.84
  -5  -3 -20   -0.22    0.69
   5   3 -20    0.19    0.75
   5  -3 -20    0.06    0.61
  -5   3 -20    0.44    0.73
   5  -3 -20   -0.65    0.65
   6   0   0  149.17    4.31
   6  -1   0    5.41    0.35
   6   1   0    5.71    0.36
   6   2   0    7.73    0.37
   6  -2   0    7.08    0.41
   6   2   0    7.64    0.45
  -6  -3   0   37.41    1.33
   6   3   0   36.12    1.39
  -6   3   0   39.23    1.36
   6   3   0   37.45    1.23
   6   4   0    3.24    0.44
  -6  -4   0    2.74    0.34
   6   4   0    2.64    0.26
  -6   4   0    2.55    0.37
   6   5   0    0.91    0.31
   6   5   0    0.97    0.19
  -6  -5   0    0.71    0.23
  -6   5   0    1.24    0.33
  -6   6   0    1.90    0.38
   6   6   0    1.48    0.42
  -6  -6   0    2.49    0.38
   6   6   0    1.98    0.26
   6  -7   0   19.44    1.00
  -6   7   0   20.83    1.15
  -6  -7   0   19.25    0.99
   6   7   0   19.34    0.84
   6   7   0   20.47    1.26
  -6   8   0    0.70    0.39
   6  -8   0    0.97    0.35
  -6  -8   0    0.91    0.33
   6   8   0    0.83    0.44
  -6   9   0    3.62    0.70
   6  -9   0    3.82    0.58
  -6  -9   0    3.21    0.52
   6   9   0    3.67    0.75
  -6  10   0   24.88    1.60
   6  10   0   21.52    1.59
  -6  11   0    0.22    0.54
   6  11   0    1.59    0.74
   6  12   0   18.12    1.88
  -6  12   0   15.76    1.60
   6   0  -1   -0.21    0.09
   6   0   1   -0.23    0.12
   6   0  -1   -0.16    0.11
   6  -1   1  148.82    4.27
   6   1  -1  139.48    4.19
   6   1  -1  142.66    4.17
   6   1   1  151.75    4.27
   6  -1  -1  146.12    4.19
   6   2  -1   58.07    1.92
   6   2  -1   60.23    1.86
   6  -2   1   61.22    1.93
  -6  -2  -1   58.55    1.91
   6   2   1   58.83    1.76
   6  -2  -1   58.90    1.86
   6   2   1   59.89    1.95
  -6  -3  -1   62.40    2.06
  -6   3   1   64.00    2.03
   6   3  -1   64.75    1.98
   6   3  -1   60.25    2.09
   6   3   1   61.03    2.10
  -6   3  -1   63.37    2.07
   6   3   1   63.67    1.86
   6   4  -1   47.44    1.77
  -6  -4  -1   48.74    1.68
   6   4  -1   45.64    1.55
  -6   4   1   45.60    1.65
   6   4   1   48.37    1.42
  -6   4  -1   43.36    1.67
   6   4   1   46.64    1.76
   6   5  -1  170.56    5.41
  -6   5   1  178.50    5.30
  -6  -5  -1  176.03    5.27
   6   5  -1  176.10    5.09
   6   5   1  169.60    5.41
   6   5   1  182.93    4.97
  -6  -5   1  177.97    5.18
  -6   5  -1  171.29    5.31
  -6   6   1    4.64    0.55
   6   6  -1    5.57    0.67
  -6  -6  -1    5.20    0.53
   6   6  -1    5.23    0.42
   6   6   1    5.49    0.31
  -6  -6   1    5.91    0.47
  -6   6  -1    4.34    0.57
   6   6   1    4.56    0.65
   6   7  -1   23.11    1.36
  -6   7   1   25.05    1.27
   6  -7   1   22.18    1.06
  -6  -7  -1   24.15    1.16
   6  -7  -1   21.51    1.13
  -6  -7   1   25.08    1.10
  -6   7  -1   24.11    1.30
   6   7   1   23.57    1.35
   6   8  -1   17.98    1.26
   6  -8   1   19.58    0.99
  -6   8   1   21.60    1.26
  -6  -8  -1   17.16    1.02
  -6  -8   1   18.29    0.98
   6  -8  -1   18.53    1.06
  -6   8  -1   20.36    1.25
   6   8   1   17.84    1.25
   6   9  -1    0.92    0.51
  -6   9   1    1.46    0.51
  -6  -9  -1    1.72    0.43
   6   9   1    2.20    0.60
  -6   9  -1    1.85    0.55
  -6  -9   1    1.76    0.41
   6  -9  -1    1.85    0.46
  -6 -10  -1    1.50    0.47
  -6  10   1    1.20    0.57
   6  10  -1    1.41    0.65
   6  10   1    2.18    0.69
  -6  10  -1    1.24    0.57
   6  11  -1    8.82    1.29
  -6  11   1    5.51    0.93
   6  11   1    6.57    1.08
  -6  11  -1    6.92    1.05
  -6  12   1    4.26    1.01
   6  12  -1    4.30    1.06
  -6  12  -1    5.83    1.07
   6  12   1    2.65    0.89
   6   0  -2  137.72    3.85
   6   0  -2  136.25    3.93
   6   0   2  130.46    4.00
   6  -1   2   66.79    2.15
  -6  -1  -2   66.50    2.10
   6   1  -2   69.51    2.10
   6   1  -2   65.94    2.03
   6   1   2   64.73    2.13
   6  -1  -2   65.94    2.01
   6  -1  -2   67.72    2.09
   6   2  -2   38.06    1.33
  -6  -2  -2   37.54    1.35
   6  -2   2   38.56    1.36
   6   2   2   37.66    1.37
   6  -2  -2   38.02    1.25
   6   3  -2   97.44    2.96
  -6  -3  -2  102.77    3.05
  -6   3   2   87.49    2.89
   6   3  -2   98.07    3.04
   6   3   2   95.10    3.05
  -6   3  -2   96.36    3.01
   6   3   2   98.86    2.72
  -6   4   2   10.93    0.63
   6   4  -2   12.05    0.73
  -6  -4  -2   12.78    0.70
   6   4  -2   14.12    0.67
   6   4   2   13.65    0.77
  -6   4  -2   12.71    0.72
  -6   5   2    2.58    0.41
   6   5  -2    3.24    0.38
   6   5  -2    2.97    0.48
  -6  -5  -2    2.18    0.37
  -6   5  -2    2.37    0.41
   6   5   2    2.17    0.42
  -6   6   2   39.27    1.64
  -6  -6  -2   41.63    1.65
   6   6  -2   41.24    1.53
   6   6  -2   37.64    1.74
   6   6   2   42.43    1.81
  -6   6  -2   40.03    1.70
  -6   7   2    9.14    0.87
   6   7  -2   10.07    0.67
   6  -7   2   10.90    0.64
   6   7  -2   11.30    1.07
  -6  -7  -2   11.26    0.79
   6  -7  -2    9.95    0.76
  -6  -7   2   10.16    0.64
   6   7   2   10.13    1.00
  -6   7  -2   10.01    0.82
   6   8  -2    1.19    0.49
  -6   8   2    1.60    0.48
  -6  -8  -2    0.55    0.33
   6  -8   2    1.36    0.32
  -6   8  -2    1.36    0.49
   6  -8  -2    1.85    0.42
  -6  -8   2    1.64    0.35
   6   8   2    1.42    0.53
   6   9  -2   22.30    1.51
  -6  -9  -2   24.45    1.31
  -6   9   2   20.28    1.37
   6  -9  -2   24.28    1.34
   6   9   2   25.75    1.62
  -6   9  -2   24.64    1.50
  -6 -10  -2   29.30    1.57
  -6  10   2   32.28    1.76
   6  10  -2   29.24    1.86
   6  10   2   31.26    1.92
  -6  10  -2   28.61    1.73
   6 -10  -2   30.91    1.58
  -6  11   2   -0.25    0.44
   6  11  -2    0.37    0.58
   6  11   2    0.94    0.63
  -6  11  -2    0.70    0.56
   6  12  -2   17.09    1.84
  -6  12   2   14.02    1.50
   6  12   2   13.61    1.62
  -6  12  -2   13.61    1.54
   6   0   3   -0.19    0.11
  -6   0  -3    0.03    0.10
   6   0  -3    0.09    0.09
   6   0  -3   -0.18    0.10
  -6  -1  -3   22.90    0.91
   6  -1   3   21.49    0.94
   6   1  -3   23.18    0.82
   6   1  -3   21.90    0.91
   6   1   3   22.70    0.94
   6  -1  -3   21.67    0.89
   6  -1  -3   22.82    0.77
   6   2  -3   17.98    0.80
   6  -2   3   18.10    0.81
  -6  -2  -3   16.52    0.80
   6   2  -3   19.39    0.78
   6  -2  -3   17.67    0.66
  -6   2  -3   17.29    0.81
   6   2   3   17.44    0.80
   6  -2  -3   16.39    0.75
   6  -3   3    1.51    0.28
  -6   3   3    2.02    0.25
   6   3  -3    1.53    0.29
  -6  -3  -3    1.44    0.27
   6   3   3    1.77    0.12
   6  -3  -3    1.81    0.27
   6   3   3    2.88    0.38
  -6  -4  -3   25.27    1.12
   6   4  -3   24.25    1.13
  -6   4   3   26.12    1.03
   6   4   3   26.13    1.16
  -6   4  -3   23.91    1.10
  -6  -5  -3   77.84    2.75
   6   5  -3   79.09    2.66
   6   5  -3   83.38    2.85
  -6   5  -3   84.05    2.80
   6   5   3   81.36    2.84
  -6   6   3    7.94    0.64
   6   6  -3    8.13    0.61
  -6  -6  -3    7.78    0.64
   6   6  -3    7.34    0.80
   6   6   3    9.81    0.91
  -6   6  -3    8.02    0.77
  -6  -7  -3   40.80    1.73
  -6   7   3   40.66    1.73
   6   7  -3   39.77    1.60
   6   7  -3   36.52    1.81
   6  -7   3   38.70    1.42
   6  -7  -3   40.53    1.74
  -6   7  -3   39.95    1.78
   6   7   3   38.63    1.86
  -6  -8  -3   22.97    1.26
   6   8  -3   20.60    1.36
   6   8  -3   22.30    1.13
  -6   8   3   20.88    1.26
   6  -8  -3   22.81    1.27
   6   8   3   22.57    1.41
  -6   8  -3   22.12    1.34
  -6  -9  -3    0.51    0.39
  -6   9   3    0.92    0.47
   6   9  -3    0.70    0.46
  -6   9  -3    1.12    0.52
   6  -9  -3    0.94    0.40
   6   9   3    1.11    0.49
  -6  10   3    2.38    0.64
  -6 -10  -3    1.77    0.53
   6  10  -3    1.26    0.62
  -6  10  -3    2.56    0.65
   6  10   3    2.28    0.69
   6 -10  -3    1.26    0.45
  -6  11   3    4.63    0.85
   6  11  -3    6.81    1.13
  -6 -11  -3    5.45    0.80
   6  11   3    4.72    0.95
  -6  11  -3    4.08    0.79
  -6  12   3    6.04    1.05
   6  12  -3    7.79    1.32
  -6  12  -3    7.40    1.11
   6  12   3    7.89    1.28
  -6   0  -4  191.17    5.47
   6   0   4  188.22    5.61
  -6   0  -4  187.38    5.49
   6   0  -4  194.37    5.54
   6   0  -4  191.16    5.30
   6   1  -4    7.37    0.49
   6   1  -4    6.49    0.37
   6  -1   4    6.64    0.48
  -6  -1  -4    6.30    0.39
  -6  -1  -4    7.24    0.48
  -6   1  -4    7.22    0.47
   6  -1  -4    7.68    0.31
   6   1   4    7.27    0.51
   6  -1  -4    6.71    0.45
   6  -2   4   87.20    2.74
   6   2  -4   87.25    2.64
   6   2  -4   79.82    2.71
  -6  -2  -4   84.21    2.74
  -6   2  -4   84.65    2.75
   6  -2  -4   87.16    2.48
   6  -2  -4   85.13    2.67
   6   2   4   86.80    2.75
   6   3  -4   25.32    1.11
  -6   3   4   26.22    0.93
   6   3  -4   24.71    1.07
  -6  -3  -4   26.16    1.13
   6  -3   4   26.05    1.10
  -6   3  -4   23.99    1.12
   6  -3  -4   27.03    1.06
   6   3   4   24.59    1.10
   6   4  -4   23.24    1.12
  -6   4   4   25.57    1.00
  -6  -4  -4   24.86    1.15
   6   4  -4   27.08    1.15
  -6   4  -4   23.68    1.14
   6  -4  -4   25.04    1.04
   6   4   4   23.97    1.14
  -6   4  -4   25.27    1.13
  -6  -5  -4    5.22    0.61
   6   5  -4    5.84    0.66
  -6   5   4    5.99    0.54
  -6   5  -4    4.93    0.61
   6   5   4    5.95    0.64
   6  -5  -4    5.73    0.53
  -6   5  -4    5.29    0.59
   6   6  -4   19.15    1.15
   6   6  -4   21.59    1.10
  -6  -6  -4   20.55    1.11
   6   6   4   22.23    1.23
  -6   6  -4   21.74    1.16
   6   7  -4    6.99    0.72
  -6  -7  -4    7.30    0.79
   6   7  -4    6.78    0.82
  -6   7   4    6.75    0.71
   6  -7  -4    7.46    0.80
  -6   7  -4    5.96    0.74
   6   7   4    6.73    0.82
   6   8  -4    2.96    0.51
  -6   8   4    2.13    0.54
  -6  -8  -4    1.62    0.46
   6   8  -4    1.50    0.51
   6  -8  -4    1.85    0.49
  -6   8  -4    1.70    0.47
   6   8   4    1.66    0.55
  -6   9   4   11.13    1.10
   6   9  -4   10.09    1.21
  -6  -9  -4    9.20    0.98
   6  -9  -4    9.70    1.00
  -6   9  -4   11.35    1.17
   6   9   4   11.84    1.27
  -6 -10  -4   15.35    1.18
   6  10  -4   17.82    1.69
  -6  10   4   16.00    1.27
   6 -10  -4   16.41    1.22
  -6  10  -4   17.69    1.36
   6  10   4   19.45    1.76
  -6  11   4    0.31    0.51
  -6 -11  -4    0.04    0.40
   6  11  -4    0.32    0.58
  -6  11  -4    0.81    0.57
   6  11   4    0.21    0.53
   6 -11  -4    0.53    0.46
   6  12  -4   12.48    1.58
  -6  12   4   10.03    1.29
  -6  12  -4   10.51    1.35
   6  12   4   12.67    1.62
  -6   0  -5   -0.04    0.12
   6   0  -5   -0.09    0.07
   6   0  -5    0.14    0.16
   6   0   5   -0.12    0.15
  -6   0  -5   -0.06    0.14
   6   1  -5   63.64    1.93
  -6  -1  -5   62.93    2.00
   6  -1   5   65.91    2.17
  -6  -1  -5   60.54    2.09
   6   1  -5   62.68    2.15
  -6   1  -5   58.72    1.97
  -6   1  -5   64.35    2.12
   6  -1  -5   62.88    1.78
   6   1   5   63.49    2.17
   6  -1  -5   61.88    2.10
   6  -1  -5   65.56    1.78
   6  -2   5  156.63    4.69
   6   2  -5  149.72    4.69
  -6  -2  -5  153.86    4.71
  -6  -2  -5  154.72    4.43
   6   2  -5  152.00    4.55
   6  -2  -5  158.44    4.36
   6  -2  -5  164.36    4.65
  -6   2  -5  157.19    4.71
   6   2   5  153.49    4.69
  -6   3   5   26.35    0.92
   6   3  -5   25.81    1.09
   6  -3   5   25.45    1.13
   6   3  -5   25.35    1.17
  -6  -3  -5   26.40    1.18
   6  -3  -5   25.31    1.08
  -6   3  -5   25.25    1.18
   6   3   5   27.38    1.17
  -6   4   5   18.94    0.79
   6   4  -5   18.59    0.95
  -6  -4  -5   17.35    0.96
   6   4  -5   18.07    0.95
  -6   4  -5   18.52    0.99
   6  -4  -5   17.51    0.85
  -6   4  -5   18.28    0.95
   6   4   5   16.51    0.94
   6   5  -5  135.80    4.34
  -6  -5  -5  132.43    4.34
  -6   5   5  138.91    4.13
   6   5  -5  134.04    4.29
  -6   5  -5  133.25    4.35
   6   5   5  134.01    4.35
  -6   5  -5  135.64    4.31
   6  -5  -5  135.14    4.12
   6   6  -5    9.76    0.80
  -6   6   5   10.38    0.71
  -6  -6  -5   10.14    0.78
   6  -6  -5    9.76    0.64
  -6   6  -5    7.65    0.79
  -6   6  -5    9.90    0.77
   6   6   5    8.67    0.88
  -6  -7  -5   16.98    1.10
   6   7  -5   15.64    1.13
   6   7  -5   16.86    1.13
  -6   7  -5   17.56    1.12
   6  -7  -5   17.58    0.92
  -6   7  -5   14.23    1.04
   6   7   5   17.70    1.17
   6  -7  -5   15.18    1.07
   6   8  -5   14.85    1.21
   6   8  -5   15.29    1.03
  -6  -8  -5   15.22    1.07
   6   8   5   17.63    1.25
   6  -8  -5   16.69    0.94
   6  -8  -5   15.80    1.13
  -6   8  -5   17.34    1.19
   6   9  -5    1.88    0.62
  -6  -9  -5    1.82    0.54
  -6   9   5    1.92    0.55
   6   9  -5    1.30    0.43
   6  -9  -5    1.12    0.44
  -6   9  -5    1.75    0.60
   6   9   5    2.27    0.62
  -6  10   5    0.02    0.45
   6  10  -5    0.30    0.52
  -6 -10  -5   -0.42    0.32
  -6  10  -5    0.00    0.50
   6 -10  -5    0.24    0.42
   6  10   5   -0.12    0.49
   6  11  -5    6.11    1.14
  -6  11   5    6.25    0.98
  -6 -11  -5    6.72    0.97
  -6  11  -5    8.45    1.15
   6 -11  -5    5.77    0.91
   6  11   5    7.89    1.22
  -6 -12  -5    6.86    1.02
  -6  12   5    7.89    1.18
   6  12  -5    5.54    1.16
   6  12   5    7.09    1.21
  -6  12  -5    7.58    1.22
  -6   0  -6   38.46    1.45
   6   0  -6   38.40    1.51
   6   0  -6   39.02    1.17
   6   0   6   40.82    1.55
  -6   0  -6   40.14    1.44
  -6  -1  -6   15.52    0.79
   6   1  -6   14.28    0.80
   6   1  -6   15.69    0.61
  -6  -1  -6   15.99    0.72
   6  -1   6   13.82    0.78
   6  -1  -6   15.35    0.80
  -6   1  -6   14.87    0.68
   6   1   6   13.95    0.79
  -6   1  -6   15.50    0.81
   6   2  -6    0.48    0.18
   6  -2   6   -0.09    0.17
  -6  -2  -6    0.01    0.19
  -6  -2  -6    0.16    0.13
   6   2  -6    0.29    0.20
   6  -2  -6    0.50    0.20
  -6   2  -6    0.17    0.20
   6  -2  -6    0.27    0.08
   6  -2  -6    0.15    0.08
   6   2   6    0.22    0.19
   6   3  -6   74.66    2.40
   6  -3   6   70.81    2.46
  -6  -3  -6   71.52    2.52
  -6  -3  -6   72.59    2.16
   6   3  -6   72.59    2.55
  -6   3   6   73.29    2.15
   6   3   6   70.61    2.47
  -6   3  -6   74.74    2.57
   6  -3  -6   68.53    2.39
   6  -4   6   13.57    0.85
  -6  -4  -6   14.63    0.90
   6   4  -6   17.26    0.90
   6   4  -6   16.64    0.95
  -6   4   6   15.25    0.69
   6   4   6   14.72    0.88
  -6   4  -6   18.26    1.01
   6  -4  -6   16.44    0.82
  -6   5   6    1.64    0.32
   6   5  -6    2.20    0.45
   6   5  -6    1.67    0.40
  -6  -5  -6    1.93    0.46
  -6   5  -6    1.42    0.40
  -6   5  -6    1.73    0.41
   6   5   6    2.16    0.45
   6  -5  -6    1.61    0.33
  -6   6   6    9.91    0.68
  -6  -6  -6   10.30    0.83
   6   6  -6    8.05    0.82
   6   6  -6    8.43    0.82
  -6   6  -6   10.39    0.83
  -6   6  -6    9.42    0.91
   6   6   6    9.52    0.94
   6  -6  -6    9.47    0.65
   6   7  -6    4.80    0.70
  -6   7   6    4.23    0.58
  -6  -7  -6    4.58    0.71
  -6   7  -6    5.82    0.78
  -6   7  -6    5.46    0.75
   6   7   6    4.89    0.71
   6  -7  -6    4.37    0.66
   6  -7  -6    5.16    0.57
   6   8  -6    2.92    0.64
  -6  -8  -6    2.94    0.60
   6  -8  -6    3.57    0.68
   6   8   6    3.52    0.74
  -6   8  -6    2.46    0.60
  -6   8  -6    2.72    0.58
  -6  -9  -6    9.01    1.02
   6   9  -6    7.80    0.88
   6   9  -6    6.64    0.96
   6   9   6    7.54    1.04
  -6   9  -6    6.03    0.88
   6  -9  -6    9.69    1.10
  -6 -10  -6   16.84    1.32
  -6  10   6   16.06    1.28
   6  10  -6   17.87    1.65
   6  10   6   18.21    1.45
   6 -10  -6   17.12    1.36
  -6  10  -6   17.91    1.41
  -6 -11  -6    0.03    0.49
   6  11  -6    0.39    0.62
  -6  11   6   -0.22    0.44
   6 -11  -6    1.12    0.54
   6  11   6    1.06    0.58
  -6  11  -6    1.43    0.66
  -6 -12  -6    6.82    1.04
   6  12  -6    5.49    1.11
  -6  12   6    8.14    1.22
  -6  12  -6    7.41    1.19
   6  12   6    7.40    1.28
   6   0  -7   -0.02    0.05
   6   0   7   -0.13    0.17
  -6   0  -7   -0.14    0.13
   6   0  -7    0.02    0.16
  -6   0  -7   -0.02    0.15
   6  -1   7    2.26    0.39
   6   1  -7    1.01    0.29
   6   1  -7    1.44    0.20
  -6  -1  -7    1.69    0.29
  -6  -1  -7    1.98    0.36
  -6   1  -7    1.48    0.30
   6   1   7    2.15    0.39
  -6   1  -7    1.54    0.26
   6  -1  -7    1.37    0.31
   6  -2   7    8.77    0.64
  -6  -2  -7   10.09    0.68
  -6  -2  -7   11.10    0.57
   6   2  -7   10.23    0.55
   6   2  -7    9.44    0.70
   6  -2  -7   11.63    0.70
  -6   2  -7   10.95    0.72
  -6   2  -7    9.78    0.51
   6   2   7    9.88    0.66
  -6  -3  -7   11.47    0.55
   6   3  -7   11.66    0.68
   6   3  -7   13.07    0.85
  -6   3   7   11.60    0.46
   6  -3   7   10.87    0.74
  -6  -3  -7   11.24    0.79
  -6   3  -7   12.17    0.83
   6  -3  -7   11.67    0.72
   6   3   7   11.23    0.74
   6   4  -7   63.86    2.36
  -6   4   7   62.67    1.94
   6  -4   7   61.88    2.25
  -6  -4  -7   61.74    1.83
   6   4  -7   57.03    2.16
  -6  -4  -7   53.85    2.25
  -6   4  -7   57.98    2.32
   6   4   7   65.47    2.29
   6  -4  -7   62.61    2.16
   6   5  -7   40.09    1.79
  -6  -5  -7   38.97    1.76
   6   5  -7   43.23    1.73
  -6   5   7   40.18    1.48
   6   5   7   41.57    1.74
  -6   5  -7   40.02    1.80
   6  -5  -7   39.67    1.57
  -6   5  -7   37.86    1.67
   6   6  -7    0.49    0.33
  -6  -6  -7   -0.34    0.24
   6   6  -7    0.31    0.33
  -6   6   7    0.12    0.23
  -6   6  -7   -0.31    0.22
   6  -6  -7    0.06    0.31
   6   6   7    0.70    0.34
   6  -6  -7    0.14    0.21
  -6   6  -7   -0.13    0.28
  -6   7   7   29.52    1.35
   6   7  -7   27.56    1.54
  -6  -7  -7   26.62    1.50
   6   7  -7   28.81    1.51
   6  -7  -7   25.08    1.49
   6  -7  -7   28.51    1.28
  -6   7  -7   29.18    1.60
   6   7   7   27.81    1.54
  -6   7  -7   27.53    1.52
   6   8  -7   25.09    1.59
  -6   8   7   28.46    1.43
  -6  -8  -7   28.86    1.64
   6   8  -7   29.71    1.67
   6  -8  -7   30.22    1.66
  -6   8  -7   28.39    1.58
   6   8   7   28.66    1.67
  -6   8  -7   28.75    1.65
  -6  -9  -7    0.21    0.38
   6   9  -7    0.47    0.46
  -6   9   7   -0.03    0.35
   6  -9  -7   -0.10    0.33
   6   9   7    0.59    0.54
  -6   9  -7    0.10    0.44
   6  10  -7    4.74    0.93
  -6 -10  -7    4.42    0.82
  -6  10  -7    3.90    0.78
   6  10   7    6.73    1.10
   6 -10  -7    5.37    0.90
   6  11  -7    7.89    1.20
  -6 -11  -7    8.59    1.13
  -6  11  -7    8.13    1.18
   6  11   7    8.27    1.21
   6 -11  -7    8.25    1.11
  -6 -12  -7    1.62    0.74
   6  12  -7    1.04    0.70
  -6  12  -7    3.59    0.96
   6 -12  -7    2.76    0.81
   6  12   7    2.00    0.81
  -6   0  -8  128.39    3.91
  -6   0  -8  129.53    3.94
   6   0   8  121.06    3.98
   6   0  -8  121.66    3.99
   6  -1   8   37.27    1.51
  -6  -1  -8   35.33    1.45
  -6  -1  -8   34.91    1.39
   6   1  -8   33.92    1.51
   6   1  -8   36.34    1.17
   6  -1  -8   35.14    1.48
  -6   1  -8   35.39    1.49
  -6   1  -8   34.80    1.33
   6   1   8   33.72    1.48
   6   2  -8   25.80    1.00
  -6  -2  -8   24.58    1.04
  -6  -2  -8   26.23    1.22
   6   2  -8   25.49    1.26
   6  -2   8   23.13    1.14
   6   2   8   25.88    1.19
   6  -2  -8   24.49    1.16
  -6   2  -8   24.79    1.23
  -6   2  -8   24.21    0.97
   6   3  -8   42.54    1.79
   6  -3   8   42.65    1.68
  -6  -3  -8   39.77    1.72
   6   3  -8   42.88    1.56
  -6  -3  -8   40.86    1.44
   6  -3  -8   40.83    1.23
   6   3   8   41.08    1.66
   6  -3  -8   40.68    1.64
  -6   3  -8   42.25    1.78
   6  -4   8   10.24    0.74
   6   4  -8    9.94    0.70
  -6  -4  -8    7.86    0.79
  -6   4   8   10.14    0.49
  -6  -4  -8   10.01    0.50
   6   4  -8    8.99    0.88
  -6   4  -8   11.58    0.86
   6   4   8    9.99    0.75
   6  -4  -8   11.59    0.73
   6   5  -8    3.15    0.52
   6   5  -8    2.89    0.55
   6  -5   8    2.54    0.50
  -6   5   8    2.17    0.33
  -6  -5  -8    1.87    0.47
   6   5   8    2.06    0.46
  -6   5  -8    2.72    0.58
   6  -5  -8    2.46    0.40
  -6   6   8   10.66    0.68
  -6  -6  -8    9.80    0.98
   6   6  -8    9.63    0.97
   6   6  -8    8.30    0.85
  -6   6  -8    8.07    0.91
   6  -6  -8    9.10    0.96
  -6   6  -8   10.06    0.82
   6  -6  -8    9.97    0.71
   6   6   8    9.74    0.96
  -6  -7  -8   26.68    1.57
   6   7  -8   24.78    1.45
   6   7  -8   25.82    1.51
  -6   7   8   26.44    1.29
  -6   7  -8   28.89    1.53
   6   7   8   26.23    1.52
   6  -7  -8   28.00    1.29
  -6   7  -8   28.67    1.63
   6  -7  -8   26.53    1.58
   6   8  -8    3.40    0.67
  -6  -8  -8    2.32    0.63
   6   8  -8    2.15    0.63
  -6   8   8    3.00    0.56
  -6   8  -8    5.06    0.85
  -6   8  -8    3.73    0.69
   6  -8  -8    4.52    0.83
   6   8   8    3.67    0.76
   6   9  -8    5.05    0.84
  -6  -9  -8    6.14    0.91
   6   9  -8    5.35    0.91
   6   9   8    6.78    1.02
   6  -9  -8    6.37    0.98
  -6   9  -8    5.75    0.89
  -6   9  -8    4.43    0.85
   6  10  -8   18.83    1.73
  -6 -10  -8   17.04    1.60
   6  10   8   18.25    1.72
   6 -10  -8   19.53    1.53
  -6  10  -8   17.74    1.46
  -6 -11  -8    0.67    0.59
   6  11  -8    1.58    0.72
   6 -11  -8    0.64    0.57
  -6  11  -8    0.75    0.67
   6  11   8    0.67    0.65
  -6   0  -9    0.15    0.22
  -6   0  -9   -0.45    0.20
   6   0   9    0.20    0.24
   6   0  -9   -0.25    0.20
   6   1  -9   13.31    0.88
  -6  -1  -9   13.73    0.83
  -6  -1  -9   13.15    0.77
   6   1  -9   12.60    0.53
   6  -1   9   13.40    0.84
   6   1   9    9.90    0.75
   6  -1  -9   12.05    0.81
  -6   1  -9   12.99    0.72
  -6   1  -9   13.04    0.86
  -6  -2  -9   10.41    0.76
   6   2  -9   10.06    0.57
   6  -2   9   10.72    0.73
   6   2  -9   10.60    0.84
  -6  -2  -9   11.72    0.68
  -6   2  -9    9.63    0.76
  -6   2  -9   10.66    0.59
   6  -2  -9   10.64    0.76
   6   3  -9    1.91    0.35
   6  -3   9    1.59    0.38
  -6  -3  -9    1.45    0.43
  -6  -3  -9    1.85    0.31
   6   3  -9    1.15    0.38
   6   3   9    0.86    0.28
  -6   3  -9    1.33    0.40
   6  -3  -9    1.54    0.38
  -6  -4  -9   13.91    0.66
   6   4  -9   13.83    0.98
   6  -4   9   12.19    0.85
  -6  -4  -9   13.84    0.98
   6   4  -9   13.37    0.81
   6   4   9   12.14    0.85
  -6   4  -9   13.90    1.01
   6  -4  -9   14.14    0.85
  -6  -5  -9    9.78    0.95
   6  -5   9   10.73    0.82
   6   5  -9    9.58    0.77
   6   5  -9   12.05    1.10
   6  -5  -9    8.70    0.69
   6   5   9   10.68    0.82
  -6   5  -9   11.46    1.07
   6   6  -9   -0.27    0.28
   6  -6   9    0.33    0.41
  -6  -6  -9    0.23    0.35
   6   6  -9    0.18    0.36
   6   6   9    0.13    0.30
  -6   6  -9    0.68    0.41
   6  -6  -9    0.41    0.27
   6  -6  -9   -0.25    0.31
  -6   6  -9    0.53    0.42
   6   7  -9   19.94    1.33
   6   7  -9   15.99    1.17
  -6  -7  -9   18.63    1.31
  -6   7  -9   17.81    1.20
   6  -7  -9   18.09    1.30
  -6   7  -9   16.28    1.26
   6   7   9   18.82    1.24
  -6  -8  -9   10.75    1.20
   6   8  -9   10.35    1.14
   6   8  -9   12.85    1.28
  -6   8  -9   11.61    1.21
   6  -8  -9    9.36    1.11
  -6   8  -9   10.36    1.07
   6   8   9   11.77    1.25
  -6  -9  -9   -0.13    0.45
   6   9  -9   -0.23    0.39
   6   9  -9   -0.42    0.38
  -6   9  -9    0.33    0.47
   6  -9  -9    0.35    0.49
  -6   9  -9   -0.35    0.39
   6   9   9    0.22    0.48
   6  10  -9    3.00    0.83
  -6 -10  -9    3.00    0.80
   6  10  -9    3.98    0.83
   6  10   9    2.44    0.76
  -6  10  -9    2.21    0.74
  -6  10  -9    2.16    0.70
   6 -10  -9    3.33    0.85
   6  11  -9    1.80    0.80
  -6 -11  -9    4.25    0.94
  -6  11  -9    4.39    0.90
   6 -11  -9    2.29    0.83
   6  11   9    2.22    0.80
   6   0  10   38.23    1.80
   6   0 -10   57.37    2.08
  -6   0 -10   54.87    1.99
  -6   0 -10   45.66    1.82
  -6  -1 -10   36.30    1.54
   6  -1  10   37.37    1.60
   6   1 -10   33.94    1.65
  -6  -1 -10   37.93    1.59
  -6   1 -10   36.67    1.63
   6  -1 -10   36.50    1.63
  -6   1 -10   36.90    1.46
  -6  -2 -10    3.88    0.48
   6   2 -10    4.16    0.40
   6   2 -10    4.30    0.64
   6  -2  10    3.68    0.54
  -6  -2 -10    3.05    0.53
   6  -2 -10    4.46    0.60
   6   2  10    2.31    0.44
  -6   2 -10    5.60    0.70
  -6   2 -10    4.62    0.46
   6   3 -10   38.11    1.84
   6   3 -10   42.19    1.56
  -6  -3 -10   40.30    1.55
   6  -3  10   40.68    1.74
  -6  -3 -10   42.06    1.84
  -6   3 -10   40.39    1.43
   6  -3 -10   41.22    1.73
  -6   3 -10   42.48    1.90
   6   4 -10    7.29    0.84
   6  -4  10    7.44    0.77
  -6  -4 -10    8.09    0.53
   6   4 -10    6.77    0.66
  -6  -4 -10    6.58    0.79
  -6   4 -10    5.80    0.78
   6  -4 -10    7.85    0.74
   6   5 -10   -0.06    0.31
  -6  -5 -10    0.09    0.36
   6  -5  10    0.07    0.31
   6   5 -10   -0.03    0.33
   6  -5 -10   -0.07    0.33
  -6   5 -10    0.11    0.38
   6  -5 -10    0.86    0.34
   6   6 -10   20.67    1.37
   6   6 -10   22.12    1.26
   6  -6  10   22.64    1.31
  -6  -6 -10   18.53    1.30
  -6   6 -10   21.33    1.40
   6  -6 -10   20.27    1.14
   6  -6 -10   23.96    1.48
   6   7 -10   15.20    1.38
   6   7 -10   11.40    1.10
  -6  -7 -10   11.35    1.18
   6  -7  10   11.60    1.15
  -6   7 -10   14.06    1.23
   6  -7 -10   11.29    1.23
   6   7  10   12.18    1.18
  -6   7 -10   13.77    1.33
   6   8 -10    1.58    0.56
  -6  -8 -10    2.11    0.72
   6   8 -10    2.05    0.64
  -6   8 -10    1.58    0.55
   6   8  10    2.50    0.68
   6  -8 -10    2.07    0.70
  -6   8 -10    1.78    0.60
   6   9 -10    4.83    0.89
  -6  -9 -10    6.29    1.01
   6   9 -10    6.35    1.01
  -6   9 -10    5.09    0.86
  -6   9 -10    7.31    1.06
   6  -9 -10    6.83    1.11
   6   9  10    5.74    0.94
  -6 -10 -10    7.45    1.14
   6  10 -10    5.12    0.94
   6  10 -10    6.86    1.09
  -6  10 -10    8.81    1.21
   6  10  10    6.51    1.08
  -6  10 -10    6.70    1.02
   6 -10 -10    7.07    1.14
  -6 -11 -10    0.02    0.59
   6  11 -10    0.55    0.65
  -6  11 -10    0.07    0.62
   6 -11 -10    0.82    0.68
   6  11  10    0.02    0.60
   6   0  11   -0.16    0.14
  -6   0 -11   -0.24    0.22
  -6   0 -11   -0.68    0.22
   6   0 -11   -0.45    0.23
  -6  -1 -11    0.86    0.34
  -6  -1 -11    1.05    0.36
   6  -1  11    0.74    0.34
   6   1 -11    0.27    0.33
  -6   1 -11    0.86    0.31
   6   1  11    0.43    0.31
   6  -1 -11    0.60    0.32
  -6   1 -11    0.74    0.37
   6   2 -11   16.06    1.11
   6   2 -11   14.98    0.72
   6  -2  11   15.52    0.97
  -6  -2 -11   14.13    1.00
  -6  -2 -11   15.34    0.91
  -6   2 -11   15.53    0.83
   6   2  11   16.20    0.97
  -6   2 -11   16.35    1.10
   6  -2 -11   16.11    1.03
   6   3 -11    3.82    0.69
  -6  -3 -11    4.63    0.54
  -6  -3 -11    4.81    0.67
   6   3 -11    4.93    0.51
   6  -3  11    4.21    0.62
   6   3  11    4.98    0.63
   6  -3 -11    4.48    0.60
  -6   3 -11    5.20    0.75
   6  -4  11    7.49    0.81
  -6  -4 -11    8.09    0.91
  -6  -4 -11    7.34    0.58
   6   4 -11    7.02    0.68
   6   4 -11   10.03    1.09
   6  -4 -11    7.63    0.90
   6   4  11    7.64    0.78
  -6   4 -11    6.12    0.81
   6  -4 -11    7.62    0.78
  -6  -5 -11   30.52    1.66
   6   5 -11   27.63    1.62
   6  -5  11   30.85    1.54
   6   5 -11   26.91    1.38
  -6   5 -11   25.04    1.60
   6  -5 -11   27.01    1.39
   6  -5 -11   34.70    1.78
  -6  -6 -11   -0.45    0.35
   6  -6  11   -0.14    0.33
   6   6 -11   -0.02    0.37
   6   6 -11    0.27    0.37
  -6   6 -11   -0.49    0.40
   6  -6 -11    0.68    0.51
   6  -6 -11   -0.15    0.30
   6  -7  11    6.85    0.91
   6   7 -11    9.17    1.14
  -6  -7 -11    9.61    1.18
   6   7 -11    7.25    0.90
  -6   7 -11    6.60    0.98
   6  -7 -11    8.53    1.17
   6   8 -11   11.00    1.15
   6   8 -11    7.83    1.09
  -6  -8 -11    9.44    1.19
   6  -8  11   10.84    1.18
  -6   8 -11   10.00    1.25
   6   8  11   10.53    1.25
   6  -8 -11    9.25    1.20
  -6  -9 -11    0.06    0.53
   6   9 -11    0.43    0.56
   6  -9  11    0.16    0.46
   6   9 -11    0.95    0.58
  -6   9 -11   -0.29    0.51
   6  -9 -11   -0.44    0.43
  -6   9 -11    0.63    0.53
   6   9  11    0.36    0.49
   6  10 -11    0.87    0.66
  -6 -10 -11    2.44    0.80
   6  10 -11    2.76    0.84
   6  10  11    2.19    0.76
  -6  10 -11    2.10    0.76
   6 -10 -11    1.00    0.73
  -6  10 -11    1.45    0.70
  -6 -11 -11    2.44    0.85
   6  11 -11    2.00    0.82
  -6  11 -11    2.45    0.82
   6 -11 -11    2.04    0.78
  -6  11 -11    3.21    0.85
   6   0  12   21.09    1.15
   6   0 -12   19.53    1.25
  -6   0 -12   17.95    1.12
  -6  -1 -12   13.49    0.92
   6   1 -12   10.14    1.03
  -6  -1 -12   13.23    0.95
  -6   1 -12   11.53    0.81
  -6   1 -12   13.77    1.01
   6   1  12   13.66    0.91
   6  -1 -12   12.48    0.97
  -6  -2 -12    1.31    0.44
   6  -2  12    0.82    0.38
   6   2 -12    1.81    0.52
  -6  -2 -12    2.11    0.45
   6   2  12    1.79    0.42
   6  -2 -12    2.42    0.50
  -6   2 -12    1.25    0.50
  -6   2 -12    1.71    0.36
   6  -3  12   31.96    1.54
   6   3 -12   30.70    1.72
  -6  -3 -12   32.85    1.43
   6   3 -12   31.85    1.29
  -6  -3 -12   32.42    1.63
  -6   3 -12   31.68    1.71
   6  -3 -12   28.91    1.52
   6   3  12   32.34    1.49
  -6  -4 -12    7.29    0.93
   6  -4  12    6.02    0.77
   6   4 -12    6.32    0.67
   6   4 -12    5.51    0.86
  -6   4 -12    6.01    0.90
   6  -4 -12    5.58    0.73
   6   4  12    6.11    0.73
   6  -4 -12    7.31    0.95
   6  -5  12    7.57    0.89
  -6  -5 -12    5.11    0.86
   6   5 -12    6.68    0.74
   6   5 -12    6.39    0.94
  -6   5 -12    6.17    0.90
   6  -5 -12    6.31    0.89
   6  -5 -12    6.37    0.74
   6   5  12    6.47    0.76
   6  -6  12    4.29    0.74
   6   6 -12    3.67    0.65
  -6  -6 -12    3.09    0.72
   6   6 -12    4.32    0.85
   6   6  12    4.19    0.71
   6  -6 -12    3.51    0.59
  -6   6 -12    3.50    0.74
   6  -6 -12    4.15    0.84
   6   7 -12    7.43    0.93
  -6  -7 -12    7.50    1.10
   6   7 -12    7.75    1.06
   6  -7  12    6.54    0.95
   6  -7 -12    6.12    0.99
  -6   7 -12    6.42    1.03
   6   8 -12    0.48    0.50
  -6  -8 -12    0.89    0.61
   6   8 -12    0.64    0.54
   6  -8  12    0.85    0.57
   6  -8 -12   -0.55    0.48
  -6   8 -12   -0.45    0.49
   6  -9  12    2.85    0.81
   6   9 -12    5.00    0.89
   6   9 -12    3.91    0.93
  -6  -9 -12    4.17    0.92
   6  -9 -12    6.23    1.17
  -6   9 -12    3.58    0.90
   6  10 -12    8.61    1.33
   6  10 -12    7.78    1.16
  -6 -10 -12    8.57    1.30
   6 -10  12    7.20    1.18
  -6  10 -12    6.89    1.18
   6 -10 -12    5.08    1.05
  -6   0 -13   -0.28    0.29
   6   0  13   -0.42    0.23
   6   0 -13   -0.05    0.32
  -6  -1 -13    1.03    0.43
   6   1 -13    0.99    0.43
  -6  -1 -13    0.81    0.39
  -6   1 -13    0.37    0.34
   6   1  13    0.84    0.36
   6  -1 -13    0.68    0.37
  -6   1 -13    0.76    0.35
  -6  -2 -13   19.13    1.17
  -6  -2 -13   23.15    1.35
   6   2 -13   21.85    1.38
  -6   2 -13   21.43    1.07
  -6   2 -13   18.91    1.29
   6  -2 -13   20.49    1.29
   6   2  13   20.39    1.17
  -6  -3 -13    3.57    0.73
  -6  -3 -13    3.89    0.66
   6   3 -13    3.68    0.73
   6  -3  13    3.77    0.64
   6  -3 -13    3.90    0.64
   6   3  13    4.10    0.61
   6  -3 -13    3.98    0.73
  -6   3 -13    3.42    0.73
  -6  -4 -13   18.33    1.30
   6   4 -13   20.64    1.47
   6  -4  13   19.99    1.25
   6  -4 -13   17.16    1.16
   6   4  13   18.60    1.15
  -6   4 -13   16.34    1.49
   6  -4 -13   21.01    1.45
   6  -5  13   15.69    1.16
  -6  -5 -13   12.23    1.27
   6   5 -13   17.64    1.60
   6   5 -13   15.06    1.03
  -6   5 -13   14.07    1.38
   6  -5 -13   13.80    1.35
   6   5  13   15.29    1.05
   6  -5 -13   14.82    1.07
   6  -6  13    0.42    0.46
   6   6 -13    0.26    0.39
   6   6 -13   -0.16    0.50
  -6  -6 -13    0.05    0.46
  -6   6 -13    0.33    0.49
   6   6  13   -0.03    0.38
   6  -6 -13    0.00    0.34
   6  -6 -13    0.59    0.61
   6   7 -13    4.09    0.87
   6  -7  13    5.47    0.88
  -6  -7 -13    4.67    0.92
   6   7 -13    4.51    0.75
  -6   7 -13    4.83    0.91
   6  -7 -13    4.37    0.93
   6   8 -13    5.13    1.02
   6   8 -13    3.78    0.76
  -6  -8 -13    5.74    1.07
   6  -8  13    4.72    0.91
   6  -8 -13    2.83    0.83
  -6   8 -13    4.14    0.95
   6   9 -13    0.57    0.66
   6  -9  13    2.30    0.80
   6   9 -13    1.91    0.69
  -6  -9 -13    2.86    0.84
   6  -9 -13    0.97    0.75
  -6   9 -13    0.52    0.60
   6  10 -13    0.71    0.67
   6  10 -13    1.13    0.75
   6 -10  13    0.57    0.66
  -6 -10 -13    0.35    0.69
   6 -10 -13    0.34    0.75
  -6  10 -13    1.24    0.74
   6   0  14    6.78    0.77
  -6   0 -14    8.09    0.91
   6   0 -14    7.89    0.96
   6   1 -14    1.79    0.59
  -6  -1 -14    1.71    0.51
  -6  -1 -14    1.81    0.51
   6  -1  14    1.98    0.51
   6  -1 -14    1.98    0.57
  -6   1 -14    1.58    0.50
   6   1  14    1.99    0.46
   6  -1 -14    2.26    0.53
  -6   1 -14    2.30    0.48
  -6  -2 -14    1.38    0.49
   6   2 -14    1.29    0.54
  -6  -2 -14    1.50    0.56
  -6   2 -14    1.85    0.57
   6  -2 -14    1.77    0.59
   6  -2 -14    1.29    0.52
   6   2  14    1.19    0.42
   6   3 -14    8.35    1.06
   6  -3  14    8.45    0.99
  -6  -3 -14    9.42    1.08
   6   3  14    9.53    0.91
   6  -3 -14    8.57    0.94
   6  -3 -14    9.68    1.14
  -6   3 -14    8.64    1.05
   6   4 -14    3.95    0.78
  -6  -4 -14    3.64    0.80
   6  -4  14    3.07    0.67
   6  -4 -14    4.35    0.73
   6  -4 -14    5.34    0.91
  -6   4 -14    3.75    0.76
   6   5 -14    2.33    0.79
  -6  -5 -14    1.82    0.69
   6  -5  14    1.46    0.55
   6  -5 -14    2.40    0.76
   6  -5 -14    1.37    0.51
  -6   5 -14    2.96    0.82
   6  -6  14    4.24    0.81
  -6  -6 -14    5.39    1.00
   6   6 -14    5.03    0.99
  -6   6 -14    5.53    0.98
   6  -6 -14    5.05    0.96
   6   7 -14    1.69    0.68
   6  -7  14    1.46    0.59
  -6  -7 -14    0.56    0.69
  -6   7 -14    0.69    0.56
   6  -7 -14    1.24    0.66
   6   8 -14   -0.81    0.54
   6   8 -14   -0.22    0.42
   6  -8  14    0.17    0.49
  -6  -8 -14   -0.45    0.60
  -6   8 -14    0.06    0.63
   6  -8 -14   -0.03    0.65
   6  -9  14    3.63    0.88
   6   9 -14    3.15    0.78
   6   9 -14    4.27    1.05
  -6  -9 -14    4.84    1.08
  -6   9 -14    4.25    1.05
   6  -9 -14    4.33    1.09
   6   0 -15   -0.24    0.36
   6   0  15    0.12    0.32
   6   0 -15    0.00    0.39
  -6   0 -15   -0.04    0.42
  -6  -1 -15    4.06    0.69
   6  -1  15    4.56    0.69
   6   1 -15    3.64    0.78
  -6  -1 -15    5.62    0.82
  -6   1 -15    5.31    0.85
   6  -1 -15    5.03    0.80
   6  -1 -15    5.18    0.84
   6   1  15    4.29    0.64
  -6   1 -15    6.07    0.75
  -6  -2 -15   11.46    1.18
  -6  -2 -15   13.08    1.06
   6  -2  15   16.56    1.12
   6   2 -15   12.91    0.99
   6   2 -15   11.59    1.29
  -6   2 -15   12.24    1.25
   6  -2 -15   13.38    1.30
   6  -2 -15   13.69    1.25
   6   3 -15    0.90    0.56
  -6  -3 -15    1.01    0.57
  -6   3 -15    1.06    0.60
   6  -3 -15    0.80    0.50
   6  -3 -15    1.07    0.57
   6   4 -15    5.39    0.95
   6  -4  15    5.27    0.81
  -6  -4 -15    6.72    1.05
   6  -4 -15    6.43    0.99
   6  -4 -15    4.61    0.75
  -6   4 -15    5.70    0.96
   6   5 -15   13.68    1.46
  -6  -5 -15   11.10    1.33
   6  -5  15   11.15    1.14
   6  -5 -15   10.51    1.28
  -6   5 -15    8.25    1.14
   6  -5 -15   11.03    1.10
   6   6 -15    2.17    0.76
  -6  -6 -15    2.11    0.81
   6  -6  15    1.42    0.59
   6  -6 -15    2.41    0.81
  -6   6 -15    1.88    0.75
  -6  -7 -15    1.85    0.82
   6  -7  15    2.75    0.73
   6   7 -15    3.39    0.97
  -6   7 -15    2.14    0.86
   6  -7 -15    3.38    0.90
   6   8 -15    3.89    0.93
   6  -8  15    6.31    1.04
  -6  -8 -15    5.01    1.06
  -6   8 -15    5.11    1.11
   6  -8 -15    5.20    1.19
   6   9 -15   -0.19    0.60
  -6   9 -15    0.08    0.62
  -6   0 -16   11.91    1.20
   6   0 -16   11.57    1.25
   6   0 -16   10.89    1.11
   6   1 -16    1.30    0.54
   6   1 -16    0.55    0.56
  -6  -1 -16    0.95    0.51
  -6  -1 -16    1.31    0.57
  -6   1 -16    1.14    0.53
   6  -1 -16    0.98    0.53
   6  -1 -16    0.92    0.55
  -6  -2 -16    1.88    0.68
   6   2 -16    2.44    0.72
  -6  -2 -16    1.07    0.53
   6  -2  16    1.87    0.54
   6  -2 -16    1.52    0.62
   6  -2 -16    2.49    0.70
  -6   2 -16    1.55    0.68
  -6  -3 -16    8.25    1.12
   6   3 -16    5.80    0.97
  -6   3 -16    7.57    1.10
   6  -3 -16    7.69    0.97
   6  -3 -16    5.50    0.91
  -6  -4 -16    1.79    0.72
   6   4 -16    2.30    0.77
   6  -4 -16    1.97    0.62
  -6   4 -16    1.70    0.67
   6  -4 -16    2.20    0.70
   6  -5  16   -0.37    0.44
  -6  -5 -16    0.40    0.64
   6   5 -16   -0.56    0.46
  -6   5 -16    0.70    0.60
   6  -5 -16    0.47    0.62
   6  -5 -16    0.42    0.51
   6  -6  16    1.44    0.65
  -6  -6 -16    1.29    0.80
   6   6 -16    0.51    0.62
   6  -6 -16    1.41    0.82
  -6   6 -16    0.89    0.70
   6  -7  16    3.42    0.84
   6   7 -16    3.13    0.92
  -6  -7 -16    1.80    0.83
   6  -7 -16    2.05    0.92
  -6   7 -16    3.55    0.96
   6  -8  16   -0.28    0.55
  -6  -8 -16   -0.03    0.64
   6   8 -16   -0.21    0.62
  -6   8 -16    0.73    0.72
   6  -8 -16   -0.27    0.66
  -6   0 -17   -0.32    0.44
   6   0 -17   -0.47    0.47
   6   0 -17   -0.27    0.40
  -6  -1 -17    1.56    0.60
  -6  -1 -17    2.40    0.68
   6   1 -17    2.44    0.78
   6  -1 -17    3.16    0.80
  -6   1 -17    2.73    0.73
   6  -1 -17    2.19    0.65
  -6  -2 -17    7.05    0.95
  -6  -2 -17    5.16    0.91
   6   2 -17    4.81    1.00
   6  -2 -17    4.97    0.87
  -6   2 -17    4.98    0.98
   6  -2 -17    3.88    0.80
   6   3 -17   -0.68    0.39
  -6  -3 -17   -0.76    0.44
   6  -3 -17    0.15    0.54
   6  -3 -17    0.24    0.48
  -6   3 -17   -0.43    0.49
  -6  -4 -17    3.69    0.92
   6   4 -17    2.95    0.86
   6  -4 -17    4.19    0.80
   6  -4 -17    2.86    0.78
  -6   4 -17    2.66    0.84
   6   5 -17    7.41    1.26
   6  -5  17    5.01    0.91
  -6  -5 -17    5.25    1.06
   6  -5 -17    5.52    1.06
  -6   5 -17    2.54    0.85
   6  -6  17   -0.37    0.52
  -6  -6 -17    0.51    0.70
   6   6 -17    0.74    0.70
  -6   6 -17    0.10    0.65
   6  -6 -17    0.79    0.75
   6   7 -17    0.66    0.81
   6  -7  17    2.58    0.80
  -6  -7 -17   -0.31    0.77
   6  -7 -17    1.31    0.89
  -6   7 -17    0.65    0.73
  -6   0 -18    3.76    0.83
   6   0 -18    2.72    0.74
  -6  -1 -18    1.75    0.68
  -6  -1 -18    1.95    0.64
   6   1 -18    1.54    0.76
  -6   1 -18    1.22    0.64
   6  -1 -18    1.75    0.67
   6  -1 -18    2.01    0.68
  -6  -2 -18    1.05    0.66
   6   2 -18    1.24    0.66
   6  -2 -18    2.89    0.78
   6  -2 -18    1.28    0.66
  -6   2 -18    1.15    0.72
  -6  -3 -18    3.47    0.87
   6   3 -18    3.63    0.93
   6  -3 -18    3.53    0.83
  -6   3 -18    6.46    1.12
   6  -3 -18    3.75    0.92
  -6  -4 -18    0.35    0.67
   6   4 -18    1.05    0.71
   6  -4 -18    0.95    0.59
  -6   4 -18    1.16    0.71
   6  -4 -18    1.34    0.78
   6   5 -18    0.96    0.81
  -6  -5 -18    0.20    0.68
   6  -5 -18    0.79    0.80
  -6   5 -18    0.84    0.67
   6   6 -18    3.61    1.02
  -6  -6 -18    3.78    1.12
  -6   6 -18    1.71    0.78
   6  -6 -18    2.95    0.98
  -6   0 -19   -0.14    0.56
   6   0 -19   -0.54    0.45
   6   1 -19    2.10    0.75
  -6  -1 -19    1.37    0.70
  -6  -1 -19    1.42    0.76
   6  -1 -19    1.54    0.73
  -6   1 -19    0.85    0.74
   6  -1 -19    1.05    0.68
  -6  -2 -19    0.58    0.67
   6   2 -19    3.14    0.91
   6  -2 -19    1.73    0.75
   6  -2 -19    1.88    0.73
  -6   2 -19    2.66    0.86
  -6  -3 -19    0.58    0.63
   6   3 -19   -0.16    0.68
  -6   3 -19    0.19    0.64
   6  -3 -19    1.29    0.78
   6  -3 -19    0.48    0.59
   6   4 -19    1.71    0.89
  -6  -4 -19   -0.29    0.61
  -6   4 -19    1.66    0.84
   6  -4 -19    0.75    0.85
  -6  -5 -19    3.69    1.08
   6   5 -19    4.69    1.11
   6  -5 -19    3.78    1.09
  -6   5 -19    5.24    1.10
   6   0 -20    1.72    0.79
  -6   0 -20    3.59    0.89
   6   1 -20    0.46    0.58
   6  -1 -20    0.37    0.67
  -6   1 -20    0.41    0.67
   6  -1 -20    0.57    0.63
  -6  -2 -20   -0.14    0.65
   6   2 -20    0.68    0.69
   6  -2 -20   -0.01    0.67
   6  -2 -20    1.35    0.74
  -6   2 -20   -0.31    0.65
   6   3 -20    2.76    0.99
  -6  -3 -20    2.78    0.95
  -6   3 -20    3.34    1.00
   6  -3 -20    3.12    0.87
   6  -3 -20    1.38    0.86
   7   0   0    0.01    0.10
   7   1   0   85.18    2.56
   7  -1   0   80.29    2.55
   7   2   0   60.69    1.86
   7  -2   0   59.79    1.94
   7   2   0   60.21    1.98
   7   3   0   85.21    2.51
   7   3   0   80.96    2.68
   7  -3   0   82.95    2.62
   7   4   0   46.23    1.50
   7   4   0   45.65    1.75
  -7   4   0   44.77    1.66
  -7  -4   0   46.47    1.63
  -7  -5   0  147.00    4.56
   7   5   0  153.72    4.36
   7   5   0  149.92    4.77
  -7   5   0  153.17    4.65
   7   6   0   17.08    0.71
  -7  -6   0   14.15    0.81
   7   6   0   15.07    1.02
  -7   6   0   16.44    0.93
  -7   7   0   30.48    1.46
  -7  -7   0   29.85    1.32
   7   7   0   29.97    1.57
  -7   8   0   40.33    1.88
   7  -8   0   41.89    1.71
   7   8   0   39.78    2.02
  -7  -8   0   40.63    1.70
   7  -9   0    0.25    0.29
  -7   9   0    0.65    0.45
  -7  -9   0    0.37    0.30
   7   9   0   -0.08    0.35
  -7 -10   0    1.50    0.46
   7  10   0    1.49    0.67
  -7  10   0    1.12    0.52
  -7  11   0    8.00    1.10
   7  11   0    8.61    1.23
   7  12   0    5.44    1.19
  -7  12   0    3.52    0.90
   7   0  -1  107.99    3.21
   7   0   1  106.14    3.28
   7   0  -1  110.72    3.21
   7  -1   1    2.13    0.29
   7   1  -1    0.70    0.16
   7   1  -1    0.56    0.15
   7   1   1    0.62    0.17
   7  -2   1   44.32    1.59
   7   2  -1   46.60    1.55
   7   2  -1   48.04    1.61
   7   2   1   45.33    1.44
   7   2   1   48.12    1.63
   7  -2  -1   47.20    1.55
   7   3  -1   59.70    1.88
   7  -3   1   58.19    1.96
  -7   3   1   57.23    1.91
  -7  -3  -1   56.88    1.95
   7   3  -1   58.00    2.00
   7   3   1   59.97    1.77
   7   3   1   56.57    2.00
   7  -3  -1   58.28    1.91
  -7   4   1    0.45    0.21
   7   4  -1    0.41    0.22
  -7  -4  -1    0.79    0.24
   7   4  -1    0.54    0.17
  -7   4  -1    0.17    0.22
   7   4   1    0.73    0.27
   7   4   1    0.61    0.13
  -7   5   1    1.23    0.31
   7   5  -1    1.23    0.24
  -7  -5  -1    1.72    0.33
   7   5  -1    1.39    0.38
   7   5   1    1.93    0.41
  -7   5  -1    1.91    0.39
   7   5   1    1.75    0.20
  -7   6   1   11.14    0.79
  -7  -6  -1   12.83    0.78
   7   6  -1   12.60    0.66
   7   6  -1   13.05    0.90
  -7   6  -1   13.11    0.84
   7   6   1   12.26    0.52
   7   6   1   13.13    0.91
  -7  -6   1   12.71    0.71
  -7   7   1   17.86    1.08
   7   7  -1   18.23    1.17
  -7  -7  -1   18.98    1.02
  -7  -7   1   17.45    0.92
   7   7   1   18.60    1.21
  -7   7  -1   17.30    1.09
  -7  -8  -1    0.28    0.30
  -7   8   1    0.38    0.39
   7   8  -1   -0.18    0.31
   7  -8   1    0.29    0.23
  -7   8  -1   -0.02    0.30
   7   8   1   -0.07    0.37
  -7  -8   1    0.15    0.26
   7  -8  -1   -0.32    0.22
   7   9  -1   15.90    1.29
  -7  -9  -1   16.04    1.04
  -7   9   1   18.13    1.24
   7   9   1   13.66    1.37
  -7   9  -1   18.84    1.27
   7  -9  -1   14.86    1.01
  -7  -9   1   17.06    0.98
   7  10  -1   25.62    1.73
  -7  10   1   26.44    1.63
  -7 -10  -1   23.96    1.37
  -7  10  -1   26.35    1.60
   7  10   1   28.71    1.84
  -7  11   1    0.22    0.48
   7  11  -1   -0.25    0.46
   7  11   1    0.29    0.60
  -7  11  -1   -0.34    0.37
   7  12  -1   14.16    1.70
  -7  12   1   12.87    1.44
  -7  12  -1   13.39    1.45
   7  12   1   13.72    1.66
   7   0   2   -0.16    0.10
   7   0  -2   -0.04    0.09
   7   0  -2    0.04    0.11
   7  -1   2    7.24    0.48
   7   1  -2    7.48    0.44
   7   1  -2    8.03    0.42
   7  -1  -2    8.06    0.47
   7   1   2    8.24    0.50
   7  -1  -2    7.84    0.41
   7   2  -2   53.12    1.74
  -7  -2  -2   51.38    1.76
   7  -2   2   51.49    1.78
   7   2   2   50.72    1.78
   7  -2  -2   52.17    1.66
  -7  -3  -2    4.64    0.46
  -7   3   2    4.15    0.34
   7   3  -2    4.95    0.40
   7   3  -2    4.40    0.45
   7  -3   2    4.47    0.45
   7  -3  -2    4.26    0.34
   7   3   2    4.95    0.51
   7   3   2    4.26    0.24
  -7  -4  -2   27.45    1.18
   7   4  -2   26.99    1.11
   7   4  -2   28.18    1.24
   7   4   2   28.32    0.87
  -7   4  -2   28.76    1.20
   7   4   2   27.45    1.24
  -7  -5  -2   66.68    2.36
  -7   5   2   70.07    2.33
   7   5  -2   64.09    2.23
   7   5  -2   68.09    2.48
  -7   5  -2   72.42    2.43
   7   5   2   64.52    2.45
   7   6  -2    7.78    0.81
  -7  -6  -2    8.20    0.65
   7   6  -2    6.15    0.56
  -7   6   2    7.10    0.69
   7   6   2    7.01    0.78
  -7   6  -2    6.86    0.70
  -7  -7  -2    9.21    0.76
   7   7  -2   10.97    0.69
  -7   7   2   11.08    0.84
   7   7  -2   10.54    1.01
   7   7   2   12.18    1.14
  -7   7  -2   10.70    0.97
   7   8  -2   15.09    1.15
  -7  -8  -2   17.26    1.03
   7  -8   2   15.05    0.93
  -7   8   2   14.78    1.05
   7   8   2   14.25    1.14
  -7   8  -2   13.97    1.07
   7  -8  -2   15.84    1.02
  -7   9   2    3.95    0.72
   7   9  -2    4.64    0.83
  -7  -9  -2    5.55    0.72
   7  -9  -2    4.28    0.65
  -7   9  -2    4.67    0.75
   7   9   2    6.05    0.94
   7  10  -2    4.82    0.94
  -7  10   2    2.40    0.67
  -7 -10  -2    3.47    0.64
  -7  10  -2    2.59    0.65
   7 -10  -2    2.81    0.60
   7  10   2    4.09    0.90
   7  11  -2    2.51    0.85
  -7  11   2    4.04    0.86
  -7  11  -2    2.70    0.70
   7  11   2    3.12    0.85
   7  12  -2    7.17    1.28
  -7  12   2    5.69    1.03
  -7  12  -2    5.14    0.96
   7  12   2    2.85    0.88
   7   0   3   50.57    1.83
   7   0  -3   54.18    1.63
   7   0  -3   53.86    1.78
   7   1  -3   89.43    2.67
  -7  -1  -3   88.89    2.77
   7  -1   3   88.09    2.84
   7   1  -3   88.20    2.77
   7  -1  -3   88.33    2.62
   7  -1  -3   87.10    2.76
   7   1   3   93.54    2.86
   7   2  -3   55.53    1.84
  -7  -2  -3   54.92    1.90
   7   2  -3   56.97    1.90
   7  -2   3   55.78    1.92
   7  -2  -3   55.23    1.74
   7   2   3   56.20    1.93
   7  -2  -3   55.18    1.86
   7  -3   3  134.06    4.07
  -7  -3  -3  133.28    4.08
  -7   3   3  132.19    3.88
   7   3  -3  130.10    4.04
   7   3   3  134.40    4.10
   7   3   3  131.28    3.69
   7   4  -3   29.30    1.32
  -7  -4  -3   33.70    1.32
   7   4  -3   29.17    1.29
  -7   4   3   29.77    1.16
   7   4   3   29.48    1.30
  -7   4  -3   29.57    1.27
   7   5  -3    5.50    0.55
  -7  -5  -3    5.89    0.60
   7   5  -3    6.58    0.69
  -7   5  -3    5.47    0.59
   7   5   3    6.04    0.68
   7   6  -3   26.10    1.20
  -7  -6  -3   27.93    1.31
  -7   6   3   27.18    1.25
   7   6  -3   28.07    1.40
  -7   6  -3   25.75    1.30
   7   6   3   28.94    1.44
  -7  -7  -3    9.74    0.77
   7   7  -3   10.77    0.74
  -7   7   3   10.17    0.80
   7   7  -3   10.82    1.06
  -7   7  -3   10.98    0.89
   7   7   3    9.85    0.99
  -7   8   3    0.45    0.37
   7   8  -3   -0.28    0.30
   7   8  -3    0.00    0.22
  -7  -8  -3    0.32    0.31
   7  -8  -3    0.21    0.29
  -7   8  -3   -0.10    0.35
   7   8   3    0.20    0.36
  -7   9   3   22.95    1.39
   7   9  -3   21.13    1.49
  -7  -9  -3   21.41    1.31
  -7   9  -3   24.60    1.49
   7   9   3   20.10    1.46
   7  -9  -3   24.33    1.37
  -7 -10  -3   18.89    1.24
  -7  10   3   17.98    1.34
   7  10  -3   18.59    1.49
  -7  10  -3   19.61    1.43
   7  10   3   18.35    1.47
   7 -10  -3   17.74    1.23
  -7  11   3   -0.48    0.44
   7  11  -3    0.19    0.54
  -7 -11  -3   -0.10    0.37
   7  11   3    0.52    0.55
  -7  11  -3    0.02    0.50
   7  12  -3   12.66    1.64
  -7  12   3   11.94    1.39
  -7  12  -3   11.51    1.40
   7  12   3   13.62    1.67
  -7   0  -4    0.00    0.13
   7   0  -4    0.07    0.09
   7   0   4    0.04    0.18
   7   0  -4   -0.02    0.14
   7   1  -4   13.40    0.58
   7   1  -4   13.54    0.71
   7  -1   4   13.07    0.74
  -7  -1  -4   12.48    0.66
   7  -1  -4   13.14    0.68
   7   1   4   13.76    0.74
   7  -1  -4   13.54    0.51
  -7   1  -4   14.01    0.71
   7  -2   4   79.25    2.58
  -7  -2  -4   80.17    2.58
   7   2  -4   75.18    2.55
   7   2  -4   79.32    2.46
   7   2   4   80.12    2.59
   7  -2  -4   78.01    2.32
   7  -2  -4   77.23    2.51
  -7   2  -4   75.33    2.57
  -7  -3  -4   38.85    1.54
   7  -3   4   40.46    1.55
   7   3  -4   40.39    1.51
   7   3  -4   39.61    1.53
   7   3   4   40.00    1.56
   7  -3  -4   40.50    1.34
  -7   3  -4   39.65    1.57
   7  -3  -4   40.42    1.49
   7  -4   4   13.38    0.80
  -7  -4  -4   13.93    0.81
  -7   4   4   14.26    0.67
   7   4  -4   13.40    0.79
   7   4  -4   13.10    0.79
   7   4   4   12.68    0.81
  -7   4  -4   13.78    0.83
   7  -4  -4   12.41    0.71
  -7   4  -4   13.53    0.79
   7   5  -4  120.93    3.98
  -7   5   4  122.94    3.76
  -7  -5  -4  123.28    3.96
  -7   5  -4  121.26    3.92
   7   5   4  119.16    3.99
   7  -5  -4  122.91    3.78
  -7  -6  -4   12.86    0.87
   7   6  -4   13.89    0.97
   7   6  -4   12.51    0.81
  -7   6   4   11.26    0.76
   7   6   4   13.87    0.96
  -7   6  -4   14.03    0.94
  -7   7   4   18.56    1.18
   7   7  -4   20.44    1.11
   7   7  -4   18.32    1.22
  -7  -7  -4   20.27    1.16
   7   7   4   21.70    1.33
  -7   7  -4   23.32    1.26
  -7   8   4   24.13    1.31
  -7  -8  -4   23.36    1.32
   7   8  -4   20.68    1.17
   7   8  -4   21.85    1.42
  -7   8  -4   23.61    1.40
   7  -8  -4   22.86    1.33
   7   8   4   24.54    1.48
  -7  -9  -4    0.75    0.42
   7   9  -4    0.63    0.53
  -7   9   4    0.61    0.41
  -7   9  -4    0.20    0.42
   7   9   4    0.65    0.48
   7  -9  -4    0.23    0.34
  -7  10   4    0.08    0.47
   7  10  -4    0.12    0.47
  -7 -10  -4    0.72    0.42
  -7  10  -4    0.16    0.43
   7 -10  -4    0.55    0.44
   7  10   4   -0.27    0.41
  -7  11   4    7.28    1.06
   7  11  -4    6.42    1.15
  -7 -11  -4    6.79    0.92
   7 -11  -4    6.43    0.95
  -7  11  -4    6.92    1.03
   7  11   4    5.82    1.08
  -7  12   4    8.15    1.18
   7  12  -4    5.55    1.15
  -7  12  -4    5.14    1.02
   7  12   4    7.14    1.24
   7   0  -5   97.62    2.79
   7   0  -5   99.02    3.10
   7   0   5   93.65    3.14
  -7   0  -5   97.85    3.02
  -7   0  -5   98.27    3.02
   7  -1   5    1.89    0.35
  -7  -1  -5    2.23    0.28
   7   1  -5    2.04    0.23
   7   1  -5    2.28    0.35
  -7  -1  -5    1.74    0.31
   7  -1  -5    2.35    0.16
   7  -1  -5    2.51    0.35
  -7   1  -5    1.84    0.32
   7   1   5    1.26    0.31
  -7  -2  -5   15.62    0.85
   7   2  -5   16.70    0.88
   7   2  -5   16.81    0.76
   7  -2   5   17.56    0.88
   7  -2  -5   16.90    0.83
  -7   2  -5   16.36    0.88
   7  -2  -5   16.58    0.61
   7   2   5   17.26    0.88
   7   3  -5   21.86    1.04
   7   3  -5   21.61    0.97
   7  -3   5   20.71    1.00
  -7  -3  -5   20.46    1.02
  -7   3  -5   18.65    1.01
   7  -3  -5   20.51    0.95
   7   3   5   20.19    1.01
   7  -3  -5   21.10    0.78
  -7   4   5    8.04    0.48
   7   4  -5    8.04    0.64
   7  -4   5    7.89    0.63
  -7  -4  -5    6.46    0.65
   7   4  -5    8.34    0.63
   7   4   5    6.73    0.67
   7  -4  -5    9.12    0.58
  -7   4  -5    7.27    0.69
   7   5  -5    6.10    0.65
  -7  -5  -5    8.05    0.78
  -7   5   5    7.17    0.54
   7   5  -5    9.02    0.80
   7  -5  -5    7.56    0.60
  -7   5  -5    7.30    0.80
  -7   5  -5    7.39    0.74
   7   5   5    8.37    0.82
  -7   6   5   14.78    0.85
  -7  -6  -5   13.72    0.95
   7   6  -5   15.86    1.03
   7  -6  -5   17.02    0.88
  -7   6  -5   14.72    1.00
  -7   6  -5   14.02    0.97
   7   6   5   13.32    0.98
   7   7  -5    2.93    0.59
  -7   7   5    3.17    0.52
  -7  -7  -5    3.85    0.60
   7   7  -5    2.98    0.51
   7  -7  -5    2.86    0.47
  -7   7  -5    2.74    0.53
   7   7   5    3.00    0.59
   7   8  -5   -0.04    0.26
   7   8  -5    0.09    0.42
  -7  -8  -5    0.00    0.31
   7  -8  -5   -0.15    0.32
   7   8   5    0.57    0.47
  -7   8  -5    0.15    0.40
   7  -8  -5   -0.13    0.27
   7   9  -5    6.19    0.96
  -7   9   5    8.00    0.92
  -7  -9  -5    7.67    0.93
   7  -9  -5    6.71    0.87
  -7   9  -5    6.61    0.93
   7   9   5    7.20    1.03
  -7 -10  -5   21.69    1.41
   7  10  -5   19.10    1.76
  -7  10   5   20.38    1.40
   7 -10  -5   19.34    1.39
  -7  10  -5   17.97    1.38
   7  10   5   20.33    1.54
  -7 -11  -5    0.10    0.44
   7  11  -5   -0.08    0.56
  -7  11   5    0.27    0.52
   7 -11  -5    0.58    0.47
  -7  11  -5    0.47    0.56
   7  11   5    0.76    0.57
   7  12  -5    8.90    1.43
  -7  12   5    8.11    1.18
  -7 -12  -5   10.27    1.22
  -7  12  -5   10.58    1.36
   7  12   5   11.03    1.51
  -7   0  -6   -0.10    0.15
   7   0  -6    0.03    0.08
   7   0   6   -0.14    0.16
   7   0  -6    0.11    0.16
  -7   0  -6   -0.15    0.12
   7  -1   6    0.42    0.23
  -7  -1  -6    0.78    0.25
   7   1  -6    0.41    0.21
  -7  -1  -6    0.42    0.18
   7   1  -6    1.03    0.18
  -7   1  -6    0.48    0.18
   7  -1  -6    0.85    0.09
  -7   1  -6    0.21    0.21
   7   1   6    0.85    0.27
   7  -1  -6    0.39    0.20
   7   2  -6   69.29    2.23
   7  -2   6   71.59    2.43
  -7  -2  -6   71.24    2.19
   7   2  -6   66.86    2.42
  -7  -2  -6   68.21    2.40
   7  -2  -6   74.03    2.40
  -7   2  -6   70.73    2.44
   7  -2  -6   68.62    2.01
   7   2   6   67.71    2.42
   7   3  -6   12.67    0.72
   7  -3   6   12.61    0.79
  -7  -3  -6   13.34    0.83
   7   3  -6   12.40    0.81
  -7   3  -6   13.23    0.83
   7  -3  -6   14.10    0.55
   7  -3  -6   13.16    0.76
   7   3   6   13.83    0.82
   7   4  -6   67.37    2.49
  -7   4   6   69.53    2.17
   7  -4   6   71.66    2.50
   7   4  -6   70.55    2.43
  -7  -4  -6   65.63    2.48
  -7   4  -6   66.71    2.52
   7  -4  -6   71.32    2.38
   7   4   6   68.55    2.49
   7   5  -6   49.89    2.05
   7   5  -6   53.51    2.13
  -7   5   6   53.19    1.84
   7  -5   6   52.58    2.09
  -7  -5  -6   53.42    2.13
  -7   5  -6   54.15    2.17
   7  -5  -6   54.56    1.96
  -7   5  -6   55.39    2.11
   7   5   6   54.78    2.13
  -7  -6  -6    0.37    0.32
  -7   6   6    0.22    0.22
   7   6  -6    0.01    0.24
   7   6  -6    0.70    0.35
  -7   6  -6   -0.22    0.27
   7   6   6   -0.08    0.24
  -7   6  -6    0.29    0.30
   7  -6  -6    0.37    0.24
  -7   7   6   25.15    1.22
  -7  -7  -6   25.94    1.41
   7   7  -6   25.76    1.46
   7  -7  -6   21.66    1.37
   7   7   6   26.91    1.50
  -7   7  -6   21.65    1.32
  -7   7  -6   24.37    1.43
   7  -7  -6   24.60    1.19
   7   8  -6   19.60    1.34
  -7  -8  -6   17.94    1.25
  -7   8   6   18.83    1.13
   7  -8  -6   18.71    1.30
   7   8   6   20.85    1.41
  -7   8  -6   18.66    1.26
  -7  -9  -6    1.09    0.52
   7   9  -6    1.59    0.48
   7   9  -6    1.77    0.63
  -7   9  -6    1.09    0.56
   7   9   6    0.73    0.54
   7  -9  -6    1.93    0.56
   7  10  -6    1.27    0.65
  -7 -10  -6    2.03    0.60
   7  10   6    2.70    0.81
   7 -10  -6    2.86    0.69
  -7  10  -6    2.43    0.67
   7  11  -6    9.78    1.39
  -7  11   6    8.81    1.10
  -7 -11  -6    8.24    1.08
  -7  11  -6   11.56    1.35
   7 -11  -6    8.17    1.10
   7  11   6    8.16    1.30
   7  12  -6    5.30    1.09
  -7 -12  -6    4.81    0.90
   7  12   6    5.11    1.18
  -7  12  -6    3.02    0.88
  -7   0  -7   70.48    2.36
   7   0  -7   65.42    2.40
   7   0  -7   70.71    1.99
  -7   0  -7   71.03    2.34
   7   0   7   67.47    2.44
   7  -1   7   54.79    2.07
  -7  -1  -7   57.75    2.03
   7   1  -7   55.68    1.75
   7   1  -7   55.24    2.08
  -7  -1  -7   57.88    1.94
  -7   1  -7   56.95    1.90
  -7   1  -7   56.56    2.06
   7  -1  -7   58.70    2.08
   7   1   7   51.59    2.06
  -7  -2  -7    3.16    0.46
   7  -2   7    2.81    0.45
   7   2  -7    2.52    0.32
   7   2  -7    2.29    0.41
  -7  -2  -7    2.39    0.31
   7   2   7    2.23    0.40
   7  -2  -7    2.14    0.36
  -7   2  -7    2.30    0.42
   7   3  -7   75.00    2.70
  -7  -3  -7   73.72    2.29
  -7  -3  -7   72.62    2.64
   7  -3   7   77.64    2.63
   7   3  -7   75.19    2.47
   7   3   7   74.77    2.62
  -7   3  -7   72.18    2.65
   7  -3  -7   76.48    2.56
   7  -3  -7   73.57    2.17
   7   4  -7   21.14    1.09
   7   4  -7   24.43    1.26
  -7  -4  -7   24.58    1.26
  -7   4   7   24.47    0.90
   7  -4   7   24.33    1.21
   7  -4  -7   25.67    1.14
   7   4   7   21.67    1.17
  -7   4  -7   22.74    1.24
   7  -5   7    2.37    0.49
  -7   5   7    2.70    0.35
   7   5  -7    2.00    0.46
   7   5  -7    1.36    0.38
  -7  -5  -7    1.91    0.46
   7   5   7    3.43    0.55
   7  -5  -7    3.16    0.45
  -7   5  -7    2.19    0.47
  -7  -6  -7   10.01    1.00
  -7   6   7    9.96    0.67
   7   6  -7   10.58    0.87
   7   6  -7    9.10    0.90
   7   6   7   11.21    1.02
  -7   6  -7    9.07    0.88
   7  -6  -7   10.50    0.73
  -7   6  -7    9.85    1.00
   7   7  -7   18.12    1.20
   7   7  -7   17.12    1.18
  -7  -7  -7   19.65    1.24
  -7   7   7   15.93    0.96
   7  -7  -7   18.64    1.01
  -7   7  -7   19.48    1.24
   7   7   7   16.08    1.20
   7  -7  -7   16.16    1.22
  -7   7  -7   20.00    1.31
   7   8  -7    6.64    0.93
  -7   8   7    5.68    0.71
  -7  -8  -7    6.37    0.88
  -7   8  -7    5.26    0.81
  -7   8  -7    6.52    0.89
   7   8   7    7.02    0.98
   7  -8  -7    6.93    0.91
   7   9  -7    7.19    1.05
  -7   9   7    6.38    0.80
  -7  -9  -7    4.79    0.80
  -7   9  -7    4.83    0.81
   7   9   7    6.21    1.01
   7  -9  -7    6.43    0.95
   7  10  -7   18.25    1.73
  -7 -10  -7   19.15    1.46
  -7  10  -7   19.99    1.47
   7  10   7   18.66    1.52
   7 -10  -7   22.15    1.57
  -7 -11  -7    1.13    0.62
   7  11  -7    0.67    0.64
   7 -11  -7    0.19    0.48
   7  11   7   -0.67    0.50
  -7  11  -7    0.45    0.59
  -7 -12  -7    4.75    0.93
   7  12  -7    5.97    1.16
  -7  12  -7    5.31    1.03
   7 -12  -7    5.13    0.99
   7  12   7    4.67    1.12
  -7   0  -8   -0.38    0.17
   7   0   8    0.01    0.23
   7   0  -8    0.69    0.29
  -7   0  -8   -0.11    0.21
   7  -1   8   20.65    1.10
  -7  -1  -8   21.53    1.06
  -7  -1  -8   21.60    0.99
   7   1  -8   19.10    1.09
   7   1  -8   21.75    0.80
   7   1   8   18.88    1.07
  -7   1  -8   22.25    0.96
  -7   1  -8   20.86    1.07
   7  -1  -8   22.60    1.12
   7   2  -8    2.45    0.44
   7  -2   8    2.71    0.44
   7   2  -8    2.24    0.31
  -7  -2  -8    2.46    0.34
  -7  -2  -8    2.48    0.45
  -7   2  -8    3.09    0.49
   7  -2  -8    2.24    0.39
  -7   2  -8    2.53    0.31
   7   2   8    2.74    0.45
   7   3  -8    7.98    0.80
  -7  -3  -8    9.77    0.75
   7  -3   8   10.59    0.76
   7   3  -8    9.47    0.63
  -7  -3  -8   10.20    0.55
  -7   3  -8   10.38    0.82
   7  -3  -8    9.97    0.71
   7  -3  -8    9.26    0.36
   7   3   8    9.75    0.73
   7   4  -8   20.16    1.05
  -7  -4  -8   22.01    0.83
   7  -4   8   21.91    1.16
  -7  -4  -8   22.16    1.21
   7   4  -8   20.29    1.19
  -7   4   8   21.33    0.81
   7  -4  -8   22.47    1.11
   7   4   8   20.72    1.14
  -7   4  -8   24.08    1.29
   7  -5   8   14.34    0.97
   7   5  -8   13.32    0.90
  -7   5   8   13.83    0.68
  -7  -5  -8   13.09    0.96
   7   5  -8   13.93    0.99
   7  -5  -8   14.46    0.86
   7   5   8   14.45    0.96
  -7   5  -8   14.19    1.04
  -7   6   8    0.07    0.22
  -7  -6  -8   -0.33    0.30
   7   6  -8    0.32    0.32
   7  -6   8    0.14    0.31
   7   6  -8   -0.18    0.27
  -7   6  -8   -0.04    0.29
   7   6   8    0.13    0.29
   7  -6  -8    0.17    0.26
  -7   6  -8   -0.32    0.28
  -7  -7  -8   18.52    1.28
   7   7  -8   19.48    1.29
   7   7  -8   19.90    1.31
  -7   7   8   17.62    1.04
   7   7   8   20.83    1.33
   7  -7  -8   20.05    1.08
   7  -7  -8   19.33    1.32
  -7   7  -8   18.47    1.34
  -7   7  -8   20.08    1.30
   7   8  -8   16.22    1.25
   7   8  -8   14.31    1.17
  -7  -8  -8   14.63    1.33
  -7   8  -8   17.67    1.26
  -7   8  -8   13.50    1.31
   7   8   8   13.67    1.35
   7  -8  -8   13.29    1.32
  -7  -9  -8    0.29    0.42
   7   9  -8   -0.34    0.39
   7  -9  -8    0.41    0.48
  -7   9  -8   -0.10    0.48
   7   9   8    0.53    0.49
   7  10  -8    5.17    1.01
  -7 -10  -8    6.17    1.02
   7 -10  -8    3.75    0.87
   7  10   8    4.07    0.89
  -7  10  -8    3.13    0.81
  -7 -11  -8    5.41    1.01
   7  11  -8    5.11    1.04
   7 -11  -8    5.95    1.01
  -7  11  -8    5.86    1.07
   7  11   8    6.23    1.17
  -7   0  -9   78.74    2.61
  -7   0  -9   74.17    2.62
   7   0  -9   73.48    2.71
   7   0   9   75.08    2.69
   7   1  -9   46.74    1.47
   7  -1   9   47.34    1.90
   7   1  -9   45.93    1.93
  -7  -1  -9   45.65    1.76
  -7  -1  -9   47.82    1.85
   7  -1  -9   44.16    1.86
  -7   1  -9   44.81    1.86
   7   1   9   48.20    1.92
  -7   1  -9   49.15    1.74
   7   2  -9   10.01    0.80
  -7  -2  -9   10.64    0.65
   7   2  -9   10.77    0.59
  -7  -2  -9   10.87    0.78
   7  -2   9   10.07    0.77
  -7   2  -9    9.96    0.59
   7   2   9   10.22    0.77
   7  -2  -9   10.43    0.78
  -7   2  -9   11.17    0.83
   7   3  -9   44.05    1.95
   7  -3   9   43.17    1.83
  -7  -3  -9   41.96    1.87
  -7  -3  -9   45.84    1.62
   7   3  -9   46.10    1.68
   7   3   9   44.77    1.84
   7  -3  -9   47.32    1.85
  -7   3  -9   48.39    1.99
   7   4  -9    3.96    0.50
   7  -4   9    3.83    0.56
  -7  -4  -9    4.40    0.39
  -7  -4  -9    3.67    0.62
   7   4  -9    4.51    0.66
   7  -4  -9    3.67    0.52
  -7   4  -9    4.63    0.67
   7   4   9    4.85    0.61
   7  -5   9    0.27    0.29
   7   5  -9    0.51    0.40
  -7  -5  -9    0.33    0.35
   7   5  -9    0.47    0.32
   7   5   9    0.13    0.27
  -7   5  -9    0.38    0.34
   7  -5  -9    0.49    0.29
   7  -6   9   24.50    1.38
   7   6  -9   22.64    1.41
  -7  -6  -9   22.01    1.36
   7   6  -9   22.41    1.29
   7   6   9   22.54    1.35
   7  -6  -9   21.93    1.17
   7  -6  -9   23.83    1.44
  -7   6  -9   22.51    1.41
   7   7  -9   19.00    1.34
   7   7  -9   24.40    1.52
  -7  -7  -9   20.13    1.44
   7  -7   9   24.02    1.45
   7  -7  -9   22.98    1.52
   7   7   9   22.40    1.41
  -7   7  -9   25.62    1.47
  -7   7  -9   22.81    1.48
   7   8  -9    4.25    0.79
  -7  -8  -9    3.50    0.74
   7   8  -9    4.26    0.80
   7   8   9    3.00    0.71
   7  -8  -9    3.70    0.83
  -7   8  -9    3.54    0.77
  -7   8  -9    2.15    0.62
   7   9  -9    5.25    0.90
   7   9  -9    4.21    0.86
  -7  -9  -9    5.10    0.93
  -7   9  -9    4.38    0.85
   7  -9  -9    4.37    0.85
   7   9   9    5.74    0.96
  -7   9  -9    3.94    0.79
   7  10  -9   14.14    1.52
  -7 -10  -9   11.55    1.32
  -7  10  -9   12.41    1.32
   7 -10  -9   15.15    1.59
   7  10   9   13.45    1.48
  -7 -11  -9    1.42    0.70
   7  11  -9   -0.05    0.53
   7 -11  -9    1.69    0.72
   7  11   9    1.33    0.70
  -7  11  -9    1.30    0.73
  -7   0 -10   -0.26    0.27
  -7   0 -10    0.07    0.26
   7   0 -10    0.07    0.28
   7   0  10   -0.33    0.23
   7   1 -10    1.93    0.23
  -7  -1 -10    1.44    0.35
   7  -1  10    0.86    0.35
  -7  -1 -10    1.57    0.39
   7   1 -10    1.97    0.45
  -7   1 -10    1.40    0.39
   7   1  10    1.64    0.43
   7  -1 -10    1.30    0.40
  -7   1 -10    2.21    0.39
   7   2 -10   12.95    0.98
  -7  -2 -10   12.25    0.90
   7   2 -10   13.32    0.65
   7  -2  10   12.79    0.88
  -7  -2 -10   13.14    0.79
   7  -2 -10   13.04    0.90
   7   2  10    8.60    0.87
  -7   2 -10   13.23    0.72
  -7   2 -10   14.66    0.98
   7   3 -10    0.83    0.41
   7  -3  10    0.63    0.31
  -7  -3 -10    1.00    0.27
   7   3 -10    0.89    0.30
  -7  -3 -10   -0.18    0.30
   7   3  10    0.85    0.33
   7  -3 -10    1.27    0.35
  -7   3 -10    0.78    0.38
  -7  -4 -10    2.55    0.35
  -7  -4 -10    3.07    0.59
   7   4 -10    2.83    0.61
   7   4 -10    2.28    0.45
   7  -4  10    2.01    0.50
  -7   4 -10    2.18    0.52
   7  -4 -10    1.76    0.40
   7   4  10    2.70    0.51
   7   5 -10   30.79    1.49
   7   5 -10   33.71    1.79
  -7  -5 -10   32.88    1.71
   7  -5  10   33.45    1.63
  -7   5 -10   32.35    1.74
   7  -5 -10   31.89    1.50
   7   5  10   35.87    1.65
   7   6 -10    1.03    0.43
  -7  -6 -10    0.50    0.41
   7  -6  10    0.66    0.46
   7   6 -10    0.92    0.48
   7  -6 -10    0.08    0.37
   7   6  10    0.99    0.43
   7  -6 -10    0.81    0.36
  -7   6 -10    0.35    0.40
  -7  -7 -10   16.62    1.31
   7  -7  10   15.90    1.21
   7   7 -10   12.13    1.26
   7   7 -10   15.60    1.18
   7  -7 -10   15.09    1.43
  -7   7 -10   15.80    1.26
   7   7  10   12.56    1.23
   7  -7 -10   13.96    0.95
   7  -8  10    7.94    1.02
  -7  -8 -10    8.28    1.14
   7   8 -10    9.12    1.16
   7   8 -10    7.21    0.98
  -7   8 -10   10.56    1.24
   7   8  10    9.80    1.16
   7  -8 -10   11.14    1.30
  -7  -9 -10   -0.36    0.48
   7  -9  10    0.57    0.53
   7   9 -10   -0.27    0.42
   7   9 -10   -0.15    0.48
  -7   9 -10   -0.32    0.43
   7   9  10   -0.07    0.43
  -7   9 -10    0.58    0.51
   7  -9 -10    0.51    0.58
  -7 -10 -10    2.70    0.81
   7  10 -10    1.08    0.72
   7  10 -10    1.59    0.68
   7  10  10    2.82    0.81
   7 -10 -10    1.94    0.78
  -7  10 -10    3.52    0.86
  -7  10 -10    2.40    0.80
  -7 -11 -10    2.97    0.89
   7  11 -10    4.56    1.00
   7 -11 -10    2.56    0.84
   7  11  10    4.18    1.02
  -7  11 -10    1.72    0.71
  -7   0 -11   52.81    2.03
  -7   0 -11   42.24    1.85
   7   0  11   50.30    2.01
   7   0 -11   46.68    2.04
   7  -1  11   14.77    0.97
  -7  -1 -11   15.17    0.93
  -7  -1 -11   14.11    0.95
   7   1 -11   15.14    1.05
  -7   1 -11   13.73    0.83
  -7   1 -11   13.70    0.96
   7  -1 -11   16.27    1.04
   7   2 -11    2.64    0.57
  -7  -2 -11    4.26    0.67
   7  -2  11    5.09    0.67
   7   2 -11    4.23    0.40
  -7  -2 -11    3.61    0.50
  -7   2 -11    1.96    0.51
  -7   2 -11    3.06    0.42
   7  -2 -11    2.91    0.54
  -7  -3 -11   24.65    1.37
  -7  -3 -11   23.75    1.13
   7   3 -11   23.36    1.08
   7  -3  11   23.60    1.29
   7   3 -11   25.52    1.45
  -7   3 -11   23.68    1.39
   7  -3 -11   24.42    1.30
  -7  -4 -11    9.37    1.03
   7  -4  11   11.85    0.90
   7   4 -11   10.13    1.05
   7   4 -11   11.43    0.80
   7  -4 -11   11.23    0.86
  -7   4 -11   10.70    1.10
   7  -5  11    6.03    0.75
   7   5 -11    5.36    0.68
  -7  -5 -11    4.21    0.79
   7   5 -11    6.19    0.91
  -7   5 -11    4.88    0.79
   7  -5 -11    4.81    0.65
   7  -5 -11    5.64    0.83
   7   6 -11    8.94    1.05
  -7  -6 -11    9.94    1.14
   7   6 -11    8.56    0.90
   7  -6  11    7.92    0.92
   7  -6 -11    9.80    1.10
  -7   6 -11   11.10    1.19
   7  -6 -11    9.82    0.93
  -7  -7 -11   10.95    1.21
   7   7 -11   10.44    1.23
   7   7 -11    9.72    1.05
   7  -7  11    8.24    1.00
   7  -7 -11    8.97    1.16
  -7   7 -11   10.51    1.25
   7   7  11    9.62    1.09
  -7  -8 -11    0.45    0.50
   7  -8  11    1.18    0.60
   7   8 -11    0.82    0.54
   7   8 -11    0.54    0.57
  -7   8 -11    0.98    0.57
   7   8  11    1.22    0.57
   7  -8 -11    1.42    0.66
   7  -9  11    4.01    0.82
   7   9 -11    2.43    0.74
   7   9 -11    4.16    0.83
  -7  -9 -11    2.95    0.86
  -7   9 -11    4.26    0.94
   7  -9 -11    3.30    0.87
   7   9  11    4.01    0.86
   7  10 -11    6.32    1.08
   7  10 -11    6.21    1.10
   7 -10  11    9.05    1.26
  -7 -10 -11    6.53    1.08
   7 -10 -11    9.99    1.39
  -7  10 -11    9.34    1.31
   7  10  11    8.34    1.23
  -7   0 -12   -0.37    0.23
   7   0 -12    0.17    0.36
  -7  -1 -12    0.07    0.31
  -7  -1 -12    0.92    0.37
   7   1 -12    0.53    0.37
   7  -1  12    0.07    0.29
   7  -1 -12   -0.05    0.31
  -7   1 -12    0.35    0.28
  -7   1 -12    0.70    0.39
   7   2 -12   16.02    1.17
  -7  -2 -12   18.29    1.04
   7  -2  12   19.71    1.16
  -7  -2 -12   18.10    1.15
  -7   2 -12   18.14    0.94
  -7   2 -12   18.23    1.19
   7  -2 -12   17.86    1.15
   7   2  12   17.20    1.17
  -7  -3 -12    4.12    0.73
   7  -3  12    4.12    0.63
   7   3 -12    2.61    0.61
  -7  -3 -12    4.19    0.55
  -7   3 -12    3.76    0.73
   7  -3 -12    4.61    0.64
   7   3  12    3.20    0.60
   7  -4  12   20.60    1.26
   7   4 -12   18.80    1.04
   7   4 -12   19.71    1.37
  -7  -4 -12   22.14    1.42
  -7   4 -12   15.79    1.24
   7  -4 -12   20.60    1.22
   7   5 -12   11.29    1.25
   7  -5  12    9.21    0.97
  -7  -5 -12    8.36    1.06
   7   5 -12   10.31    0.91
  -7   5 -12    9.12    1.09
   7  -5 -12    9.70    1.17
   7  -5 -12    9.85    0.95
   7  -6  12   -0.20    0.40
  -7  -6 -12   -0.09    0.44
   7   6 -12   -0.46    0.44
   7   6 -12    0.30    0.42
   7  -6 -12   -0.27    0.39
   7  -6 -12    0.48    0.37
  -7   6 -12    0.00    0.42
   7  -7  12    6.98    0.99
   7   7 -12    8.95    1.21
   7   7 -12    5.51    0.83
  -7  -7 -12    6.85    1.07
  -7   7 -12    6.61    1.06
   7  -7 -12    8.54    1.14
   7  -8  12    6.21    0.99
   7   8 -12    5.28    1.04
   7   8 -12    6.23    0.95
  -7  -8 -12    5.86    1.05
   7  -8 -12    6.90    1.07
  -7   8 -12    5.39    0.97
   7   9 -12    0.72    0.60
   7   9 -12    0.00    0.53
   7  -9  12    1.83    0.67
  -7  -9 -12    0.63    0.65
   7   9  12    0.25    0.52
  -7   9 -12    0.28    0.63
   7  -9 -12    0.01    0.53
   7  10 -12    1.05    0.70
  -7 -10 -12   -0.52    0.62
   7  10 -12    0.13    0.60
   7 -10  12    0.26    0.64
  -7  10 -12   -0.19    0.51
   7 -10 -12    1.02    0.70
  -7   0 -13   16.68    1.14
   7   0 -13   18.27    1.24
  -7  -1 -13    2.69    0.53
  -7  -1 -13    3.12    0.59
   7   1 -13    2.63    0.59
  -7   1 -13    2.87    0.50
   7   1  13    1.77    0.47
  -7   1 -13    3.29    0.63
   7  -1 -13    2.16    0.58
   7   2 -13    1.80    0.54
   7  -2  13    1.47    0.46
  -7  -2 -13    1.19    0.48
  -7  -2 -13    1.80    0.48
  -7   2 -13    1.19    0.37
   7   2  13    2.00    0.50
  -7   2 -13    1.06    0.47
   7  -2 -13    1.42    0.46
  -7  -3 -13   14.31    1.30
   7   3 -13   13.17    1.30
   7  -3  13   12.71    1.02
  -7   3 -13   12.85    1.25
   7  -3 -13   12.79    0.99
   7   3  13   13.97    1.01
   7  -4  13    7.27    0.88
  -7  -4 -13    6.53    0.97
   7   4 -13    6.38    0.97
  -7   4 -13    4.48    0.80
   7   4  13    7.03    0.83
   7  -4 -13    7.68    0.88
   7  -4 -13    7.95    1.02
   7   5 -13    1.49    0.66
  -7  -5 -13    1.50    0.69
   7  -5  13    2.97    0.67
   7   5  13    2.25    0.55
  -7   5 -13    1.92    0.66
   7  -5 -13    1.50    0.60
   7  -5 -13    1.31    0.48
   7   6 -13    6.58    1.02
   7   6 -13    5.92    0.77
   7  -6  13    7.04    0.94
  -7  -6 -13    6.55    1.01
   7  -6 -13    6.43    0.81
  -7   6 -13    6.49    1.05
   7  -6 -13    8.34    1.14
   7   6  13    5.87    0.85
   7   7 -13    3.21    0.87
   7  -7  13    2.51    0.68
   7   7 -13    2.62    0.64
  -7  -7 -13    4.21    0.91
   7  -7 -13    3.47    0.90
  -7   7 -13    3.95    0.86
  -7  -8 -13    0.37    0.63
   7  -8  13   -0.20    0.46
   7   8 -13   -0.46    0.48
   7   8 -13   -0.29    0.45
   7  -8 -13    0.37    0.63
  -7   8 -13    1.83    0.73
   7  -9  13    3.15    0.82
   7   9 -13    2.85    0.80
  -7  -9 -13    1.80    0.82
   7   9 -13    1.30    0.69
   7  -9 -13    2.47    0.85
  -7   9 -13    2.93    0.92
   7  10 -13    5.52    1.04
   7  10 -13    3.79    0.98
  -7  10 -13    4.17    1.06
   7   0 -14    0.43    0.43
   7   0  14   -0.23    0.31
  -7   0 -14   -0.25    0.37
   7   1 -14   10.20    1.09
  -7  -1 -14    7.56    0.88
  -7  -1 -14    9.78    0.97
  -7   1 -14   10.85    0.84
   7  -1 -14    8.92    1.04
   7   1  14    9.54    0.93
  -7   1 -14   11.65    1.12
  -7  -2 -14   12.83    0.99
   7   2 -14   12.29    1.23
  -7  -2 -14   14.85    1.30
  -7   2 -14   14.01    1.30
   7   2  14   13.60    0.98
   7  -2 -14   14.76    1.15
   7  -3  14    1.49    0.52
  -7  -3 -14    1.65    0.56
   7   3 -14    0.45    0.45
  -7   3 -14    1.50    0.57
   7  -3 -14    0.66    0.49
   7   3  14    1.15    0.43
   7  -3 -14    0.55    0.44
   7  -4  14    3.14    0.66
   7   4 -14    2.95    0.72
  -7  -4 -14    2.98    0.72
  -7   4 -14    2.46    0.66
   7   4  14    2.54    0.54
   7  -4 -14    2.37    0.59
   7  -4 -14    1.61    0.61
  -7  -5 -14   20.27    1.51
   7  -5  14   19.56    1.37
   7   5 -14   20.71    1.54
   7  -5 -14   21.76    1.61
   7  -5 -14   21.38    1.35
  -7   5 -14   17.93    1.47
   7   6 -14    2.91    0.84
  -7  -6 -14    4.77    0.96
   7  -6  14    2.58    0.68
   7  -6 -14    3.77    0.86
  -7   6 -14    2.47    0.82
   7  -6 -14    2.82    0.69
   7   7 -14    4.85    0.97
   7  -7  14    2.97    0.76
  -7  -7 -14    3.11    0.84
   7  -7 -14    5.29    1.06
  -7   7 -14    3.74    0.87
   7   8 -14    6.21    1.13
  -7  -8 -14    3.09    0.89
   7  -8  14    5.89    1.03
  -7   8 -14    4.85    1.00
   7  -8 -14    4.63    1.05
  -7  -9 -14    0.42    0.74
   7   9 -14   -0.67    0.57
   7  -9  14    0.93    0.72
  -7   9 -14    0.68    0.73
   7  -9 -14    0.66    0.77
   7   0 -15   12.36    1.25
   7   0  15   13.87    1.01
  -7   0 -15   11.96    1.18
   7   1 -15    0.76    0.55
  -7  -1 -15    0.84    0.48
   7  -1  15    0.90    0.44
  -7  -1 -15    0.50    0.49
   7   1  15    1.33    0.44
  -7   1 -15    0.86    0.41
  -7   1 -15    1.09    0.54
   7  -1 -15    1.27    0.59
   7  -1 -15    1.60    0.58
  -7  -2 -15    4.62    0.74
   7   2 -15    5.47    0.92
  -7  -2 -15    5.92    0.88
   7  -2 -15    5.68    0.85
   7  -2 -15    4.53    0.81
  -7   2 -15    4.00    0.83
   7   3 -15    5.83    0.96
   7  -3  15    6.21    0.85
  -7  -3 -15    4.72    0.83
  -7   3 -15    5.58    0.95
   7  -3 -15    5.68    0.81
   7  -3 -15    7.62    1.05
   7   4 -15    0.03    0.45
  -7  -4 -15    0.60    0.55
   7  -4  15    1.20    0.53
   7  -4 -15    0.70    0.50
  -7   4 -15    0.30    0.48
   7  -4 -15   -0.09    0.42
  -7  -5 -15   -0.62    0.54
   7  -5  15    0.14    0.50
   7   5 -15   -0.50    0.41
  -7   5 -15    0.18    0.56
   7  -5 -15    0.06    0.42
   7  -5 -15    0.07    0.55
   7  -6  15    3.44    0.75
   7   6 -15    2.44    0.84
  -7  -6 -15    3.08    0.85
   7  -6 -15    3.02    0.86
  -7   6 -15    2.31    0.77
   7  -7  15    3.72    0.86
  -7  -7 -15    4.18    1.04
   7   7 -15    4.03    0.98
   7  -7 -15    5.14    1.08
  -7   7 -15    4.19    1.00
   7  -8  15    0.21    0.52
  -7  -8 -15   -0.25    0.70
   7   8 -15    0.42    0.60
   7  -8 -15   -0.98    0.65
  -7   8 -15   -0.55    0.63
   7   0 -16    0.33    0.51
  -7   0 -16    0.01    0.45
   7   0 -16   -0.67    0.41
  -7  -1 -16    3.95    0.75
   7   1 -16    4.88    0.90
   7  -1  16    4.86    0.73
  -7  -1 -16    6.38    0.90
  -7   1 -16    6.11    0.93
   7  -1 -16    6.49    0.97
   7  -1 -16    5.07    0.89
   7   2 -16    5.38    0.98
  -7  -2 -16    4.70    0.85
  -7  -2 -16    4.59    0.74
  -7   2 -16    4.66    0.84
   7  -2 -16    6.94    0.98
   7  -2 -16    4.36    0.83
  -7  -3 -16    0.25    0.49
   7   3 -16   -0.41    0.53
   7  -3 -16    1.00    0.59
  -7   3 -16   -0.55    0.47
   7  -3 -16    1.06    0.55
  -7  -4 -16    2.24    0.75
   7   4 -16    4.58    0.90
   7  -4  16    4.00    0.77
   7  -4 -16    3.35    0.76
  -7   4 -16    2.85    0.77
   7  -4 -16    4.67    0.90
   7  -5  16    6.85    0.98
   7   5 -16    4.98    1.01
  -7  -5 -16    5.40    1.07
   7  -5 -16    5.76    0.86
   7  -5 -16    6.12    1.04
  -7   5 -16    6.07    1.08
  -7  -6 -16    0.30    0.64
   7   6 -16    0.78    0.69
   7  -6  16    0.73    0.59
   7  -6 -16    1.19    0.72
  -7   6 -16   -0.36    0.61
   7   7 -16    1.47    0.76
   7  -7  16    1.83    0.73
  -7  -7 -16    1.62    0.87
  -7   7 -16    1.11    0.70
   7  -7 -16    1.47    0.88
  -7  -8 -16    3.28    1.04
   7   8 -16    4.66    1.10
   7  -8  16    3.98    0.93
  -7   8 -16    4.82    1.10
   7  -8 -16    2.85    0.94
  -7   0 -17    3.51    0.77
   7   0 -17    5.55    0.89
   7   0 -17    3.97    0.82
  -7  -1 -17    3.35    0.74
   7   1 -17    2.26    0.72
  -7  -1 -17    2.18    0.65
   7  -1 -17    2.49    0.76
  -7   1 -17    2.04    0.70
   7  -1 -17    3.11    0.71
   7   2 -17    0.64    0.59
  -7  -2 -17    2.38    0.71
   7  -2 -17    0.62    0.54
   7  -2 -17    0.75    0.60
  -7   2 -17    1.09    0.67
  -7  -3 -17    5.55    1.00
   7   3 -17    5.61    1.04
   7  -3 -17    5.36    0.92
   7  -3 -17    7.48    1.10
  -7   3 -17    5.38    0.94
   7   4 -17    0.96    0.66
  -7  -4 -17    1.91    0.76
   7  -4 -17    2.60    0.74
   7  -4 -17    2.05    0.66
  -7   4 -17    2.08    0.80
   7  -5  17    0.07    0.51
  -7  -5 -17   -0.01    0.58
   7   5 -17    0.29    0.60
  -7   5 -17   -0.23    0.61
   7  -5 -17    0.84    0.74
   7   6 -17    4.55    1.07
  -7  -6 -17    2.16    0.89
   7  -6  17    2.18    0.74
   7  -6 -17    2.94    0.94
  -7   6 -17    3.16    0.95
  -7  -7 -17    0.48    0.79
   7  -7  17    0.96    0.73
   7   7 -17    1.47    0.84
   7  -7 -17    2.10    0.98
  -7   7 -17    1.46    0.78
  -7   0 -18    0.04    0.48
   7   0 -18   -0.29    0.52
   7   0 -18   -0.69    0.41
  -7  -1 -18    2.38    0.70
  -7  -1 -18    2.25    0.66
   7   1 -18    1.28    0.64
   7  -1 -18    0.85    0.64
   7  -1 -18    1.79    0.64
  -7   1 -18    1.43    0.68
   7   2 -18    4.21    0.97
  -7  -2 -18    4.39    0.88
  -7   2 -18    4.78    1.02
   7  -2 -18    3.04    0.79
   7  -2 -18    4.57    0.92
   7   3 -18    0.35    0.60
  -7  -3 -18    0.87    0.64
  -7   3 -18   -0.08    0.60
   7  -3 -18    0.66    0.56
   7  -3 -18    1.54    0.73
  -7  -4 -18    2.70    0.91
   7   4 -18    2.54    0.86
  -7   4 -18    1.85    0.79
   7  -4 -18    1.16    0.70
   7  -4 -18    1.34    0.66
   7   5 -18    3.40    1.06
  -7  -5 -18    5.66    1.13
   7  -5 -18    5.63    1.15
  -7   5 -18    3.07    0.87
   7   6 -18    1.26    0.74
  -7  -6 -18   -0.01    0.72
  -7   6 -18   -0.07    0.63
   7  -6 -18   -0.15    0.74
  -7   0 -19    3.72    0.88
   7   0 -19    2.90    0.87
  -7  -1 -19    0.87    0.63
   7   1 -19    0.96    0.68
  -7   1 -19   -0.29    0.53
   7  -1 -19    0.39    0.60
   7  -1 -19    1.41    0.64
   7   2 -19    1.15    0.72
  -7  -2 -19    0.61    0.68
  -7   2 -19    0.42    0.68
   7  -2 -19   -0.20    0.56
   7  -2 -19    1.78    0.74
  -7  -3 -19    1.95    0.83
   7   3 -19    2.27    0.82
  -7   3 -19    3.19    0.93
   7  -3 -19    1.99    0.84
   7  -3 -19    2.62    0.80
  -7  -4 -19    1.21    0.78
   7   4 -19    0.92    0.79
   7  -4 -19    2.00    0.91
   7  -4 -19    1.56    0.72
  -7   4 -19    2.24    0.86
  -7  -5 -19    0.02    0.63
   7   5 -19    0.13    0.70
  -7   5 -19    0.16    0.68
   7   0 -20   -0.03    0.63
  -7   0 -20    0.38    0.64
   7   1 -20    3.09    0.96
   7  -1 -20   -0.04    0.67
   7  -1 -20    0.87    0.73
  -7   1 -20    1.02    0.72
  -7  -2 -20    1.93    0.76
   7   2 -20    1.00    0.74
   7  -2 -20    1.91    0.80
   7  -2 -20    1.16    0.79
  -7   2 -20    0.47    0.70
   7   3 -20    0.88    0.83
  -7  -3 -20   -0.17    0.67
   7  -3 -20    0.02    0.65
  -7   3 -20    0.87    0.74
   7  -3 -20    0.21    0.66
   8   0   0   48.53    1.65
   8  -1   0    1.41    0.24
   8   1   0    1.07    0.19
   8   1   0    1.10    0.21
   8  -2   0   82.63    2.61
   8   2   0   84.33    2.64
   8   2   0   81.75    2.50
   8  -3   0   40.06    1.47
   8   3   0   40.15    1.36
   8   3   0   41.06    1.54
   8   4   0    0.34    0.21
  -8   4   0    0.28    0.21
   8   4   0    0.45    0.15
   8   5   0    2.79    0.46
  -8   5   0    2.14    0.40
  -8  -5   0    2.49    0.36
   8   5   0    2.72    0.31
  -8  -6   0   41.15    1.59
   8   6   0   41.63    1.83
   8   6   0   39.84    1.38
  -8   6   0   37.92    1.64
  -8   7   0   19.20    1.14
  -8  -7   0   22.49    1.09
   8   7   0   20.82    1.30
  -8  -8   0   -0.19    0.22
   8   8   0    0.88    0.47
  -8   8   0    0.06    0.32
   8  -8   0    0.29    0.26
   8   9   0   36.61    2.01
  -8   9   0   35.05    1.76
   8  -9   0   32.76    1.59
  -8  -9   0   34.95    1.59
  -8 -10   0   25.29    1.39
   8  10   0   27.76    1.81
  -8  10   0   28.73    1.67
   8  11   0    0.21    0.50
  -8  11   0   -0.24    0.43
  -8  12   0   11.53    1.35
   8  12   0   11.83    1.60
   8   0  -1   -0.05    0.11
   8   0   1   -0.14    0.12
   8   0  -1    0.07    0.14
   8   1  -1    4.79    0.34
   8  -1   1    5.22    0.40
   8   1  -1    5.25    0.36
   8   1   1    4.23    0.42
   8  -1  -1    4.52    0.35
   8   2  -1   77.92    2.54
   8  -2   1   81.17    2.58
   8  -2  -1   78.71    2.51
   8   2   1   83.94    2.61
   8   2   1   81.05    2.40
   8  -3   1    0.70    0.22
  -8  -3  -1    0.95    0.24
   8   3  -1    0.42    0.20
   8   3  -1    0.84    0.20
   8  -3  -1    1.07    0.24
   8   3   1    0.58    0.23
   8   3   1    1.00    0.17
   8   4  -1   11.49    0.74
   8   4  -1   12.28    0.62
  -8   4   1   13.46    0.71
   8  -4   1   12.39    0.72
  -8  -4  -1   12.24    0.69
   8   4   1   12.56    0.77
   8   4   1   12.72    0.54
  -8   4  -1   11.80    0.72
  -8   5   1   66.24    2.33
  -8  -5  -1   64.45    2.32
   8   5  -1   67.50    2.19
   8   5  -1   66.47    2.47
  -8   5  -1   70.41    2.41
   8   5   1   71.89    2.52
   8   5   1   65.57    2.03
  -8   6   1   16.64    0.94
   8   6  -1   15.35    0.76
  -8  -6  -1   15.39    0.89
   8   6  -1   15.34    1.02
  -8   6  -1   16.50    0.95
   8   6   1   16.11    0.66
   8   6   1   14.59    1.00
  -8   7   1   17.48    1.05
   8   7  -1   16.08    1.17
  -8  -7  -1   20.12    1.06
  -8  -7   1   19.29    0.98
   8   7   1   18.16    1.23
  -8   7  -1   19.62    1.13
   8  -8   1   30.72    1.38
  -8  -8  -1   30.53    1.45
  -8   8   1   31.28    1.55
   8   8  -1   30.76    1.70
   8   8   1   28.77    1.68
  -8   8  -1   31.07    1.58
   8  -8  -1   30.12    1.46
  -8  -8   1   32.63    1.41
  -8  -9  -1    0.47    0.32
  -8   9   1    0.29    0.43
   8   9  -1   -0.16    0.40
  -8   9  -1    0.89    0.43
   8  -9  -1    0.73    0.34
   8   9   1    0.46    0.45
  -8 -10  -1    4.31    0.67
   8  10  -1    5.54    1.01
  -8  10   1    3.88    0.78
   8  10   1    4.64    0.90
  -8  10  -1    4.71    0.81
  -8  11   1    3.82    0.78
   8  11  -1    4.30    0.94
   8  11   1    4.78    1.00
  -8  11  -1    1.84    0.63
  -8  12   1    5.65    1.04
   8  12  -1    5.12    1.21
   8  12   1    6.09    1.21
  -8  12  -1    4.88    1.01
   8   0  -2  115.63    3.37
   8   0   2  112.69    3.53
   8   0  -2  114.34    3.44
   8   1  -2   47.74    1.58
   8  -1   2   50.61    1.73
   8   1  -2   49.16    1.63
   8  -1  -2   47.10    1.57
   8   1   2   47.17    1.69
   8  -1  -2   46.14    1.63
   8   2  -2   99.96    3.03
   8  -2   2   97.06    3.08
   8   2  -2   96.11    3.02
  -8  -2  -2  102.47    3.08
   8   2   2   95.68    3.08
   8  -2  -2   95.93    2.95
   8  -3   2   85.06    2.73
  -8  -3  -2   83.76    2.72
   8   3  -2   82.06    2.72
   8  -3  -2   85.78    2.62
   8   3   2   80.59    2.75
   8   3   2   84.73    2.45
   8  -4   2    7.74    0.57
  -8  -4  -2    7.74    0.58
   8   4  -2    8.27    0.61
   8   4  -2    8.09    0.54
   8   4   2    8.70    0.38
   8   4   2    7.77    0.61
  -8   5   2    7.23    0.56
  -8  -5  -2    6.78    0.64
   8   5  -2    6.49    0.68
   8   5  -2    6.81    0.51
   8   5   2    6.64    0.30
   8   5   2    7.47    0.74
  -8   5  -2    7.83    0.72
   8   6  -2    2.71    0.38
  -8  -6  -2    3.44    0.48
  -8   6   2    2.51    0.42
   8   6  -2    3.18    0.54
   8   6   2    3.86    0.59
  -8   6  -2    2.95    0.50
   8   7  -2   14.19    1.08
  -8   7   2   14.72    0.96
  -8  -7  -2   15.75    0.96
   8   7   2   15.19    1.12
  -8   7  -2   13.85    0.97
  -8  -8  -2    0.60    0.33
   8   8  -2   -0.13    0.32
  -8   8   2    0.35    0.37
   8   8   2    0.38    0.40
   8  -8  -2    0.45    0.31
  -8   8  -2    0.35    0.40
   8   9  -2   21.01    1.50
  -8  -9  -2   18.63    1.18
  -8   9   2   19.88    1.28
  -8   9  -2   17.99    1.30
   8   9   2   19.23    1.42
   8  -9  -2   20.78    1.22
  -8  10   2   14.83    1.35
  -8 -10  -2   13.37    1.05
   8  10  -2   12.84    1.45
   8  10   2   13.74    1.49
   8 -10  -2   14.74    1.12
  -8  10  -2   14.83    1.21
   8  11  -2   -0.89    0.46
  -8 -11  -2   -0.20    0.41
  -8  11   2   -0.25    0.43
  -8  11  -2    0.39    0.48
   8  11   2    0.58    0.52
  -8  12   2   10.62    1.34
   8  12  -2   10.25    1.48
   8  12   2    8.39    1.36
  -8  12  -2    9.53    1.28
   8   0   3   -0.04    0.14
   8   0  -3   -0.07    0.12
   8   0  -3    0.05    0.10
  -8  -1  -3   45.46    1.61
   8   1  -3   45.37    1.52
   8  -1   3   46.03    1.70
   8   1  -3   46.17    1.63
   8   1   3   45.82    1.69
   8  -1  -3   47.34    1.63
   8  -1  -3   46.80    1.49
   8   2  -3  104.25    3.18
  -8  -2  -3  104.27    3.27
   8   2  -3  103.71    3.23
   8  -2   3  105.24    3.30
   8  -2  -3  102.40    3.09
   8  -2  -3  107.08    3.24
   8   2   3  101.97    3.29
   8   3  -3   96.09    3.18
   8   3  -3   99.41    3.11
   8  -3   3   96.75    3.11
  -8  -3  -3   97.94    3.13
   8   3   3   98.55    2.78
   8  -3  -3   96.61    2.94
   8   3   3   93.27    3.14
   8  -4   3   50.61    1.87
  -8   4   3   50.23    1.73
   8   4  -3   52.86    1.94
  -8  -4  -3   48.62    1.86
   8   4  -3   50.36    1.89
   8   4   3   46.91    1.89
  -8  -5  -3   81.67    2.77
   8   5  -3   74.42    2.78
   8   5  -3   79.05    2.65
   8   5   3   79.07    2.84
  -8   5  -3   82.00    2.77
   8   6  -3   15.14    0.84
  -8   6   3   14.15    0.84
  -8  -6  -3   13.70    0.90
   8   6  -3   14.35    0.98
   8   6   3   14.02    0.98
  -8   6  -3   12.84    0.90
  -8  -7  -3    2.83    0.51
   8   7  -3    3.21    0.61
  -8   7   3    3.30    0.52
   8   7  -3    2.85    0.45
  -8   7  -3    2.92    0.57
   8   7   3    2.79    0.58
  -8  -8  -3   22.93    1.29
   8   8  -3   22.14    1.44
  -8   8   3   21.62    1.27
   8   8   3   23.95    1.49
  -8   8  -3   22.39    1.34
   8  -8  -3   26.66    1.38
  -8  -9  -3    1.16    0.45
  -8   9   3    2.50    0.58
   8   9  -3    2.00    0.67
  -8   9  -3    2.39    0.63
   8  -9  -3    1.94    0.52
   8   9   3    2.78    0.71
   8  10  -3    0.56    0.55
  -8 -10  -3    1.48    0.52
  -8  10   3    0.29    0.47
  -8  10  -3    0.06    0.44
   8  10   3    1.04    0.63
   8 -10  -3    0.80    0.43
  -8  11   3    2.78    0.71
  -8 -11  -3    4.34    0.74
   8  11  -3    4.32    0.97
   8  11   3    5.54    1.08
  -8  11  -3    4.32    0.85
   8  12  -3    4.17    1.06
  -8  12   3    5.07    0.95
   8  12   3    5.36    1.14
  -8  12  -3    5.33    1.00
   8   0   4   65.32    2.26
   8   0  -4   66.70    1.97
   8   0  -4   62.06    2.16
  -8  -1  -4    0.35    0.18
   8   1  -4    0.38    0.18
   8   1  -4    0.34    0.14
   8  -1   4    0.56    0.23
   8  -1  -4    0.53    0.21
   8   1   4    0.13    0.18
   8  -1  -4    0.42    0.12
   8   2  -4    2.76    0.39
  -8  -2  -4    2.67    0.39
   8  -2   4    1.97    0.34
   8   2  -4    2.93    0.34
   8  -2  -4    2.58    0.36
   8  -2  -4    2.93    0.27
   8   2   4    2.76    0.40
  -8  -3  -4  117.24    3.77
   8   3  -4  117.33    3.74
   8  -3   4  119.45    3.76
   8   3  -4  123.41    3.72
   8  -3  -4  122.42    3.70
   8  -3  -4  119.64    3.52
   8   3   4  115.85    3.78
  -8  -4  -4    2.60    0.41
   8  -4   4    3.37    0.46
   8   4  -4    2.31    0.40
  -8   4   4    2.53    0.32
   8   4  -4    2.68    0.43
   8   4   4    2.42    0.45
   8  -4  -4    2.89    0.39
  -8  -5  -4    4.69    0.59
   8   5  -4    3.97    0.55
  -8   5   4    4.02    0.46
   8   5  -4    4.38    0.53
  -8   5  -4    5.20    0.62
   8  -5  -4    5.43    0.57
   8   5   4    3.60    0.53
  -8  -6  -4   16.20    1.01
   8   6  -4   17.82    1.00
   8   6  -4   19.53    1.16
  -8   6   4   18.74    0.96
   8   6   4   18.52    1.16
  -8   6  -4   17.86    1.06
  -8  -7  -4   15.11    0.99
   8   7  -4   12.22    0.85
   8   7  -4   13.15    1.06
   8   7   4   12.96    1.05
  -8   7  -4   14.15    1.03
   8   8  -4    0.32    0.31
  -8  -8  -4    0.59    0.36
   8   8  -4   -0.26    0.34
  -8   8   4    0.68    0.38
   8  -8  -4    0.44    0.34
  -8   8  -4    0.00    0.34
   8   8   4    0.91    0.45
  -8  -9  -4   12.51    1.01
   8   9  -4   10.75    1.23
  -8   9   4   11.11    1.05
   8  -9  -4   12.76    1.19
   8   9   4   16.51    1.52
  -8   9  -4   12.76    1.24
  -8 -10  -4   22.41    1.45
   8  10  -4   25.04    1.74
  -8  10   4   24.56    1.52
  -8  10  -4   25.14    1.59
   8 -10  -4   25.34    1.55
   8  10   4   30.22    1.90
   8  11  -4   -0.22    0.56
  -8  11   4   -0.33    0.41
  -8 -11  -4   -0.45    0.36
  -8  11  -4   -0.11    0.50
   8  11   4    0.18    0.60
   8  12  -4    9.83    1.46
  -8  12   4   11.40    1.31
   8  12   4   11.71    1.56
  -8  12  -4   11.29    1.39
  -8   0  -5    0.05    0.15
   8   0  -5    0.15    0.10
   8   0  -5   -0.08    0.14
   8   0   5   -0.25    0.16
   8  -1   5    0.75    0.27
   8   1  -5    0.79    0.17
   8   1  -5    0.72    0.22
  -8  -1  -5    0.40    0.21
  -8   1  -5    0.50    0.20
   8  -1  -5    0.57    0.12
   8   1   5    0.45    0.22
   8  -1  -5    0.57    0.20
   8   2  -5   13.06    0.77
  -8  -2  -5   13.98    0.78
   8  -2   5   12.97    0.77
   8   2  -5   11.34    0.63
  -8   2  -5   12.65    0.76
   8  -2  -5   13.52    0.75
   8  -2  -5   14.10    0.55
   8   2   5   13.74    0.81
   8  -3   5   29.59    1.31
   8   3  -5   29.45    1.31
  -8  -3  -5   31.38    1.34
   8   3  -5   33.29    1.28
   8  -3  -5   30.24    1.05
   8  -3  -5   28.97    1.24
   8   3   5   29.63    1.33
  -8   3  -5   29.09    1.34
  -8   4   5   41.34    1.43
   8   4  -5   42.21    1.70
  -8  -4  -5   38.67    1.66
   8   4  -5   39.58    1.63
   8  -4   5   40.24    1.66
   8   4   5   41.66    1.18
   8  -4  -5   44.53    1.62
   8   4   5   39.37    1.68
  -8   4  -5   39.80    1.70
  -8   5   5   63.60    2.13
   8   5  -5   67.29    2.41
   8   5  -5   63.87    2.35
  -8  -5  -5   61.32    2.36
   8  -5   5   62.01    2.35
   8  -5  -5   60.47    2.21
   8   5   5   64.08    2.42
  -8  -6  -5    0.71    0.34
   8   6  -5    0.53    0.35
  -8   6   5    0.05    0.20
   8  -6  -5   -0.13    0.21
   8   6   5    0.60    0.34
  -8   6  -5    0.33    0.32
  -8  -7  -5   28.73    1.48
  -8   7   5   30.13    1.36
   8   7  -5   29.94    1.60
   8   7  -5   27.08    1.41
  -8   7  -5   28.19    1.49
   8  -7  -5   30.40    1.36
   8   7   5   26.27    1.54
   8   8  -5   22.31    1.48
  -8  -8  -5   22.05    1.34
   8   8  -5   22.57    1.27
   8   8   5   22.77    1.49
   8  -8  -5   21.30    1.36
  -8   8  -5   20.34    1.32
   8  -8  -5   21.47    1.15
   8   9  -5    0.99    0.53
  -8  -9  -5    1.24    0.44
   8  -9  -5    0.49    0.36
   8   9   5    2.71    0.71
   8  -9  -5    1.47    0.43
  -8   9  -5    0.76    0.49
   8  10  -5    2.31    0.71
  -8  10   5    2.51    0.65
  -8 -10  -5    1.97    0.60
   8  10   5    2.48    0.81
  -8  10  -5    2.46    0.70
   8 -10  -5    2.20    0.65
  -8 -11  -5    9.16    1.15
   8  11  -5    9.37    1.36
  -8  11   5    8.87    1.08
  -8  11  -5    9.44    1.19
   8  11   5    7.81    1.26
   8 -11  -5    9.77    1.16
  -8 -12  -5    6.48    1.02
  -8  12   5    4.74    0.92
   8  12  -5    5.46    1.21
  -8  12  -5    4.67    1.03
   8  12   5    5.32    1.12
   8   0   6    3.83    0.51
  -8   0  -6    3.36    0.40
   8   0  -6    3.64    0.45
   8   0  -6    3.89    0.25
  -8   0  -6    3.69    0.42
   8   1  -6   89.96    2.72
  -8  -1  -6   91.76    2.96
   8  -1   6   88.53    3.04
  -8  -1  -6   94.83    2.85
   8   1  -6   94.02    3.03
   8  -1  -6   91.29    2.57
   8   1   6   85.82    3.04
  -8   1  -6   87.27    2.95
   8  -1  -6   90.86    2.98
   8   2  -6   35.42    1.50
  -8  -2  -6   37.35    1.48
   8   2  -6   34.54    1.30
   8  -2   6   36.08    1.50
   8  -2  -6   34.74    1.42
  -8   2  -6   34.21    1.47
   8   2   6   35.29    1.50
   8  -2  -6   35.26    1.10
   8   3  -6   51.81    1.81
  -8  -3  -6   51.54    1.95
   8  -3   6   49.00    1.90
   8   3  -6   46.54    1.91
   8  -3  -6   49.34    1.84
  -8   3  -6   51.96    1.99
   8   3   6   49.37    1.93
   8  -3  -6   49.08    1.56
   8  -4   6   11.14    0.80
  -8  -4  -6   10.42    0.79
   8   4  -6    9.07    0.73
  -8   4   6   11.57    0.57
   8   4  -6   11.51    0.75
  -8   4  -6   11.32    0.82
   8  -4  -6   10.34    0.71
   8   4   6   10.67    0.77
  -8  -5  -6    5.84    0.70
   8   5  -6    6.48    0.73
   8  -5   6    8.07    0.78
   8   5  -6    6.47    0.72
  -8   5   6    6.68    0.49
   8  -5  -6    6.60    0.65
  -8   5  -6    5.83    0.72
   8   5   6    6.58    0.76
  -8   6   6   20.17    0.96
  -8  -6  -6   18.70    1.14
   8   6  -6   19.97    1.16
   8   6  -6   17.06    1.12
  -8   6  -6   18.66    1.12
   8   6   6   18.45    1.16
   8  -6  -6   18.78    1.01
  -8   6  -6   18.18    1.16
   8   7  -6    3.99    0.69
  -8  -7  -6    4.24    0.70
  -8   7   6    3.69    0.53
  -8   7  -6    4.68    0.69
   8  -7  -6    3.25    0.51
   8   7   6    4.56    0.76
  -8  -8  -6    3.65    0.71
   8   8  -6    3.64    0.73
   8   8  -6    5.79    0.80
  -8   8   6    3.73    0.59
  -8   8  -6    3.80    0.69
   8   8   6    5.09    0.85
   8  -8  -6    4.10    0.74
   8  -8  -6    5.50    0.64
   8   9  -6    7.44    1.01
  -8  -9  -6    8.14    0.99
   8   9  -6    6.98    0.98
   8  -9  -6    6.54    0.89
   8   9   6    4.96    0.95
  -8   9  -6    5.90    0.90
  -8 -10  -6   19.61    1.43
   8  10  -6   20.47    1.64
   8  10   6   21.96    1.63
  -8  10  -6   20.05    1.53
   8 -10  -6   22.05    1.53
  -8 -11  -6    0.85    0.57
   8  11  -6    0.76    0.67
  -8  11  -6    0.66    0.65
   8  11   6    0.10    0.61
   8 -11  -6    1.20    0.60
  -8 -12  -6    9.75    1.25
   8  12  -6    8.46    1.36
  -8  12  -6    5.31    1.05
   8  12   6    7.12    1.27
  -8   0  -7   -0.06    0.19
   8   0  -7   -0.03    0.20
  -8   0  -7   -0.17    0.19
   8   0   7   -0.07    0.22
   8   0  -7    0.05    0.09
   8  -1   7   17.89    1.01
  -8  -1  -7   19.01    0.89
   8   1  -7   19.38    0.75
  -8  -1  -7   20.83    1.00
   8   1  -7   19.09    1.04
  -8   1  -7   18.58    0.86
   8   1   7   18.06    1.02
  -8   1  -7   19.92    1.01
   8  -1  -7   18.58    0.98
   8  -2   7   48.12    1.88
   8   2  -7   45.96    1.88
   8   2  -7   48.86    1.65
  -8  -2  -7   47.48    1.85
  -8  -2  -7   48.74    1.66
   8   2   7   47.14    1.90
  -8   2  -7   46.91    1.88
   8  -2  -7   47.28    1.83
  -8  -3  -7    3.81    0.55
   8   3  -7    4.25    0.60
   8   3  -7    3.73    0.44
   8  -3   7    4.79    0.57
   8   3   7    4.42    0.57
   8  -3  -7    3.67    0.26
   8  -3  -7    4.64    0.54
  -8   3  -7    4.22    0.58
   8   4  -7   22.11    1.11
   8   4  -7   22.03    1.21
  -8  -4  -7   20.91    1.18
   8  -4   7   24.09    1.19
   8  -4  -7   23.69    1.13
   8  -4  -7   23.07    0.86
  -8   4  -7   23.23    1.27
   8   4   7   22.04    1.19
   8   5  -7   31.79    1.54
  -8  -5  -7   29.53    1.49
  -8   5   7   31.01    1.18
   8  -5   7   30.68    1.48
   8   5  -7   32.50    1.47
   8  -5  -7   29.33    1.35
   8   5   7   30.71    1.51
  -8   5  -7   30.19    1.54
   8   6  -7   -0.09    0.25
  -8  -6  -7   -0.39    0.24
   8   6  -7    0.04    0.31
   8  -6   7   -0.07    0.33
  -8   6   7    0.16    0.20
   8   6   7   -0.34    0.22
   8  -6  -7    0.27    0.24
  -8   6  -7   -0.18    0.26
   8   7  -7   17.00    1.16
   8   7  -7   15.43    1.18
  -8  -7  -7   15.59    1.14
  -8   7   7   14.66    0.91
   8   7   7   16.03    1.20
  -8   7  -7   15.85    1.14
  -8   7  -7   16.44    1.22
   8  -7  -7   16.07    0.99
  -8  -8  -7   12.09    1.20
   8   8  -7   13.32    1.28
  -8   8   7   11.38    0.88
  -8   8  -7   13.05    1.23
   8  -8  -7   12.66    0.90
   8  -8  -7   12.98    1.28
   8   8   7    9.97    1.17
  -8  -9  -7    0.79    0.48
   8   9  -7    1.04    0.52
   8   9  -7    0.82    0.50
  -8   9  -7    0.79    0.53
   8  -9  -7    0.04    0.36
   8   9   7    1.00    0.53
  -8 -10  -7    2.83    0.75
   8  10  -7    3.74    0.90
   8 -10  -7    4.89    0.94
  -8  10  -7    4.52    0.91
   8  10   7    3.67    0.89
  -8 -11  -7    5.84    0.96
   8  11  -7    5.71    1.07
   8  11   7    6.38    1.17
  -8  11  -7    4.66    0.96
   8 -11  -7    8.61    1.20
  -8 -12  -7    1.57    0.69
  -8   0  -8  161.55    4.98
   8   0  -8  157.87    5.08
   8   0   8  167.88    5.15
  -8   0  -8  160.27    4.97
   8   0  -8  169.00    4.54
  -8  -1  -8   18.20    0.88
  -8  -1  -8   16.08    0.89
   8   1  -8   16.32    0.67
   8  -1   8   14.54    0.92
   8   1  -8   15.03    0.95
   8   1   8   16.99    0.99
  -8   1  -8   15.46    0.91
  -8   1  -8   18.12    0.85
   8  -1  -8   15.96    0.94
   8   2  -8    3.33    0.37
   8   2  -8    3.11    0.51
  -8  -2  -8    3.76    0.54
   8  -2   8    4.22    0.57
  -8  -2  -8    3.72    0.42
   8   2   8    3.69    0.53
   8  -2  -8    3.37    0.48
  -8   2  -8    4.31    0.57
   8   3  -8   44.05    1.62
  -8  -3  -8   45.83    1.86
   8  -3   8   44.48    1.80
   8   3  -8   41.94    1.85
  -8  -3  -8   42.51    1.50
   8  -3  -8   40.22    1.71
   8   3   8   44.65    1.82
  -8   3  -8   39.80    1.82
   8  -4   8    9.99    0.77
  -8  -4  -8   11.51    0.84
   8   4  -8    9.55    0.91
   8   4  -8    9.12    0.70
   8  -4  -8   10.18    0.48
  -8   4  -8   11.27    0.89
   8   4   8    8.75    0.84
   8  -4  -8    9.64    0.74
   8  -5   8    0.48    0.30
   8   5  -8    0.37    0.31
  -8   5   8    0.67    0.22
   8   5  -8    0.92    0.38
  -8  -5  -8    1.06    0.43
   8   5   8    0.87    0.39
   8  -5  -8    0.94    0.33
  -8   5  -8    0.55    0.39
   8  -6   8   13.86    1.00
   8   6  -8   14.23    1.01
   8   6  -8   12.57    1.16
  -8  -6  -8   13.49    1.05
   8   6   8   14.11    1.06
   8  -6  -8   12.31    0.86
  -8   6  -8   15.47    1.15
   8  -7   8   26.35    1.52
   8   7  -8   23.40    1.47
  -8  -7  -8   27.01    1.56
   8   7  -8   23.73    1.48
  -8   7  -8   24.84    1.54
   8  -7  -8   26.99    1.32
   8   7   8   25.29    1.52
   8  -7  -8   26.57    1.60
   8   8  -8    6.10    0.95
   8   8  -8    6.80    0.94
  -8  -8  -8    7.50    1.01
   8   8   8    6.81    0.98
   8  -8  -8    6.35    0.95
  -8   8  -8    5.88    0.90
  -8   8  -8    5.53    0.81
   8  -8  -8    4.99    0.66
  -8  -9  -8    3.68    0.76
   8   9  -8    5.16    0.95
  -8   9  -8    5.81    0.88
   8  -9  -8    4.37    0.86
   8   9   8    5.71    0.97
   8  10  -8   12.66    1.47
  -8 -10  -8    9.71    1.23
  -8  10  -8   12.38    1.35
   8 -10  -8   10.60    1.32
   8  10   8   14.45    1.61
  -8 -11  -8   -0.54    0.46
   8  11  -8    0.58    0.61
   8  11   8    0.16    0.61
   8 -11  -8    0.02    0.54
  -8  11  -8   -0.10    0.55
  -8   0  -9    0.01    0.21
   8   0   9   -0.11    0.22
   8   0  -9   -0.26    0.25
  -8   0  -9   -0.15    0.24
   8   1  -9    1.93    0.24
  -8  -1  -9    1.67    0.39
   8   1  -9    1.70    0.44
   8  -1   9    1.78    0.42
  -8  -1  -9    1.75    0.36
  -8   1  -9    2.08    0.45
   8  -1  -9    1.70    0.42
  -8   1  -9    1.89    0.35
   8   1   9    1.62    0.43
   8   2  -9   13.12    0.67
  -8  -2  -9   13.62    0.76
   8  -2   9   14.01    0.91
   8   2  -9   13.79    0.94
  -8  -2  -9   14.76    0.91
   8  -2  -9   11.75    0.83
  -8   2  -9   12.43    0.70
   8   2   9   12.84    0.90
  -8   2  -9   12.88    0.90
  -8  -3  -9    2.87    0.52
  -8  -3  -9    2.14    0.35
   8   3  -9    1.86    0.47
   8   3  -9    2.71    0.41
   8  -3   9    2.43    0.49
   8  -3  -9    1.95    0.42
   8   3   9    2.33    0.48
  -8   3  -9    2.41    0.51
   8   4  -9    2.16    0.49
   8   4  -9    2.17    0.41
  -8  -4  -9    1.68    0.44
   8  -4   9    2.27    0.47
   8   4   9    2.34    0.48
  -8   4  -9    1.89    0.49
   8  -4  -9    2.91    0.49
   8   5  -9   32.05    1.49
   8   5  -9   30.70    1.63
  -8  -5  -9   32.65    1.65
   8  -5   9   30.85    1.53
  -8   5  -9   28.12    1.61
   8  -5  -9   32.20    1.48
   8   5   9   32.34    1.60
   8   6  -9    0.13    0.35
   8  -6   9   -0.26    0.31
   8   6  -9   -0.39    0.29
  -8  -6  -9    0.19    0.36
   8  -6  -9   -0.04    0.25
   8   6   9    0.30    0.36
  -8   6  -9   -0.11    0.34
   8   7  -9   14.28    1.14
   8   7  -9   17.53    1.29
  -8  -7  -9   14.48    1.18
   8  -7   9   14.12    1.12
  -8   7  -9   14.26    1.36
   8  -7  -9   13.10    0.94
   8  -7  -9   15.02    1.21
   8   7   9   12.90    1.25
   8  -8   9   17.55    1.37
  -8  -8  -9   17.14    1.30
   8   8  -9   14.69    1.21
   8   8  -9   16.58    1.32
   8   8   9   17.48    1.37
   8  -8  -9   13.90    1.46
  -8   8  -9   17.69    1.59
   8   9  -9   -0.27    0.42
   8   9  -9   -0.03    0.41
   8  -9   9    0.85    0.57
  -8  -9  -9   -0.13    0.48
   8   9   9   -0.22    0.40
  -8   9  -9   -0.33    0.44
   8  -9  -9    0.25    0.48
  -8 -10  -9    3.15    0.84
   8  10  -9    2.68    0.82
   8  10   9    1.48    0.75
  -8  10  -9    2.37    0.71
   8 -10  -9    1.70    0.78
   8  11  -9    4.15    0.93
  -8 -11  -9    4.64    0.94
  -8  11  -9    4.60    1.00
   8 -11  -9    3.93    0.97
   8  11   9    4.75    1.11
   8   0  10   86.08    3.09
   8   0 -10   88.75    3.16
  -8   0 -10   86.38    2.97
  -8   0 -10   88.79    3.04
   8   1 -10   15.66    0.62
   8  -1  10   18.04    1.07
  -8  -1 -10   14.31    0.94
   8   1 -10   14.69    1.03
  -8  -1 -10   17.16    0.94
  -8   1 -10   16.74    0.89
   8  -1 -10   16.48    1.03
  -8   1 -10   14.27    0.96
   8   1  10   16.27    1.05
  -8  -2 -10   12.35    0.88
   8   2 -10   12.95    0.66
  -8  -2 -10   12.21    0.77
   8   2 -10   12.16    0.93
   8  -2  10   10.93    0.87
   8   2  10   11.01    0.85
   8  -2 -10   13.98    0.94
  -8   2 -10   12.88    0.72
  -8   2 -10   12.22    0.91
   8  -3  10   21.37    1.20
   8   3 -10   21.38    1.30
  -8  -3 -10   20.22    0.96
  -8  -3 -10   20.32    1.22
   8   3 -10   20.50    0.98
   8  -3 -10   19.41    1.14
   8   3  10   19.68    1.15
  -8   3 -10   19.96    1.25
   8  -4  10   16.27    1.04
  -8  -4 -10   14.20    1.05
   8   4 -10   16.04    1.13
   8   4 -10   14.53    0.88
  -8   4 -10   13.60    1.05
   8  -4 -10   15.08    0.98
   8   4  10   14.98    1.03
  -8  -5 -10    6.67    0.87
   8   5 -10    8.45    0.82
   8  -5  10    6.93    0.82
   8   5 -10    8.71    0.99
  -8   5 -10    8.92    1.01
   8  -5 -10    8.67    0.85
   8   5  10    8.82    0.95
   8  -6  10   14.73    1.09
  -8  -6 -10   15.93    1.23
   8   6 -10   15.12    1.06
   8   6 -10   15.19    1.37
   8   6  10   13.64    1.08
   8  -6 -10   15.13    1.01
  -8   6 -10   11.84    1.22
   8  -7  10   16.78    1.26
   8   7 -10   16.42    1.30
   8   7 -10   17.41    1.25
  -8  -7 -10   16.53    1.30
   8   7  10   17.89    1.32
   8  -7 -10   17.40    1.58
   8  -7 -10   17.67    1.13
  -8   7 -10   18.70    1.44
   8   8 -10    1.78    0.65
   8   8 -10    1.69    0.62
   8  -8  10    1.51    0.64
  -8  -8 -10    0.64    0.56
  -8   8 -10    2.36    0.72
   8   8  10    2.24    0.64
   8  -8 -10    2.48    0.75
   8   9 -10    3.87    0.80
   8  -9  10    5.37    0.93
   8   9 -10    3.14    0.76
  -8  -9 -10    4.22    0.87
   8  -9 -10    4.02    0.90
  -8   9 -10    3.74    0.84
   8   9  10    4.66    0.96
  -8 -10 -10   11.79    1.38
   8  10 -10   11.22    1.36
   8  10 -10    9.09    1.26
   8 -10  10    9.78    1.32
   8  10  10   11.99    1.49
   8 -10 -10   10.67    1.38
   8 -11  10    2.91    0.93
   8  11 -10    0.49    0.65
  -8 -11 -10    1.07    0.70
   8  11  10    0.96    0.73
  -8  11 -10    1.26    0.71
   8 -11 -10    1.09    0.70
  -8   0 -11   -0.54    0.24
   8   0  11    0.14    0.30
  -8   0 -11   -0.53    0.23
   8   0 -11    0.05    0.32
  -8  -1 -11    3.02    0.49
   8  -1  11    3.14    0.58
  -8  -1 -11    2.72    0.50
   8   1 -11    2.68    0.56
  -8   1 -11    1.81    0.48
   8  -1 -11    2.60    0.52
  -8   1 -11    1.66    0.38
   8   1  11    3.07    0.59
   8  -2  11    6.69    0.77
   8   2 -11    9.18    0.98
   8   2 -11    6.72    0.47
  -8  -2 -11    8.25    0.65
  -8  -2 -11    6.88    0.80
   8  -2 -11    6.78    0.76
   8   2  11    5.72    0.72
  -8   2 -11    7.88    0.87
  -8   2 -11    7.32    0.64
   8   3 -11    2.50    0.60
   8  -3  11    3.74    0.62
  -8  -3 -11    2.15    0.40
   8   3 -11    2.59    0.42
  -8  -3 -11    2.56    0.60
   8   3  11    2.68    0.53
  -8   3 -11    1.56    0.52
   8  -3 -11    2.74    0.51
  -8  -4 -11   17.75    1.22
   8  -4  11   18.43    1.19
   8   4 -11   17.78    1.25
   8   4 -11   17.78    1.01
  -8   4 -11   17.97    1.29
   8  -4 -11   19.26    1.15
   8   5 -11    4.55    0.65
   8  -5  11    5.69    0.79
  -8  -5 -11    5.99    0.88
   8   5 -11    4.42    0.81
  -8   5 -11    4.18    0.76
   8  -5 -11    6.39    0.75
   8   5  11    6.12    0.79
   8  -6  11    0.18    0.45
   8   6 -11    0.00    0.37
   8   6 -11    0.23    0.39
  -8  -6 -11   -0.11    0.37
   8  -6 -11    0.26    0.34
   8  -6 -11    0.02    0.41
  -8   6 -11    0.20    0.50
   8   6  11    0.23    0.42
   8   7 -11   14.82    1.17
   8   7 -11   16.32    1.53
   8  -7  11   16.81    1.24
  -8  -7 -11   15.16    1.44
   8  -7 -11   14.23    1.47
   8  -7 -11   14.80    1.04
   8   7  11   16.89    1.29
  -8   7 -11   15.68    1.48
   8   8 -11    3.13    0.73
  -8  -8 -11    3.45    0.80
   8  -8  11    3.07    0.74
   8   8 -11    2.92    0.78
  -8   8 -11    2.02    0.69
   8  -8 -11    4.28    0.86
   8   8  11    2.96    0.74
   8   9 -11    0.52    0.52
  -8  -9 -11    1.39    0.68
   8   9 -11    1.17    0.67
   8  -9  11    1.08    0.63
   8   9  11    0.08    0.53
   8  -9 -11    1.41    0.72
  -8   9 -11    0.40    0.58
   8  10 -11    0.49    0.68
   8  10 -11    1.79    0.74
   8 -10  11    0.06    0.58
  -8 -10 -11    0.08    0.63
   8  10  11    1.52    0.69
   8 -10 -11    0.46    0.69
   8   0 -12   25.07    1.46
   8   0  12   26.19    1.39
  -8   0 -12   26.60    1.39
   8   1 -12    5.26    0.75
   8  -1  12    5.43    0.72
  -8  -1 -12    6.04    0.75
  -8  -1 -12    5.08    0.66
  -8   1 -12    5.08    0.73
   8  -1 -12    5.40    0.74
  -8   1 -12    3.50    0.52
   8   2 -12    0.45    0.39
  -8  -2 -12    1.11    0.46
  -8  -2 -12    0.16    0.33
   8  -2  12    1.15    0.46
   8  -2 -12    0.16    0.35
  -8   2 -12    0.34    0.28
  -8   2 -12    0.74    0.43
  -8  -3 -12   17.37    1.21
   8  -3  12   17.87    1.19
   8   3 -12   17.36    1.25
  -8  -3 -12   18.94    1.03
   8  -3 -12   20.12    1.23
  -8   3 -12   17.31    1.28
   8   4 -12    5.50    0.64
   8   4 -12    7.73    0.99
  -8  -4 -12    6.14    0.89
   8  -4  12    4.97    0.79
   8  -4 -12    6.66    0.78
  -8   4 -12    6.92    0.98
  -8  -5 -12    1.46    0.56
   8   5 -12    0.46    0.41
   8   5 -12    1.73    0.64
   8  -5  12    0.83    0.48
   8  -5 -12    1.40    0.55
  -8   5 -12    1.36    0.62
   8  -5 -12    1.02    0.45
   8  -6  12    9.59    1.12
  -8  -6 -12   14.23    1.40
   8   6 -12   12.66    1.36
   8   6 -12   11.15    1.05
  -8   6 -12   11.80    1.31
   8  -6 -12    9.80    1.19
   8  -6 -12   11.16    1.04
  -8  -7 -12    2.69    0.81
   8   7 -12    2.84    0.77
   8   7 -12    3.64    0.72
   8  -7  12    4.26    0.78
  -8   7 -12    3.82    0.82
   8  -7 -12    3.84    0.84
   8   7  12    3.26    0.72
   8   8 -12   -0.43    0.48
  -8  -8 -12    0.20    0.58
   8  -8  12    0.05    0.49
   8   8 -12   -0.33    0.41
  -8   8 -12   -0.69    0.40
   8  -8 -12    0.60    0.58
   8   8  12    0.26    0.45
   8  -9  12    4.32    0.96
   8   9 -12    1.81    0.71
   8   9 -12    3.08    0.88
  -8  -9 -12    3.21    0.85
   8  -9 -12    1.52    0.80
   8   9  12    4.78    0.97
  -8   9 -12    2.12    0.69
   8 -10  12    6.37    1.15
  -8 -10 -12    6.12    1.21
   8  10 -12    6.95    1.21
   8  10 -12    6.27    1.06
  -8  10 -12    7.29    1.25
   8 -10 -12    5.70    1.14
  -8   0 -13    0.04    0.32
   8   0 -13    0.31    0.37
  -8  -1 -13    7.74    0.82
   8  -1  13    9.09    0.97
   8   1 -13    9.61    1.04
  -8  -1 -13    8.76    0.92
  -8   1 -13    7.55    0.74
  -8   1 -13    7.94    0.91
   8  -1 -13    8.85    0.98
  -8  -2 -13   19.96    1.15
  -8  -2 -13   23.81    1.38
   8   2 -13   17.92    1.31
   8  -2  13   21.07    1.28
  -8   2 -13   20.35    1.36
  -8   2 -13   19.17    1.05
   8  -2 -13   19.82    1.27
  -8  -3 -13    1.50    0.60
   8  -3  13    1.61    0.51
   8   3 -13    1.80    0.62
   8  -3 -13    2.34    0.53
  -8   3 -13    2.86    0.64
  -8  -4 -13    1.09    0.57
   8  -4  13    1.49    0.51
   8   4 -13    1.82    0.62
   8  -4 -13    0.66    0.45
  -8   4 -13    0.53    0.46
   8  -5  13   28.80    1.64
  -8  -5 -13   28.36    1.73
   8   5 -13   26.37    1.74
  -8   5 -13   28.15    1.76
   8  -5 -13   28.59    1.56
   8  -5 -13   30.23    1.80
   8   6 -13    1.69    0.73
  -8  -6 -13    1.73    0.68
   8  -6  13    0.65    0.50
   8  -6 -13    2.22    0.57
  -8   6 -13    1.17    0.57
   8  -6 -13    1.80    0.73
   8  -7  13    5.10    0.90
   8   7 -13    4.51    0.77
   8   7 -13    4.20    0.89
  -8  -7 -13    3.48    0.85
   8  -7 -13    6.32    1.04
  -8   7 -13    4.49    0.97
   8   8 -13    6.99    0.96
   8   8 -13    7.82    1.17
   8  -8  13    7.22    1.08
  -8  -8 -13    5.86    1.03
  -8   8 -13    8.42    1.26
   8  -8 -13    8.68    1.24
   8   9 -13    0.63    0.67
   8  -9  13   -0.45    0.53
   8   9 -13   -0.12    0.55
  -8  -9 -13   -0.13    0.65
   8  -9 -13    0.60    0.74
  -8   9 -13    1.00    0.74
  -8   0 -14   18.07    1.23
   8   0 -14   17.26    1.28
   8   1 -14    1.39    0.57
  -8  -1 -14    1.26    0.49
  -8  -1 -14    0.95    0.44
  -8   1 -14    0.96    0.49
   8  -1 -14    0.70    0.49
  -8   1 -14    1.33    0.44
   8   2 -14   10.02    1.13
  -8  -2 -14   11.25    0.90
  -8  -2 -14    9.90    1.10
   8  -2  14   11.30    1.08
   8  -2 -14    9.09    1.02
  -8   2 -14   12.57    1.24
   8   2  14   10.55    1.01
  -8  -3 -14    3.25    0.70
   8  -3  14    3.28    0.67
   8   3 -14    2.66    0.67
   8  -3 -14    4.61    0.76
   8   3  14    3.80    0.67
  -8   3 -14    3.97    0.75
   8  -4  14    0.40    0.48
   8   4 -14    0.45    0.54
  -8  -4 -14    1.40    0.60
   8   4  14    0.41    0.40
  -8   4 -14    0.46    0.54
   8  -4 -14   -0.22    0.43
   8  -4 -14    0.12    0.40
   8  -5  14    0.06    0.49
   8   5 -14    1.29    0.63
  -8  -5 -14   -0.45    0.46
  -8   5 -14   -0.63    0.43
   8   5  14    0.38    0.43
   8  -5 -14    0.38    0.57
   8  -5 -14    0.18    0.41
  -8  -6 -14    5.50    0.98
   8  -6  14    4.36    0.81
   8   6 -14    6.06    1.08
   8  -6 -14    5.89    0.82
   8  -6 -14    5.93    1.04
  -8   6 -14    6.71    1.06
  -8  -7 -14    6.18    1.13
   8   7 -14    6.54    1.18
   8  -7  14    5.70    0.95
  -8   7 -14    5.75    1.09
   8  -7 -14    4.05    0.92
  -8  -8 -14   -0.34    0.63
   8  -8  14    0.09    0.54
   8   8 -14   -0.03    0.53
   8  -8 -14    1.30    0.71
  -8   8 -14   -0.18    0.55
  -8  -9 -14    3.78    1.03
   8   9 -14    3.20    0.96
   8  -9  14    3.07    0.90
   8  -9 -14    2.87    0.93
  -8   9 -14    2.96    0.86
   8   0 -15   -0.52    0.38
   8   0  15   -0.28    0.33
  -8   0 -15    0.20    0.43
   8   1 -15   13.56    1.32
  -8  -1 -15   14.09    1.13
  -8  -1 -15   15.54    1.17
  -8   1 -15   15.52    1.22
   8  -1 -15   11.34    1.21
   8   1  15   14.23    1.06
  -8   1 -15   12.69    0.99
  -8  -2 -15    3.46    0.70
  -8  -2 -15    3.41    0.64
   8   2 -15    4.14    0.80
   8  -2 -15    3.39    0.70
  -8   2 -15    3.58    0.78
   8   2  15    2.66    0.60
   8   3 -15    0.20    0.52
   8  -3  15   -0.39    0.37
  -8  -3 -15   -0.20    0.45
   8   3  15    0.61    0.42
   8  -3 -15    0.05    0.37
  -8   3 -15   -0.35    0.44
   8  -3 -15   -0.40    0.43
   8  -4  15    2.09    0.63
  -8  -4 -15    1.99    0.64
   8   4 -15    2.76    0.80
   8  -4 -15    2.46    0.68
  -8   4 -15    1.54    0.60
   8  -4 -15    3.39    0.72
   8  -5  15    9.46    1.11
   8   5 -15    8.09    1.16
  -8  -5 -15    9.08    1.28
  -8   5 -15    9.88    1.30
   8  -5 -15    7.89    1.17
   8  -5 -15    7.14    0.94
   8   6 -15    3.56    0.97
  -8  -6 -15    2.74    0.80
   8  -6  15    3.02    0.75
  -8   6 -15    2.01    0.72
   8  -6 -15    2.36    0.78
   8   7 -15    3.50    0.92
  -8  -7 -15    3.55    0.91
   8  -7  15    3.96    0.89
   8  -7 -15    3.24    0.91
  -8   7 -15    1.91    0.85
   8  -8  15    5.15    1.01
   8   8 -15    4.08    1.04
  -8  -8 -15    6.11    1.20
   8  -8 -15    4.72    1.06
  -8   8 -15    4.56    1.01
   8   0  16    8.66    0.96
   8   0 -16    7.17    1.02
  -8   0 -16    8.21    1.03
   8  -1  16    1.66    0.57
   8   1 -16    1.57    0.61
  -8  -1 -16    1.34    0.56
  -8  -1 -16    0.53    0.49
   8  -1 -16    1.55    0.56
  -8   1 -16    1.57    0.63
   8  -1 -16    0.99    0.54
  -8  -2 -16    3.24    0.67
   8   2 -16    3.99    0.84
  -8  -2 -16    3.10    0.72
   8  -2 -16    2.86    0.73
   8  -2 -16    4.29    0.87
  -8   2 -16    3.69    0.83
   8  -3  16    5.24    0.84
   8   3 -16    5.71    1.00
  -8  -3 -16    7.16    1.05
   8  -3 -16    7.25    1.08
  -8   3 -16    4.08    0.87
   8  -3 -16    5.45    0.87
   8  -4  16    0.78    0.51
  -8  -4 -16    2.19    0.73
   8   4 -16    0.71    0.59
  -8   4 -16    1.07    0.69
   8  -4 -16    1.62    0.59
   8  -4 -16    1.27    0.70
  -8  -5 -16    0.09    0.66
   8  -5  16    0.73    0.60
   8   5 -16    0.03    0.61
   8  -5 -16    0.03    0.48
   8  -5 -16    0.19    0.58
  -8   5 -16   -0.04    0.53
   8  -6  16    2.10    0.74
   8   6 -16    2.10    0.87
  -8  -6 -16    1.11    0.76
  -8   6 -16    1.46    0.70
   8  -6 -16    4.11    0.98
  -8  -7 -16    1.95    0.95
   8  -7  16    3.53    0.91
   8   7 -16    1.60    0.76
  -8   7 -16    0.80    0.73
   8  -7 -16    1.85    0.76
   8   8 -16   -0.88    0.63
  -8   8 -16   -0.93    0.63
   8   0 -17    0.53    0.56
  -8   0 -17   -0.91    0.36
   8   0 -17   -0.41    0.42
  -8  -1 -17    3.01    0.72
   8   1 -17    2.62    0.80
  -8  -1 -17    2.18    0.64
  -8   1 -17    1.75    0.63
   8  -1 -17    1.80    0.63
   8  -1 -17    2.35    0.72
   8   2 -17    4.80    0.95
  -8  -2 -17    2.63    0.73
  -8   2 -17    4.21    0.91
   8  -2 -17    4.01    0.86
   8  -2 -17    4.23    0.85
   8   3 -17    0.19    0.63
  -8  -3 -17    1.47    0.72
  -8   3 -17    0.34    0.52
   8  -3 -17    0.08    0.50
   8  -3 -17   -0.21    0.54
  -8  -4 -17    2.18    0.75
   8   4 -17    3.17    0.91
   8  -4  17    2.25    0.71
  -8   4 -17    1.89    0.75
   8  -4 -17    2.64    0.84
   8  -4 -17    1.21    0.63
  -8  -5 -17    6.88    1.20
   8  -5  17    5.80    0.97
   8   5 -17    6.20    1.13
   8  -5 -17    5.96    1.10
  -8   5 -17    4.21    0.96
   8  -5 -17    3.90    0.93
   8   6 -17    0.75    0.72
  -8  -6 -17    0.22    0.73
   8  -6  17   -0.24    0.55
  -8   6 -17    1.07    0.75
   8  -6 -17    0.94    0.65
   8  -7  17    1.26    0.74
   8   7 -17    0.62    0.75
  -8  -7 -17    1.44    0.88
   8  -7 -17    2.80    0.95
  -8   7 -17    0.51    0.72
  -8   0 -18    4.32    0.87
   8   0 -18    5.35    0.90
   8   0 -18    5.81    1.05
   8   1 -18    0.50    0.63
  -8  -1 -18   -0.53    0.42
  -8  -1 -18    0.69    0.54
   8  -1 -18    0.42    0.58
   8  -1 -18   -0.01    0.49
  -8   1 -18    0.43    0.57
   8   2 -18    1.24    0.73
  -8  -2 -18   -0.21    0.56
   8  -2 -18    0.21    0.59
  -8   2 -18   -0.05    0.59
   8  -2 -18   -0.87    0.46
   8   3 -18    4.18    0.94
  -8  -3 -18    4.33    0.91
  -8   3 -18    3.74    0.92
   8  -3 -18    5.08    1.04
   8  -3 -18    5.14    0.95
   8   4 -18    2.20    0.87
  -8  -4 -18    2.11    0.84
   8  -4 -18    1.52    0.66
  -8   4 -18    1.41    0.72
   8  -4 -18    1.40    0.78
   8   5 -18    1.33    0.83
  -8  -5 -18   -0.21    0.65
   8  -5 -18    1.22    0.82
  -8   5 -18   -0.49    0.62
   8   6 -18    2.13    0.89
  -8  -6 -18    0.40    0.69
  -8   6 -18    1.68    0.75
   8  -6 -18    1.95    0.95
   8   0 -19   -0.12    0.58
  -8   0 -19    0.17    0.55
   8   1 -19    2.85    0.91
  -8   1 -19    2.28    0.82
   8  -1 -19    2.25    0.83
   8  -1 -19    1.41    0.69
   8   2 -19    1.36    0.80
  -8  -2 -19    2.43    0.81
  -8   2 -19    3.15    0.87
   8  -2 -19    2.35    0.82
   8  -2 -19    4.06    0.93
   8   3 -19    0.80    0.74
  -8  -3 -19    0.37    0.70
   8  -3 -19   -0.08    0.64
   8  -3 -19    0.13    0.60
  -8   3 -19   -0.21    0.63
   8   4 -19    1.98    0.88
  -8  -4 -19    1.59    0.79
  -8   4 -19    1.27    0.77
   8  -4 -19    1.55    0.89
   8  -4 -19    1.56    0.70
   8   0 -20    1.33    0.81
  -8   0 -20    2.64    0.84
   8   1 -20    0.56    0.78
  -8   1 -20    1.22    0.74
   8  -1 -20   -0.49    0.56
   8  -1 -20    0.43    0.65
   8   2 -20    0.08    0.63
  -8  -2 -20    0.77    0.70
   8  -2 -20    1.15    0.78
  -8   2 -20   -0.39    0.61
   8  -2 -20   -0.30    0.59
   9   0   0   -0.04    0.12
   9  -1   0    4.95    0.40
   9   1   0    4.54    0.43
   9   1   0    4.02    0.38
   9   2   0   71.18    2.27
   9   2   0   74.07    2.41
   9  -2   0   74.67    2.39
   9   3   0    1.51    0.31
   9   3   0    1.94    0.27
   9  -3   0    2.06    0.34
   9  -4   0    5.17    0.50
   9   4   0    5.18    0.58
   9   4   0    4.77    0.36
  -9   5   0   75.44    2.52
   9   5   0   70.34    2.62
   9   5   0   69.61    2.26
  -9  -6   0    2.72    0.42
   9   6   0    1.89    0.49
  -9   6   0    2.23    0.44
  -9   7   0    3.81    0.58
  -9  -7   0    6.88    0.67
   9   7   0    4.70    0.72
   9   8   0   43.80    2.13
  -9  -8   0   42.80    1.78
  -9   8   0   41.90    1.91
   9   9   0   -0.10    0.38
  -9   9   0    0.67    0.43
  -9  -9   0    0.50    0.36
   9  10   0    5.19    1.00
  -9  10   0    5.75    0.90
  -9 -10   0    4.30    0.66
  -9  11   0    5.07    0.91
   9  11   0    4.72    1.01
   9  12   0    4.93    1.12
  -9  12   0    3.65    0.90
   9   0  -1  156.36    4.44
   9   0   1  147.76    4.50
   9   0  -1  146.29    4.41
   9   1  -1    3.76    0.37
   9  -1   1    3.92    0.44
   9   1  -1    3.68    0.37
   9  -1  -1    3.07    0.34
   9   1   1    2.70    0.35
   9  -2   1   70.82    2.32
   9   2  -1   69.98    2.29
   9   2   1   69.34    2.33
   9   2   1   69.38    2.15
   9  -2  -1   69.51    2.25
   9   3  -1   58.68    2.05
   9  -3   1   58.18    2.02
   9   3  -1   55.12    1.91
   9  -3  -1   60.04    1.98
   9   3   1   58.93    1.83
   9   3   1   58.74    2.07
   9   4  -1    2.57    0.42
  -9  -4  -1    2.42    0.36
   9  -4   1    3.19    0.43
   9   4  -1    2.79    0.34
   9  -4  -1    2.27    0.33
   9   4   1    2.46    0.41
   9   4   1    3.03    0.29
  -9   5   1    1.54    0.33
   9   5  -1    2.08    0.43
  -9  -5  -1    1.50    0.32
   9   5  -1    2.14    0.32
  -9   5  -1    1.79    0.38
   9   5   1    1.73    0.23
   9   5   1    2.07    0.43
  -9   6   1   16.30    0.94
   9   6  -1   15.26    1.04
  -9  -6  -1   14.01    0.85
   9   6   1   13.82    1.00
  -9   6  -1   15.49    0.96
   9   7  -1   26.83    1.49
  -9  -7  -1   24.76    1.25
  -9   7   1   24.51    1.28
  -9   7  -1   24.48    1.32
   9   7   1   26.66    1.51
  -9   8   1    0.28    0.35
  -9  -8  -1    0.39    0.32
   9   8  -1    0.27    0.39
   9   8   1    1.02    0.45
  -9   8  -1    0.44    0.37
   9   9  -1   27.42    1.71
  -9  -9  -1   27.63    1.41
  -9   9   1   26.41    1.52
   9  -9  -1   23.93    1.35
   9   9   1   25.55    1.67
  -9   9  -1   30.93    1.63
  -9 -10  -1   18.15    1.18
   9  10  -1   18.16    1.48
  -9  10   1   17.54    1.32
   9  10   1   18.45    1.49
  -9  10  -1   16.86    1.33
  -9  11   1    0.58    0.46
   9  11  -1   -0.05    0.50
  -9  11  -1    0.35    0.48
   9  11   1   -0.29    0.44
  -9  12   1    8.98    1.22
   9  12  -1    9.21    1.47
  -9  12  -1    7.00    1.11
   9  12   1   10.40    1.58
   9   0  -2    0.05    0.14
   9   0   2    0.18    0.16
   9   0  -2    0.08    0.12
   9  -1   2   84.69    2.77
   9   1  -2   83.12    2.61
   9   1  -2   83.96    2.65
   9  -1  -2   83.60    2.60
   9   1   2   84.67    2.75
   9  -1  -2   86.53    2.69
   9  -2   2   61.61    2.15
   9   2  -2   61.44    2.08
   9   2  -2   62.64    2.09
   9  -2  -2   63.30    2.04
   9   2   2   65.60    2.19
   9   3  -2   53.19    1.88
  -9  -3  -2   51.86    1.88
   9  -3   2   50.28    1.88
   9  -3  -2   51.12    1.77
   9   3   2   53.02    1.63
   9   3   2   53.92    1.94
   9   4  -2   41.92    1.54
   9  -4   2   40.00    1.61
  -9  -4  -2   39.45    1.58
   9   4  -2   40.50    1.65
   9   4   2   40.72    1.32
   9  -4  -2   42.08    1.52
   9   4   2   43.03    1.69
   9   5  -2   41.85    1.63
  -9  -5  -2   44.59    1.76
   9  -5   2   46.98    1.79
  -9   5   2   45.49    1.69
   9   5  -2   42.46    1.82
   9   5   2   44.40    1.36
   9   5   2   43.08    1.84
  -9   5  -2   45.84    1.79
   9   6  -2   46.32    2.02
  -9   6   2   47.13    1.85
  -9  -6  -2   45.83    1.87
   9   6  -2   48.18    1.76
  -9   6  -2   47.17    1.92
   9   6   2   45.69    2.02
  -9   7   2   21.01    1.18
   9   7  -2   22.75    1.38
  -9  -7  -2   21.07    1.18
   9   7   2   23.60    1.41
  -9   7  -2   22.19    1.25
   9   8  -2   20.65    1.44
  -9   8   2   22.72    1.28
  -9  -8  -2   22.07    1.23
  -9   8  -2   21.35    1.30
   9   8   2   23.34    1.50
  -9   9   2    0.69    0.42
   9   9  -2    1.13    0.52
  -9  -9  -2    0.79    0.41
   9   9   2    0.97    0.57
  -9   9  -2    0.69    0.49
   9  -9  -2    0.61    0.37
  -9  10   2    2.66    0.64
   9  10  -2    4.26    0.91
  -9 -10  -2    4.07    0.69
  -9  10  -2    3.15    0.69
   9  10   2    4.13    0.89
   9  11  -2    4.24    1.00
  -9  11   2    2.06    0.66
  -9 -11  -2    3.58    0.70
  -9  11  -2    3.61    0.83
   9  11   2    2.81    0.84
  -9  12   2    5.98    1.05
   9  12  -2    6.09    1.19
  -9  12  -2    5.04    1.02
   9  12   2    5.87    1.17
   9   0  -3   46.59    1.69
   9   0  -3   48.66    1.57
   9   0   3   48.91    1.79
   9  -1   3   23.10    1.09
   9   1  -3   24.77    0.94
   9   1  -3   23.41    1.02
   9  -1  -3   25.67    1.06
   9   1   3   23.87    1.09
   9  -1  -3   23.69    0.91
   9   2  -3   61.25    1.96
   9   2  -3   57.39    2.00
  -9  -2  -3   56.56    2.01
   9  -2   3   58.49    2.06
   9  -2  -3   57.99    1.87
   9   2   3   55.80    2.05
   9  -2  -3   57.11    1.99
   9   3  -3   65.38    2.26
   9  -3   3   68.54    2.32
   9   3  -3   66.20    2.27
  -9  -3  -3   67.92    2.31
   9  -3  -3   67.07    2.13
   9  -3  -3   64.60    2.23
   9   3   3   66.03    2.34
   9   3   3   63.78    1.98
   9   4  -3    2.99    0.41
   9   4  -3    2.36    0.39
   9  -4   3    2.84    0.42
  -9  -4  -3    2.80    0.41
   9  -4  -3    3.26    0.37
   9   4   3    3.64    0.50
   9   5  -3    3.22    0.45
  -9   5   3    2.68    0.39
   9   5  -3    3.70    0.55
  -9  -5  -3    3.39    0.51
   9  -5   3    2.46    0.43
   9   5   3    3.55    0.53
   9   6  -3    9.64    0.95
  -9   6   3    7.58    0.63
  -9  -6  -3    8.83    0.70
   9   6  -3    8.81    0.67
   9   6   3    9.90    0.97
  -9   6  -3    9.33    0.76
   9   7  -3    6.51    0.83
  -9   7   3    7.23    0.73
  -9  -7  -3    7.49    0.80
   9   7  -3    6.04    0.65
   9   7   3    7.37    0.88
  -9   7  -3    7.08    0.82
  -9  -8  -3    0.30    0.34
   9   8  -3    0.20    0.40
  -9   8   3    0.04    0.31
  -9   8  -3    0.27    0.40
   9   8   3    0.71    0.47
   9   9  -3   13.35    1.36
  -9  -9  -3   13.74    1.03
  -9   9   3   13.58    1.06
  -9   9  -3   14.62    1.15
   9   9   3   12.97    1.36
   9  -9  -3   13.52    1.06
  -9  10   3   15.58    1.24
  -9 -10  -3   17.52    1.23
   9  10  -3   20.28    1.60
   9 -10  -3   18.87    1.30
  -9  10  -3   16.91    1.37
   9  10   3   20.65    1.62
   9  11  -3   -0.11    0.50
  -9  11   3    0.31    0.50
  -9 -11  -3    0.47    0.46
   9  11   3   -0.33    0.52
  -9  11  -3    0.05    0.51
   9  12  -3   10.29    1.50
  -9  12   3   12.08    1.37
  -9  12  -3    9.88    1.37
   9  12   3   10.36    1.50
   9   0  -4    0.03    0.11
   9   0  -4    0.02    0.17
   9   0   4    0.00    0.17
   9   1  -4    0.73    0.25
   9  -1   4    0.94    0.30
   9   1  -4    0.89    0.20
  -9  -1  -4    0.88    0.23
   9  -1  -4    0.63    0.21
   9   1   4    1.23    0.32
   9  -1  -4    0.72    0.16
   9   2  -4   58.82    1.97
   9   2  -4   58.60    2.07
   9  -2   4   57.46    2.10
  -9  -2  -4   60.80    2.09
   9   2   4   57.33    2.11
   9  -2  -4   59.11    2.06
   9  -2  -4   57.60    1.85
   9   3  -4   20.87    0.96
   9  -3   4   19.53    0.99
  -9  -3  -4   19.68    0.99
   9   3  -4   17.26    0.93
   9  -3  -4   18.96    0.95
   9   3   4   17.80    0.99
   9  -3  -4   19.53    0.80
   9   4  -4   20.70    1.05
  -9  -4  -4   20.61    1.09
   9  -4   4   21.63    1.10
   9   4  -4   22.06    1.10
   9  -4  -4   23.54    1.07
   9   4   4   21.17    1.13
   9   4   4   23.17    0.74
   9  -4  -4   21.91    0.92
   9   5  -4   88.52    2.96
   9   5  -4   91.02    3.08
  -9  -5  -4   87.94    3.03
  -9   5   4   87.68    2.81
   9  -5   4   82.32    2.97
   9  -5  -4   84.61    2.88
   9   5   4   84.80    3.06
  -9  -6  -4    0.09    0.28
   9   6  -4    0.11    0.28
  -9   6   4   -0.15    0.22
   9   6  -4    0.17    0.25
  -9   6  -4    0.31    0.29
   9   6   4   -0.12    0.25
  -9  -7  -4    4.24    0.66
   9   7  -4    6.12    0.84
   9   7  -4    4.24    0.58
  -9   7  -4    5.03    0.71
   9   7   4    5.15    0.77
   9   8  -4   27.35    1.63
  -9  -8  -4   26.46    1.47
   9   8  -4   28.57    1.40
  -9   8  -4   28.14    1.55
   9   8   4   30.07    1.73
  -9  -9  -4    2.55    0.57
  -9   9   4    2.03    0.53
   9   9  -4    1.83    0.69
   9   9   4    3.47    0.81
   9  -9  -4    3.01    0.66
  -9   9  -4    2.20    0.65
   9  10  -4    1.66    0.74
  -9 -10  -4    1.47    0.51
  -9  10   4    2.46    0.63
   9  10   4    1.17    0.64
   9 -10  -4    1.90    0.57
  -9  10  -4    1.38    0.62
  -9  11   4    9.22    1.13
  -9 -11  -4    8.88    1.06
   9  11  -4    8.33    1.34
   9  11   4   10.69    1.46
  -9  11  -4    9.08    1.20
  -9  12   4    4.07    0.90
   9  12  -4    4.04    1.05
  -9  12  -4    5.82    1.10
   9  12   4    7.12    1.29
   9   0  -5    4.68    0.30
   9   0  -5    3.97    0.46
   9   0   5    4.92    0.55
   9   1  -5   23.60    1.10
  -9  -1  -5   22.35    1.04
   9   1  -5   24.19    0.92
   9  -1   5   24.96    1.18
   9   1   5   24.86    1.19
   9  -1  -5   25.61    0.85
   9  -1  -5   22.70    1.07
   9  -2   5    5.62    0.61
  -9  -2  -5    6.47    0.62
   9   2  -5    6.47    0.63
   9   2  -5    7.60    0.50
   9  -2  -5    6.30    0.37
   9   2   5    7.68    0.71
   9  -2  -5    7.09    0.55
  -9  -3  -5  111.32    3.65
   9  -3   5  111.08    3.65
   9   3  -5  110.19    3.63
   9   3  -5  114.56    3.56
   9  -3  -5  113.47    3.33
   9  -3  -5  117.93    3.61
   9   3   5  110.08    3.68
   9   4  -5    4.74    0.58
   9   4  -5    4.54    0.55
   9  -4   5    3.94    0.52
  -9  -4  -5    3.93    0.52
   9   4   5    3.69    0.53
   9   4   5    3.79    0.22
   9  -4  -5    3.86    0.38
   9  -4  -5    4.35    0.51
   9   5  -5    5.36    0.67
  -9   5   5    5.13    0.49
   9  -5   5    4.03    0.57
   9   5  -5    4.01    0.56
  -9  -5  -5    3.71    0.56
   9   5   5    4.42    0.61
   9  -5  -5    4.60    0.55
  -9  -6  -5   23.03    1.25
  -9   6   5   23.79    1.10
   9   6  -5   23.48    1.30
   9  -6   5   22.90    1.27
   9   6   5   21.38    1.29
   9  -6  -5   23.84    1.17
  -9   6  -5   23.59    1.28
   9   7  -5   11.29    1.11
  -9  -7  -5    8.71    0.89
  -9   7   5   10.30    0.78
   9   7  -5   10.80    0.84
   9  -7  -5    9.40    0.76
  -9   7  -5    9.94    0.97
   9   7   5    9.85    1.05
  -9  -8  -5    0.60    0.40
   9   8  -5    0.65    0.50
   9   8  -5    1.06    0.42
  -9   8  -5    0.65    0.41
   9  -8  -5    0.53    0.36
   9   8   5   -0.14    0.42
  -9  -9  -5   11.85    1.16
   9   9  -5    9.50    1.19
   9  -9  -5   11.70    1.21
   9   9   5   10.50    1.24
  -9   9  -5    9.34    1.08
   9  -9  -5   11.10    0.90
  -9 -10  -5   21.81    1.45
  -9  10   5   21.61    1.42
   9  10  -5   23.13    1.69
   9  10   5   24.13    1.78
  -9  10  -5   23.62    1.58
   9 -10  -5   25.27    1.58
  -9  11   5    0.00    0.45
  -9 -11  -5   -0.14    0.45
   9  11  -5    0.78    0.68
  -9  11  -5    0.56    0.57
   9 -11  -5    0.67    0.54
   9  11   5    0.41    0.59
  -9 -12  -5    6.72    1.06
   9  12  -5    6.85    1.24
   9  12   5    7.18    1.33
  -9  12  -5   10.57    1.40
   9   0  -6    0.03    0.09
   9   0  -6   -0.02    0.16
   9   0   6   -0.01    0.18
  -9   0  -6   -0.07    0.16
  -9   0  -6   -0.12    0.16
   9  -1   6   21.37    1.11
   9   1  -6   23.08    0.87
   9   1  -6   21.08    1.07
  -9  -1  -6   22.98    1.05
   9  -1  -6   20.11    1.04
   9  -1  -6   21.59    0.74
  -9   1  -6   21.17    1.05
   9   1   6   23.32    1.16
   9   2  -6   22.17    1.12
  -9  -2  -6   24.06    1.13
   9  -2   6   24.09    1.16
   9   2  -6   22.90    0.96
   9  -2  -6   23.20    0.79
   9  -2  -6   21.63    1.07
  -9   2  -6   22.67    1.13
   9   2   6   20.71    1.12
   9   3  -6   23.01    1.20
   9   3  -6   25.29    1.10
   9  -3   6   24.90    1.22
  -9  -3  -6   22.61    1.17
   9  -3  -6   24.40    1.15
   9   3   6   24.36    1.23
  -9   3  -6   24.27    1.24
   9  -3  -6   24.34    0.89
   9   4  -6   42.08    1.82
  -9  -4  -6   46.49    1.85
   9  -4   6   42.71    1.78
   9   4  -6   45.84    1.76
   9  -4  -6   43.90    1.49
   9   4   6   41.12    1.81
   9  -4  -6   44.12    1.73
  -9   4  -6   42.62    1.86
  -9  -5  -6   38.98    1.74
   9   5  -6   37.30    1.67
   9  -5   6   40.28    1.73
   9   5  -6   38.24    1.72
  -9   5   6   39.64    1.44
   9  -5  -6   38.74    1.61
   9   5   6   37.31    1.73
  -9   6   6    0.42    0.25
   9   6  -6    0.04    0.27
  -9  -6  -6    0.18    0.28
   9  -6   6    0.31    0.30
   9   6  -6    0.49    0.32
   9   6   6    0.13    0.33
   9  -6  -6    0.49    0.28
  -9   7   6   20.35    1.10
   9   7  -6   21.24    1.36
   9  -7   6   21.91    1.32
  -9  -7  -6   22.76    1.35
   9  -7  -6   21.96    1.18
   9   7   6   19.92    1.35
  -9   7  -6   22.39    1.35
   9   8  -6   14.29    1.16
  -9  -8  -6   12.96    1.05
  -9   8   6   14.48    0.97
   9   8  -6   12.65    1.00
   9  -8  -6   12.51    1.23
   9   8   6   13.20    1.31
   9  -8  -6   12.87    0.92
  -9   8  -6   14.42    1.10
  -9  -9  -6    0.97    0.44
  -9   9   6    1.36    0.46
   9   9  -6    2.40    0.72
  -9   9  -6    1.28    0.55
   9  -9  -6    1.64    0.56
   9  -9  -6    1.11    0.47
   9   9   6    1.50    0.65
  -9 -10  -6    2.17    0.66
   9  10  -6    4.15    0.93
  -9  10  -6    2.49    0.68
   9 -10  -6    3.92    0.79
   9  10   6    4.16    1.00
   9  11  -6    6.40    1.17
  -9 -11  -6    6.14    0.93
   9 -11  -6    6.64    1.04
  -9  11  -6    8.59    1.22
   9  11   6    8.13    1.31
   9  12  -6    3.13    0.95
  -9 -12  -6    4.60    0.92
   9  12   6    2.85    0.99
  -9  12  -6    3.54    0.88
   9   0  -7  104.12    3.42
  -9   0  -7  103.10    3.30
   9   0   7  103.72    3.49
   9   0  -7  103.05    2.98
  -9   0  -7  102.83    3.32
   9   1  -7   21.86    1.14
  -9  -1  -7   22.68    1.01
   9  -1   7   23.38    1.19
  -9  -1  -7   22.44    1.08
   9   1  -7   22.86    0.86
  -9   1  -7   22.56    1.12
   9  -1  -7   20.72    1.09
   9  -1  -7   21.66    0.70
   9   1   7   21.51    1.17
   9   2  -7   28.66    1.36
  -9  -2  -7   27.97    1.31
   9   2  -7   28.93    1.13
   9  -2   7   27.22    1.33
   9  -2  -7   29.64    0.89
   9   2   7   26.02    1.33
   9  -2  -7   30.10    1.34
  -9   2  -7   29.87    1.37
   9   3  -7   18.18    0.92
   9  -3   7   20.50    1.10
   9   3  -7   16.80    1.05
  -9  -3  -7   18.30    1.04
   9  -3  -7   18.85    1.01
   9   3   7   19.51    1.09
   9  -3  -7   18.17    0.69
  -9   3  -7   20.36    1.13
  -9  -4  -7    6.08    0.68
   9   4  -7    6.52    0.75
   9   4  -7    5.70    0.62
   9  -4   7    7.03    0.75
  -9   4  -7    6.70    0.75
   9  -4  -7    5.88    0.39
   9  -4  -7    5.74    0.64
   9   4   7    5.67    0.69
  -9   5   7    0.20    0.17
   9   5  -7   -0.21    0.23
   9  -5   7    0.78    0.35
   9   5  -7    0.34    0.29
  -9  -5  -7    0.17    0.32
  -9   5  -7    0.63    0.36
   9  -5  -7    0.20    0.26
   9   5   7    0.24    0.28
  -9  -6  -7    5.84    0.74
   9   6  -7    6.59    0.83
   9   6  -7    4.67    0.69
   9  -6   7    6.67    0.81
  -9   6   7    7.42    0.56
  -9   6  -7    5.77    0.78
   9   6   7    5.38    0.80
   9  -6  -7    5.97    0.66
  -9   7   7   16.64    0.97
   9   7  -7   18.56    1.27
  -9  -7  -7   15.64    1.22
   9   7  -7   17.41    1.20
   9  -7   7   17.86    1.25
   9  -7  -7   17.38    1.05
   9   7   7   18.91    1.29
   9  -8   7    3.46    0.71
  -9  -8  -7    2.83    0.63
   9   8  -7    3.02    0.67
  -9   8  -7    3.88    0.71
   9  -8  -7    4.53    0.63
   9   8   7    3.43    0.78
   9  -8  -7    4.90    0.80
  -9  -9  -7    6.78    0.94
   9   9  -7    5.97    0.87
   9   9  -7    6.41    1.01
   9   9   7    8.85    1.21
   9  -9  -7    5.49    0.89
  -9   9  -7    6.11    0.91
  -9 -10  -7   11.04    1.23
   9  10  -7   10.51    1.35
   9 -10  -7   13.07    1.39
  -9  10  -7   13.80    1.40
   9  10   7   11.68    1.43
  -9 -11  -7    1.39    0.62
   9  11  -7    0.78    0.59
   9 -11  -7    0.80    0.61
  -9  11  -7    2.44    0.81
   9  11   7    0.85    0.69
   9   0  -8    0.03    0.25
  -9   0  -8   -0.04    0.21
  -9   0  -8   -0.48    0.20
   9   0  -8   -0.10    0.09
   9   0   8    0.19    0.29
  -9  -1  -8   10.58    0.67
   9  -1   8   10.34    0.80
  -9  -1  -8    9.05    0.67
   9   1  -8    8.28    0.81
   9   1  -8    9.91    0.50
   9  -1  -8    9.32    0.72
  -9   1  -8    9.61    0.67
  -9   1  -8   10.04    0.74
   9   1   8    8.30    0.84
  -9  -2  -8   29.24    1.39
   9  -2   8   32.21    1.47
   9   2  -8   32.46    1.50
  -9  -2  -8   33.37    1.26
   9   2  -8   29.58    1.18
   9   2   8   28.45    1.43
   9  -2  -8   29.36    1.40
  -9   2  -8   32.45    1.46
   9   3  -8   -0.02    0.25
   9  -3   8    0.08    0.29
   9   3  -8    0.23    0.23
  -9  -3  -8    0.43    0.32
  -9   3  -8    0.00    0.30
   9   3   8    0.39    0.30
   9  -3  -8    0.29    0.27
  -9  -4  -8    1.37    0.39
   9   4  -8    3.26    0.48
   9  -4   8    1.94    0.44
   9   4  -8    1.99    0.45
   9  -4  -8    2.15    0.43
  -9   4  -8    2.32    0.47
   9   4   8    2.19    0.50
   9   5  -8   24.92    1.28
   9  -5   8   24.30    1.31
   9   5  -8   22.95    1.36
  -9  -5  -8   25.91    1.41
   9   5   8   23.03    1.35
  -9   5  -8   23.70    1.39
   9  -5  -8   25.28    1.25
   9  -5  -8   23.80    0.98
   9   6  -8    1.11    0.44
  -9  -6  -8    1.25    0.49
   9   6  -8    1.47    0.53
   9  -6   8    0.80    0.40
   9  -6  -8    1.66    0.43
  -9   6  -8    0.94    0.50
   9   6   8    1.18    0.48
   9   7  -8   16.27    1.21
   9  -7   8   16.64    1.18
  -9  -7  -8   15.76    1.19
   9   7  -8   15.64    1.20
   9  -7  -8   15.76    1.03
   9   7   8   16.67    1.26
  -9   7  -8   16.66    1.26
   9   8  -8   19.06    1.35
   9  -8   8   20.26    1.43
   9   8  -8   18.41    1.34
  -9  -8  -8   18.70    1.39
   9  -8  -8   19.70    1.45
   9   8   8   18.25    1.40
   9  -8  -8   21.33    1.20
  -9  -9  -8    0.00    0.40
   9  -9   8    0.55    0.52
   9   9  -8   -0.49    0.40
   9   9   8    0.81    0.60
  -9   9  -8   -0.01    0.41
   9  -9  -8    0.05    0.45
  -9 -10  -8    2.78    0.78
   9  10  -8    4.30    0.91
   9  10   8    3.83    0.95
  -9  10  -8    4.66    0.94
   9 -10  -8    3.26    0.88
   9  11  -8    5.25    1.13
  -9 -11  -8    4.48    0.90
   9 -11  -8    3.32    0.87
   9  11   8    5.66    1.12
  -9  11  -8    3.92    0.87
   9   0   9  123.72    4.24
  -9   0  -9  133.84    4.15
   9   0  -9  130.17    4.27
  -9   0  -9  128.41    4.09
  -9  -1  -9   10.38    0.71
   9   1  -9    7.52    0.78
   9   1  -9    9.40    0.48
  -9  -1  -9    9.29    0.73
   9  -1   9    8.63    0.85
  -9   1  -9   10.27    0.78
   9  -1  -9    8.36    0.82
   9   1   9    7.57    0.83
  -9   1  -9    9.03    0.63
   9  -2   9    4.64    0.65
  -9  -2  -9    4.50    0.61
   9   2  -9    5.20    0.46
  -9  -2  -9    4.86    0.51
   9   2  -9    4.19    0.63
   9   2   9    3.70    0.59
  -9   2  -9    4.98    0.67
   9  -2  -9    4.42    0.61
   9  -3   9   29.16    1.46
   9   3  -9   30.02    1.56
   9   3  -9   30.30    1.28
  -9  -3  -9   30.83    1.50
  -9  -3  -9   32.28    1.24
  -9   3  -9   30.96    1.54
   9  -3  -9   30.97    1.46
   9   3   9   31.26    1.52
   9   4  -9   17.06    0.95
   9  -4   9   16.11    1.07
   9   4  -9   17.51    1.17
  -9  -4  -9   16.97    1.12
   9   4   9   16.31    1.08
  -9   4  -9   15.51    1.09
   9  -4  -9   15.88    1.01
  -9  -5  -9    2.62    0.59
   9  -5   9    2.84    0.58
   9   5  -9    2.23    0.49
   9   5  -9    2.49    0.58
  -9   5  -9    2.67    0.59
   9  -5  -9    3.06    0.53
   9   5   9    2.03    0.53
   9   6  -9   18.42    1.28
   9  -6   9   18.40    1.23
   9   6  -9   18.25    1.17
  -9  -6  -9   18.66    1.31
  -9   6  -9   19.71    1.33
   9  -6  -9   20.11    1.15
   9   6   9   18.05    1.24
  -9  -7  -9   22.74    1.51
   9   7  -9   21.26    1.46
   9  -7   9   21.81    1.45
   9   7  -9   20.41    1.37
  -9   7  -9   20.17    1.45
   9   7   9   22.80    1.49
   9  -7  -9   21.21    1.24
   9   8  -9    4.12    0.80
   9  -8   9    3.80    0.78
  -9  -8  -9    3.01    0.69
   9   8  -9    3.77    0.78
  -9   8  -9    3.96    0.79
   9   8   9    2.76    0.73
   9  -8  -9    3.18    0.59
   9  -8  -9    2.71    0.74
   9   9  -9    7.05    1.03
   9  -9   9    8.37    1.14
   9   9  -9    6.94    1.03
  -9  -9  -9    6.25    1.01
   9   9   9    6.70    1.11
   9  -9  -9    7.12    1.07
  -9 -10  -9   13.19    1.41
   9 -10   9   14.03    1.53
   9  10  -9   13.30    1.51
   9  10   9   17.83    1.82
   9 -10  -9   14.66    1.55
  -9 -11  -9    0.12    0.51
   9 -11   9    0.59    0.66
   9  11  -9    0.05    0.61
   9 -11  -9   -0.19    0.58
   9  11   9   -0.18    0.61
  -9  11  -9    0.13    0.56
   9   0 -10   -0.41    0.22
  -9   0 -10   -0.09    0.26
  -9   0 -10   -0.30    0.27
   9   0  10   -0.14    0.29
   9   1 -10    1.85    0.24
  -9  -1 -10    1.34    0.36
  -9  -1 -10    1.93    0.43
   9  -1  10    1.79    0.49
   9   1 -10    1.25    0.41
   9   1  10    1.77    0.50
   9  -1 -10    1.05    0.37
  -9   1 -10    2.65    0.51
  -9   1 -10    1.38    0.35
  -9  -2 -10    8.19    0.64
   9  -2  10    7.83    0.84
   9   2 -10    9.02    0.55
  -9  -2 -10    8.41    0.82
   9   2 -10    8.51    0.92
   9   2  10    8.21    0.87
   9  -2 -10    8.74    0.86
  -9   2 -10    7.62    0.80
   9   3 -10    0.69    0.43
   9  -3  10    1.68    0.50
  -9  -3 -10    0.53    0.38
   9   3 -10    1.11    0.33
  -9  -3 -10    1.22    0.30
   9   3  10    1.74    0.47
  -9   3 -10    0.73    0.38
   9  -3 -10    0.41    0.31
   9   4 -10   13.53    1.23
   9  -4  10   14.68    1.05
   9   4 -10   14.05    0.88
  -9  -4 -10   12.99    1.02
   9  -4 -10   12.92    0.94
   9   4  10   14.12    1.03
  -9   4 -10   14.27    1.10
   9  -5  10    4.83    0.74
   9   5 -10    3.96    0.60
   9   5 -10    3.50    0.67
  -9  -5 -10    3.79    0.68
   9  -5 -10    5.32    0.69
  -9   5 -10    3.87    0.70
   9   5  10    5.87    0.82
   9   6 -10    0.31    0.35
  -9  -6 -10    0.32    0.40
   9   6 -10    0.13    0.42
   9  -6  10   -0.42    0.35
   9   6  10   -0.08    0.33
  -9   6 -10   -0.25    0.34
   9  -6 -10    0.08    0.32
   9   7 -10   13.68    1.36
  -9  -7 -10   13.29    1.30
   9   7 -10   14.18    1.27
   9  -7  10   12.10    1.25
   9  -7 -10   13.17    1.02
   9  -7 -10   13.43    1.39
  -9   7 -10   11.97    1.28
   9   7  10   12.71    1.29
   9  -8  10    7.53    1.06
   9   8 -10    4.86    0.89
  -9  -8 -10    6.20    1.01
   9   8 -10    5.56    0.87
   9   8  10    6.50    1.02
  -9   8 -10    5.04    0.95
   9  -8 -10    4.46    0.86
   9   9 -10    0.49    0.56
   9  -9  10    0.26    0.49
   9   9 -10    0.75    0.55
  -9  -9 -10    1.88    0.71
   9  -9 -10    0.74    0.57
   9   9  10    1.46    0.65
  -9 -10 -10    1.18    0.73
   9 -10  10    1.96    0.78
   9  10 -10    1.75    0.73
   9 -10 -10    2.75    0.89
   9  10  10    2.25    0.81
   9   0  11   32.18    1.60
   9   0 -11   34.06    1.68
  -9   0 -11   32.95    1.57
  -9   0 -11   33.89    1.51
   9  -1  11   16.08    1.08
  -9  -1 -11   16.16    1.03
  -9  -1 -11   17.20    1.00
   9   1 -11   15.71    1.10
   9   1  11   16.89    1.12
   9  -1 -11   13.53    1.01
  -9   1 -11   15.79    1.07
  -9   1 -11   15.48    0.92
   9  -2  11    8.31    0.89
  -9  -2 -11    7.06    0.68
   9   2 -11    8.35    0.94
  -9  -2 -11    7.97    0.85
   9   2  11    7.28    0.84
  -9   2 -11    7.10    0.83
  -9   2 -11    7.91    0.62
   9  -2 -11    7.63    0.86
   9   3 -11   19.17    1.29
   9   3 -11   17.64    0.93
   9  -3  11   18.59    1.17
  -9  -3 -11   19.67    1.23
  -9  -3 -11   18.38    0.96
  -9   3 -11   17.21    1.19
   9  -3 -11   19.01    1.18
   9   3  11   19.24    1.19
   9   4 -11    5.43    0.82
   9   4 -11    5.82    0.64
   9  -4  11    6.51    0.86
  -9  -4 -11    4.47    0.73
  -9   4 -11    4.88    0.76
   9   4  11    3.89    0.69
   9  -4 -11    6.23    0.77
   9   5 -11    2.97    0.70
   9   5 -11    2.25    0.51
  -9  -5 -11    1.90    0.57
   9  -5  11    2.77    0.65
   9   5  11    1.77    0.54
   9  -5 -11    1.63    0.48
  -9   5 -11    2.89    0.70
   9   6 -11   12.96    1.33
   9  -6  11   14.75    1.20
  -9  -6 -11   12.83    1.26
   9   6 -11   13.05    1.02
   9  -6 -11   14.20    1.03
   9   6  11   15.03    1.17
  -9   6 -11   14.41    1.38
   9   7 -11    6.53    0.89
  -9  -7 -11    5.20    0.92
   9   7 -11    5.36    0.93
   9  -7  11    5.92    0.87
   9  -7 -11    6.15    0.78
   9   7  11    6.21    0.92
   9  -7 -11    5.68    0.99
  -9   7 -11    5.61    0.97
   9   8 -11    1.10    0.58
  -9  -8 -11    1.22    0.64
   9  -8  11    1.31    0.60
   9   8 -11    0.48    0.51
  -9   8 -11    1.16    0.60
   9   8  11    1.47    0.58
   9  -8 -11    2.59    0.75
   9   9 -11    1.47    0.66
  -9  -9 -11    2.28    0.80
   9   9 -11    3.34    0.86
   9  -9  11    3.28    0.85
  -9   9 -11    2.99    0.79
   9   9  11    2.84    0.79
   9  -9 -11    3.04    0.81
   9 -10  11    8.74    1.28
  -9 -10 -11    6.60    1.18
   9  10 -11    8.27    1.27
   9  10 -11    7.95    1.23
   9  10  11    8.50    1.31
   9 -10 -11    8.88    1.32
   9   0 -12   -0.30    0.30
  -9   0 -12   -0.24    0.27
   9   0  12   -0.04    0.32
   9  -1  12    8.59    0.92
   9   1 -12    6.19    0.82
  -9  -1 -12    8.41    0.83
  -9  -1 -12    7.01    0.79
   9  -1 -12    8.39    0.92
  -9   1 -12    6.28    0.82
  -9   1 -12    6.92    0.72
   9   1  12    9.14    0.96
  -9  -2 -12   17.56    1.18
   9  -2  12   18.04    1.20
  -9  -2 -12   18.41    1.06
   9   2 -12   16.55    1.22
  -9   2 -12   16.97    1.18
  -9   2 -12   17.38    0.95
   9  -2 -12   16.12    1.16
   9   2  12   17.95    1.19
  -9  -3 -12    5.12    0.77
   9  -3  12    5.67    0.76
   9   3 -12    4.72    0.78
   9  -3 -12    5.09    0.72
   9   3  12    5.22    0.79
  -9   3 -12    5.00    0.77
  -9  -4 -12    2.04    0.59
   9  -4  12    3.58    0.68
   9   4 -12    2.33    0.63
   9  -4 -12    4.61    0.72
  -9   4 -12    2.88    0.65
   9   4  12    3.86    0.66
   9   5 -12   37.14    2.03
  -9  -5 -12   36.82    1.97
   9  -5  12   38.16    1.89
   9   5 -12   38.90    1.71
  -9   5 -12   33.17    1.96
   9  -5 -12   34.16    1.75
   9   5  12   36.10    1.85
   9  -6  12   -0.52    0.40
   9   6 -12    0.63    0.44
  -9  -6 -12    0.47    0.51
   9   6 -12   -0.02    0.42
  -9   6 -12    0.36    0.50
   9  -6 -12    0.84    0.58
   9   6  12   -0.04    0.41
   9  -6 -12    0.15    0.40
   9  -7  12    6.15    0.95
   9   7 -12    5.15    0.81
   9   7 -12    7.29    1.12
  -9  -7 -12    7.15    1.08
   9  -7 -12    3.90    0.90
   9  -7 -12    6.21    0.83
  -9   7 -12    8.19    1.17
   9   7  12    5.67    0.91
  -9  -8 -12    6.16    1.03
   9  -8  12    4.19    0.81
   9   8 -12    6.93    1.09
   9   8 -12    3.76    0.77
  -9   8 -12    5.90    1.03
   9   8  12    4.52    0.90
   9  -8 -12    5.80    1.01
   9   9 -12    0.96    0.67
  -9  -9 -12    1.72    0.72
   9   9 -12   -0.32    0.53
   9  -9  12    0.65    0.59
  -9   9 -12    1.33    0.68
   9   9  12    0.50    0.57
   9  -9 -12    0.38    0.60
  -9 -10 -12   -0.37    0.66
   9  10 -12    0.11    0.61
   9 -10  12    0.84    0.65
   9  10 -12    0.94    0.73
   9  10  12    0.47    0.64
   9 -10 -12   -0.03    0.60
  -9   0 -13   14.04    1.06
   9   0 -13   14.33    1.11
   9   0  13   15.93    1.12
  -9  -1 -13    1.55    0.49
  -9  -1 -13    1.64    0.49
   9   1 -13    1.26    0.50
   9  -1  13    1.64    0.55
   9  -1 -13    1.36    0.51
  -9   1 -13    1.45    0.40
  -9   1 -13    1.38    0.47
   9  -2  13    4.33    0.74
  -9  -2 -13    6.23    0.84
   9   2 -13    3.99    0.77
  -9  -2 -13    4.07    0.63
  -9   2 -13    4.58    0.60
   9  -2 -13    3.68    0.70
  -9   2 -13    4.41    0.78
  -9  -3 -13    6.41    0.92
   9   3 -13    6.95    0.96
   9  -3  13    6.59    0.84
   9  -3 -13    5.45    0.80
  -9   3 -13    6.59    0.93
   9  -4  13    0.06    0.44
  -9  -4 -13    1.44    0.55
   9   4 -13    1.09    0.54
   9  -4 -13    1.03    0.47
  -9   4 -13    1.05    0.55
  -9  -5 -13    0.34    0.51
   9  -5  13   -0.36    0.38
   9   5 -13   -0.15    0.55
   9  -5 -13    0.25    0.42
   9  -5 -13    0.07    0.43
  -9   5 -13   -0.53    0.41
   9   6 -13    4.43    0.91
   9  -6  13    5.02    0.84
  -9  -6 -13    6.57    1.00
   9  -6 -13    7.01    1.09
  -9   6 -13    5.91    1.00
   9  -6 -13    4.99    0.78
  -9  -7 -13    5.18    0.94
   9  -7  13    5.85    0.96
   9   7 -13    5.69    1.03
   9  -7 -13    5.38    1.03
  -9   7 -13    6.41    1.06
   9  -8  13    0.87    0.58
  -9  -8 -13    0.86    0.65
   9   8 -13    0.39    0.58
   9   8 -13   -0.43    0.49
   9  -8 -13    0.29    0.59
  -9   8 -13   -0.48    0.60
   9   8  13   -0.30    0.49
   9   9 -13    3.21    0.82
  -9  -9 -13    4.87    1.06
   9   9 -13    4.28    1.00
   9  -9  13    2.28    0.79
  -9   9 -13    0.86    0.67
   9  -9 -13    5.95    1.18
  -9   0 -14    0.22    0.40
   9   0 -14    0.21    0.46
   9  -1  14   23.27    1.37
   9   1 -14   17.38    1.36
  -9  -1 -14   22.27    1.32
  -9  -1 -14   21.97    1.34
  -9   1 -14   21.93    1.21
   9  -1 -14   22.06    1.45
  -9   1 -14   20.50    1.36
  -9  -2 -14    4.42    0.80
  -9  -2 -14    4.55    0.69
   9   2 -14    5.60    0.91
   9  -2  14    5.26    0.80
   9  -2 -14    4.69    0.81
  -9   2 -14    5.93    0.88
   9   3 -14   -0.37    0.43
   9  -3  14    0.11    0.40
  -9  -3 -14    0.37    0.48
   9  -3 -14    0.26    0.37
  -9   3 -14    0.49    0.50
   9   4 -14    1.89    0.65
  -9  -4 -14    3.38    0.72
   9  -4  14    1.72    0.60
  -9   4 -14    3.15    0.78
   9  -4 -14    2.27    0.60
   9   5 -14    9.18    1.20
   9  -5  14   10.44    1.17
  -9  -5 -14    7.92    1.10
   9  -5 -14    9.41    1.05
   9  -5 -14    8.05    1.16
  -9   5 -14   10.93    1.29
   9  -6  14    6.34    0.96
  -9  -6 -14    4.17    0.91
   9   6 -14    4.36    0.89
  -9   6 -14    6.37    1.10
   9  -6 -14    4.09    0.74
   9  -6 -14    4.28    0.92
  -9  -7 -14    4.53    0.94
   9  -7  14    3.65    0.87
   9   7 -14    3.89    0.96
  -9   7 -14    3.88    0.95
   9  -7 -14    3.87    0.92
   9  -8  14    5.81    1.03
   9   8 -14    6.95    1.18
  -9  -8 -14    6.06    1.14
  -9   8 -14    6.82    1.18
   9  -8 -14    6.59    1.14
   9  -9  14    0.16    0.58
  -9  -9 -14    0.32    0.77
   9   9 -14    0.29    0.67
  -9   9 -14    0.78    0.81
   9  -9 -14    0.07    0.66
   9   0 -15   13.14    1.35
  -9   0 -15   13.40    1.23
   9   1 -15    1.31    0.63
  -9  -1 -15    0.61    0.46
  -9  -1 -15    0.63    0.45
   9  -1 -15   -0.11    0.46
  -9   1 -15    0.76    0.42
  -9   1 -15    0.36    0.51
   9   2 -15    7.21    1.07
  -9  -2 -15    7.40    0.96
  -9  -2 -15    7.11    0.85
   9  -2  15    8.02    0.98
   9  -2 -15    6.54    0.96
   9   2  15    9.86    1.03
  -9   2 -15    7.62    1.04
   9   3 -15    4.27    0.88
   9  -3  15    3.42    0.74
  -9  -3 -15    3.64    0.75
  -9   3 -15    2.00    0.63
   9   3  15    3.39    0.66
   9  -3 -15    3.82    0.78
   9  -4  15    0.47    0.50
  -9  -4 -15    2.03    0.67
   9   4 -15    0.43    0.57
   9  -4 -15    0.89    0.52
   9  -4 -15    0.75    0.63
  -9   4 -15    0.12    0.51
  -9  -5 -15   -0.09    0.56
   9  -5  15    0.47    0.53
   9   5 -15    1.05    0.66
   9  -5 -15    0.20    0.53
   9  -5 -15    0.30    0.45
  -9   5 -15   -0.02    0.51
  -9  -6 -15    4.13    0.96
   9  -6  15    4.46    0.93
   9   6 -15    3.79    0.96
   9  -6 -15    3.09    0.74
  -9   6 -15    2.71    0.87
   9  -6 -15    3.47    0.90
   9   7 -15    2.79    0.85
   9  -7  15    4.14    0.87
  -9  -7 -15    4.69    1.09
  -9   7 -15    4.75    1.06
   9  -7 -15    3.25    0.98
   9  -8  15    0.65    0.69
   9   8 -15    0.18    0.72
  -9  -8 -15    0.37    0.67
   9  -8 -15    0.42    0.63
  -9   8 -15    0.62    0.67
  -9   0 -16    0.42    0.44
   9   0 -16   -0.81    0.42
   9   1 -16    3.94    0.83
  -9  -1 -16    3.61    0.70
  -9  -1 -16    3.39    0.74
  -9   1 -16    2.69    0.71
   9   1  16    3.46    0.66
   9  -1 -16    2.82    0.78
   9   2 -16    5.21    0.98
  -9  -2 -16    6.03    0.95
   9  -2 -16    7.41    1.05
  -9   2 -16    5.60    0.98
   9  -2 -16    7.38    1.04
  -9  -3 -16    0.28    0.56
   9   3 -16    0.16    0.51
   9  -3  16    0.03    0.46
  -9   3 -16    0.23    0.58
   9  -3 -16    0.47    0.54
   9  -3 -16   -0.24    0.43
   9   4 -16    1.24    0.69
   9  -4  16    1.71    0.65
  -9  -4 -16    1.24    0.64
  -9   4 -16    0.75    0.67
   9  -4 -16    1.41    0.57
   9  -4 -16    0.36    0.64
   9  -5  16    9.28    1.16
   9   5 -16    7.23    1.22
  -9  -5 -16    6.65    1.12
   9  -5 -16    7.35    1.20
   9  -5 -16    6.74    0.97
  -9   5 -16   10.61    1.36
   9   6 -16    1.52    0.77
   9  -6  16    1.44    0.67
  -9  -6 -16    1.71    0.80
  -9   6 -16    0.83    0.67
   9  -6 -16    2.66    0.83
   9   7 -16    1.90    0.79
   9  -7  16    2.34    0.86
  -9  -7 -16    0.61    0.70
   9  -7 -16    1.74    0.78
  -9   7 -16    1.06    0.73
  -9   0 -17    8.23    1.05
   9   0 -17    6.66    1.03
   9   0 -17    9.80    1.14
   9   1 -17    0.04    0.49
  -9  -1 -17    0.00    0.44
  -9  -1 -17    0.21    0.45
   9  -1 -17    0.50    0.53
   9  -1 -17    0.59    0.56
  -9   1 -17    0.86    0.63
   9   2 -17    1.35    0.71
  -9  -2 -17    1.80    0.70
   9  -2 -17    0.70    0.57
   9  -2 -17    3.01    0.83
  -9   2 -17    2.94    0.80
   9  -3  17    5.31    0.88
   9   3 -17    5.19    1.04
  -9  -3 -17    5.03    0.97
  -9   3 -17    5.02    1.00
   9  -3 -17    7.13    1.13
   9  -3 -17    3.08    0.80
   9  -4  17    1.34    0.64
  -9  -4 -17    1.57    0.70
   9   4 -17    0.93    0.69
   9  -4 -17    1.56    0.68
   9  -4 -17    1.56    0.66
  -9   4 -17    0.67    0.71
   9   5 -17    0.26    0.59
  -9  -5 -17    0.01    0.60
   9  -5  17    1.09    0.64
   9  -5 -17   -0.42    0.45
   9  -5 -17    0.27    0.64
  -9   5 -17    0.34    0.66
   9   6 -17    1.81    0.86
   9  -6  17    2.38    0.79
  -9  -6 -17    0.55    0.73
   9  -6 -17    2.63    0.93
  -9   6 -17    2.32    0.84
   9   0 -18    0.29    0.53
  -9   0 -18   -0.13    0.52
   9   0 -18    0.27    0.58
  -9  -1 -18    2.47    0.72
   9   1 -18    1.44    0.76
  -9  -1 -18    1.11    0.59
   9  -1 -18    2.35    0.79
  -9   1 -18    1.69    0.67
   9  -1 -18    2.81    0.80
  -9  -2 -18    3.60    0.87
   9   2 -18    2.97    0.89
   9  -2 -18    3.17    0.80
  -9   2 -18    5.12    0.99
   9  -2 -18    5.49    1.01
   9   3 -18    0.34    0.58
  -9  -3 -18    0.32    0.63
   9  -3 -18    0.29    0.56
  -9   3 -18    0.84    0.68
   9  -3 -18    1.24    0.69
  -9  -4 -18    4.14    1.00
   9   4 -18    3.71    0.97
   9  -4 -18    2.22    0.80
  -9   4 -18    3.05    0.96
   9  -4 -18    2.67    0.80
  -9  -5 -18    3.01    0.95
   9   5 -18    3.64    0.99
   9  -5 -18    4.09    1.04
  -9   5 -18    2.59    0.93
   9   0 -19    1.19    0.75
  -9   0 -19    3.22    0.86
   9   1 -19    0.97    0.73
   9  -1 -19    1.84    0.76
   9  -1 -19    1.66    0.69
  -9   1 -19    1.07    0.67
   9   2 -19    0.56    0.78
  -9  -2 -19    0.29    0.68
   9  -2 -19    1.06    0.71
   9  -2 -19   -0.07    0.57
  -9   2 -19    0.44    0.60
   9   3 -19    1.96    0.89
  -9  -3 -19    2.34    0.85
  -9   3 -19    4.56    1.03
   9  -3 -19    2.18    0.87
   9  -3 -19    2.35    0.82
  -9  -4 -19    1.64    0.85
   9   4 -19    0.97    0.71
   9  -4 -19    1.45    0.82
  -9   4 -19    0.72    0.73
   9  -4 -19    0.85    0.65
  -9   0 -20    0.00    0.66
   9   0 -20    0.08    0.65
   9   1 -20    1.54    0.87
   9  -1 -20    1.25    0.76
   9  -1 -20    1.91    0.83
  -9   1 -20    1.29    0.78
   9   2 -20    1.54    0.80
  -9   2 -20    1.69    0.79
   9  -2 -20    1.28    0.73
  10   0   0  134.11    4.06
  10  -1   0    5.49    0.45
  10   1   0    5.65    0.44
  10   1   0    6.42    0.43
  10  -2   0   13.93    0.74
  10   2   0   13.53    0.65
  10   2   0   12.80    0.72
  10  -3   0  121.20    3.79
  10   3   0  121.83    3.86
  10   3   0  123.87    3.66
  10   4   0    0.15    0.13
  10  -4   0    0.15    0.20
  10   4   0    0.41    0.22
  10   5   0   -0.03    0.14
  10  -5   0    0.12    0.24
  10   5   0    0.11    0.27
 -10   6   0    5.56    0.65
  10   6   0    5.42    0.74
  10   7   0   15.10    1.10
 -10   7   0   14.28    1.00
  10   8   0    3.49    0.73
 -10   8   0    2.28    0.56
 -10   9   0   13.83    1.28
  10   9   0   17.27    1.36
  10  10   0   16.78    1.69
 -10  10   0   17.43    1.29
 -10  11   0    0.42    0.49
  10  11   0   -0.24    0.50
  10  12   0    7.07    1.31
 -10  12   0    6.69    1.11
  10   0  -1   -0.20    0.14
  10   0  -1    0.10    0.13
  10   0   1   -0.15    0.16
  10   1  -1  100.55    3.12
  10  -1   1  102.37    3.25
  10   1  -1  105.64    3.17
  10   1   1  105.65    3.24
  10  -1  -1   95.39    3.14
  10  -2   1   32.44    1.35
  10   2  -1   34.21    1.33
  10   2   1   36.02    1.38
  10  -2  -1   34.15    1.30
  10   2   1   33.56    1.20
  10   3  -1   16.37    0.89
  10  -3   1   17.46    0.88
  10   3  -1   17.45    0.81
  10   3   1   17.47    0.91
  10  -3  -1   18.14    0.85
  10   3   1   16.99    0.73
  10   4  -1   20.62    1.07
  10   4  -1   23.42    0.98
  10  -4   1   20.03    1.02
  10   4   1   21.28    0.86
  10  -4  -1   21.40    0.99
  10   4   1   21.93    1.11
  10  -5   1   64.89    2.37
  10   5  -1   68.54    2.24
  10   5  -1   64.31    2.48
 -10  -5  -1   64.08    2.34
  10   5   1   68.26    2.09
  10   5   1   65.19    2.49
  10  -5  -1   67.61    2.33
  10   6  -1   17.66    1.12
 -10  -6  -1   16.86    0.94
 -10   6   1   15.92    0.96
  10   6   1   15.09    1.06
 -10   6  -1   17.38    1.02
  10   7  -1   15.14    1.13
 -10  -7  -1   15.32    0.96
 -10   7   1   14.56    0.99
  10   7   1   13.73    1.07
 -10   7  -1   14.45    1.01
 -10  -8  -1   32.47    1.53
 -10   8   1   33.40    1.61
  10   8  -1   30.52    1.78
 -10   8  -1   31.42    1.62
  10   8   1   29.17    1.77
 -10  -9  -1    0.38    0.37
 -10   9   1    0.57    0.42
  10   9  -1    1.10    0.57
  10  -9  -1    0.30    0.33
  10   9   1    0.46    0.53
 -10   9  -1    0.77    0.44
 -10  10   1    3.81    0.75
  10  10  -1    3.02    0.79
 -10 -10  -1    2.70    0.58
  10  10   1    3.97    0.87
 -10  10  -1    2.71    0.70
 -10  11   1    5.42    0.89
  10  11  -1    5.13    1.07
 -10  11  -1    4.58    0.91
  10  11   1    5.33    1.07
  10  12  -1    3.33    1.00
 -10  12   1    3.08    0.82
 -10  12  -1    5.40    1.03
  10  12   1    4.24    1.06
  10   0  -2  107.36    3.35
  10   0   2  108.02    3.45
  10   0  -2  109.97    3.29
  10   1  -2    9.81    0.59
  10  -1   2   11.07    0.69
  10   1  -2   10.19    0.56
  10   1   2   10.17    0.65
  10  -1  -2    9.43    0.55
  10  -1  -2   10.21    0.61
  10   2  -2  132.87    3.95
  10  -2   2  129.26    4.05
  10   2  -2  127.36    3.94
  10  -2  -2  129.12    3.90
  10   2   2  130.20    4.05
  10  -3   2    8.00    0.60
  10   3  -2    7.06    0.56
  10   3   2    7.72    0.42
  10   3   2    7.79    0.59
  10  -3  -2    7.70    0.51
  10   4  -2    6.03    0.50
 -10  -4  -2    6.02    0.62
  10   4  -2    5.21    0.59
  10  -4   2    6.03    0.60
  10   4   2    6.53    0.38
  10   4   2    6.69    0.70
  10  -4  -2    6.25    0.49
  10   5  -2    0.31    0.28
 -10  -5  -2    0.12    0.20
  10  -5   2    0.11    0.25
  10   5  -2    0.23    0.21
  10   5   2   -0.15    0.23
  10   5   2    0.21    0.11
  10  -5  -2   -0.06    0.19
 -10  -6  -2   19.24    1.06
  10   6  -2   18.84    1.16
 -10   6   2   18.87    1.02
  10  -6   2   17.68    1.05
  10   6  -2   18.55    0.94
 -10   6  -2   18.95    1.10
  10   6   2   17.71    1.17
  10   7  -2   28.29    1.55
 -10   7   2   24.74    1.32
 -10  -7  -2   27.73    1.37
  10   7   2   26.02    1.52
 -10   7  -2   26.42    1.40
 -10  -8  -2    0.74    0.37
  10   8  -2    0.35    0.40
 -10   8   2    1.06    0.42
  10   8   2    0.85    0.46
 -10   8  -2    1.79    0.50
  10   9  -2   20.09    1.48
 -10   9   2   19.89    1.26
 -10  -9  -2   17.44    1.16
  10   9   2   17.21    1.63
  10  -9  -2   16.78    1.16
 -10   9  -2   17.89    1.27
 -10  10   2   16.60    1.27
 -10 -10  -2   19.53    1.25
  10  10  -2   18.60    1.51
 -10  10  -2   17.29    1.32
  10  10   2   17.64    1.70
  10  11  -2   -0.33    0.57
 -10 -11  -2    0.02    0.38
 -10  11   2   -0.24    0.44
 -10  11  -2   -0.16    0.43
  10  11   2   -0.02    0.51
  10  12  -2    9.58    1.47
 -10  12   2    9.46    1.24
 -10  12  -2   10.02    1.29
  10  12   2    7.80    1.39
  10   0  -3   -0.12    0.15
  10   0   3   -0.17    0.14
  10   0  -3    0.13    0.13
  10   1  -3    3.71    0.37
  10   1  -3    3.55    0.42
  10  -1   3    3.77    0.49
  10  -1  -3    3.24    0.33
  10   1   3    3.59    0.45
  10  -1  -3    3.52    0.44
  10   2  -3   31.02    1.20
  10   2  -3   29.06    1.23
  10  -2   3   29.35    1.30
  10   2   3   29.33    1.30
  10  -2  -3   30.78    1.26
  10  -2  -3   30.25    1.14
  10   3  -3    7.49    0.55
  10   3  -3    6.79    0.62
  10  -3   3    5.05    0.56
 -10  -3  -3    6.57    0.62
  10   3   3    6.47    0.37
  10   3   3    6.03    0.62
  10  -3  -3    7.10    0.63
  10  -3  -3    6.18    0.44
  10  -4   3   14.29    0.86
  10   4  -3   14.94    0.87
 -10  -4  -3   14.63    0.85
  10   4  -3   14.87    0.82
  10   4   3   14.47    0.59
  10   4   3   14.79    0.91
  10  -4  -3   14.55    0.75
  10   5  -3   60.09    2.10
  10  -5   3   54.35    2.13
 -10  -5  -3   54.68    2.11
  10   5  -3   56.33    2.20
  10  -5  -3   55.22    1.97
  10   5   3   50.43    2.15
  10   6  -3    6.98    0.68
 -10  -6  -3    5.15    0.64
  10  -6   3    7.97    0.83
  10   6  -3    6.96    0.80
  10   6   3    5.89    0.76
  10   7  -3   22.16    1.36
  10   7  -3   20.57    1.10
 -10  -7  -3   22.38    1.25
 -10   7   3   22.40    1.19
  10   7   3   22.87    1.41
 -10   7  -3   20.72    1.28
 -10  -8  -3   19.96    1.23
  10   8  -3   23.68    1.51
 -10   8   3   19.25    1.18
  10   8   3   18.87    1.37
 -10   8  -3   21.19    1.30
 -10   9   3    1.88    0.53
 -10  -9  -3    1.91    0.51
  10   9  -3    1.33    0.59
  10  -9  -3    1.45    0.48
 -10   9  -3    1.25    0.52
  10   9   3    1.05    0.58
  10  10  -3    1.81    0.74
 -10  10   3    1.89    0.61
 -10 -10  -3    4.25    0.73
 -10  10  -3    2.65    0.70
  10 -10  -3    3.32    0.66
  10  10   3    4.00    0.94
  10  11  -3    8.23    1.24
 -10 -11  -3    5.26    0.85
 -10  11   3    7.03    1.01
 -10  11  -3    6.96    1.04
  10  11   3    7.23    1.27
  10  12  -3    5.93    1.22
 -10  12   3    5.54    1.02
 -10  12  -3    4.23    0.98
  10  12   3    3.23    1.01
  10   0  -4   25.83    1.14
  10   0   4   26.86    1.23
  10   0  -4   25.39    0.96
  10   1  -4   24.97    0.98
  10   1  -4   26.04    1.14
  10  -1   4   23.96    1.17
  10  -1  -4   23.63    1.10
  10  -1  -4   26.90    0.96
  10   1   4   25.71    1.20
 -10  -2  -4   22.38    1.07
  10   2  -4   24.95    1.01
  10  -2   4   24.29    1.16
  10   2  -4   21.84    1.06
  10  -2  -4   23.63    0.92
  10   2   4   23.65    1.14
  10  -2  -4   22.75    1.08
  10   3  -4   85.30    2.83
  10  -3   4   85.36    2.92
  10   3  -4   84.87    2.88
 -10  -3  -4   86.53    2.92
  10   3   4   86.70    2.97
  10  -3  -4   86.78    2.86
  10  -3  -4   85.84    2.67
 -10  -4  -4    2.14    0.43
  10  -4   4    2.60    0.45
  10   4  -4    1.46    0.34
  10   4  -4    3.00    0.47
  10  -4  -4    2.56    0.33
  10   4   4    2.65    0.46
  10   4   4    2.29    0.22
  10  -4  -4    2.24    0.41
  10   5  -4    2.16    0.45
  10  -5   4    2.63    0.47
  10   5  -4    3.16    0.49
 -10  -5  -4    3.37    0.52
  10  -5  -4    3.43    0.49
  10  -5  -4    3.18    0.42
  10   5   4    2.99    0.53
 -10   6   4   18.85    0.98
  10   6  -4   18.74    1.19
  10  -6   4   17.99    1.10
 -10  -6  -4   19.83    1.14
  10   6  -4   18.72    1.05
  10   6   4   18.66    1.21
  10   7  -4    1.14    0.36
 -10  -7  -4    1.40    0.43
  10   7  -4    1.87    0.54
  10  -7   4    0.89    0.39
 -10   7  -4    1.69    0.46
  10   7   4    2.47    0.62
  10   8  -4    2.87    0.67
 -10  -8  -4    2.13    0.54
  10   8   4    4.72    0.85
 -10   8  -4    3.38    0.66
  10   9  -4   14.83    1.49
 -10  -9  -4   12.26    1.16
 -10   9   4   14.43    1.06
  10   9   4   13.95    1.45
 -10   9  -4   14.76    1.34
  10  -9  -4   12.68    1.21
 -10  10   4   17.88    1.29
 -10 -10  -4   17.38    1.28
  10  10  -4   19.84    1.85
  10  10   4   16.59    1.70
  10 -10  -4   16.92    1.29
 -10  10  -4   18.41    1.42
  10  11  -4   -0.16    0.60
 -10 -11  -4   -0.30    0.40
 -10  11   4    0.14    0.47
  10  11   4    0.10    0.62
 -10  11  -4   -0.13    0.46
 -10  12   4    5.83    1.04
  10  12  -4    7.00    1.32
 -10  12  -4   10.58    1.37
  10  12   4    9.88    1.52
  10   0   5    0.32    0.22
  10   0  -5   -0.06    0.19
  10   0  -5   -0.08    0.11
  10   1  -5   20.79    1.05
  10   1  -5   22.65    0.89
  10  -1   5   23.64    1.15
 -10  -1  -5   22.05    1.03
  10   1   5   20.68    1.11
  10  -1  -5   21.90    1.07
  10  -1  -5   22.85    0.82
  10   2  -5  104.02    3.45
  10  -2   5  102.09    3.49
 -10  -2  -5  104.23    3.44
  10   2  -5  108.01    3.30
  10  -2  -5  106.14    3.43
  10  -2  -5  106.52    3.14
  10   2   5  111.40    3.56
 -10  -3  -5   12.83    0.84
  10  -3   5   14.07    0.88
  10   3  -5   13.89    0.79
  10   3  -5   11.87    0.81
  10   3   5   13.61    0.87
  10  -3  -5   13.79    0.81
  10  -3  -5   13.52    0.63
  10   4  -5   30.43    1.43
  10   4  -5   34.40    1.47
 -10  -4  -5   34.29    1.50
  10  -4   5   31.03    1.46
  10  -4  -5   33.33    1.23
  10   4   5   32.45    1.05
  10  -4  -5   32.49    1.43
  10   4   5   35.36    1.56
  10   5  -5   73.58    2.75
 -10  -5  -5   68.31    2.63
  10  -5   5   73.26    2.67
  10   5  -5   74.62    2.69
  10  -5  -5   72.87    2.39
  10   5   5   68.79    2.70
  10  -5  -5   72.97    2.57
 -10   6   5    0.98    0.32
  10   6  -5    1.00    0.41
  10  -6   5    1.17    0.44
 -10  -6  -5    0.92    0.36
  10   6   5    1.91    0.50
  10  -6  -5    1.08    0.35
  10   7  -5    6.53    0.88
  10   7  -5    6.05    0.73
 -10  -7  -5    6.40    0.78
 -10   7   5    6.24    0.67
  10  -7   5    6.27    0.85
  10   7   5    7.26    0.92
  10  -7  -5    7.68    0.78
 -10  -8  -5   23.58    1.39
  10   8  -5   20.04    1.40
  10   8  -5   20.39    1.26
  10   8   5   22.24    1.50
  10  -8  -5   22.82    1.25
 -10   8  -5   23.34    1.41
 -10  -9  -5    1.60    0.54
  10   9  -5    1.48    0.59
  10  -9  -5    1.77    0.49
 -10   9  -5    1.89    0.57
  10  -9  -5    1.40    0.52
  10   9   5    3.14    0.75
 -10 -10  -5    1.35    0.57
  10  10  -5    2.02    0.73
  10  10   5    0.90    0.63
 -10  10  -5    2.10    0.71
  10 -10  -5    0.78    0.49
 -10 -11  -5    8.16    1.05
  10  11  -5    7.77    1.29
 -10  11   5    7.22    1.00
  10 -11  -5    8.78    1.15
  10  11   5    6.34    1.15
 -10  11  -5    5.87    1.05
  10  12  -5    2.26    0.91
 -10 -12  -5    3.38    0.82
  10  12   5    2.37    0.87
 -10  12  -5    3.21    0.91
  10   0  -6   94.42    2.71
 -10   0  -6   90.19    2.95
  10   0  -6   88.22    3.04
  10   0   6   90.27    3.15
  10   1  -6    3.07    0.33
  10  -1   6    2.89    0.48
 -10  -1  -6    3.32    0.46
  10   1  -6    2.67    0.44
  10  -1  -6    3.36    0.46
  10   1   6    2.18    0.43
  10  -1  -6    3.14    0.24
  10  -2   6    6.22    0.69
  10   2  -6    5.29    0.43
 -10  -2  -6    4.65    0.54
  10   2  -6    4.38    0.55
  10  -2  -6    5.19    0.32
  10   2   6    5.95    0.69
  10  -2  -6    5.76    0.61
 -10  -3  -6   22.39    1.13
  10  -3   6   20.57    1.13
  10   3  -6   22.68    1.04
  10   3  -6   20.90    1.14
  10  -3  -6   22.92    1.12
  10  -3  -6   19.82    0.82
  10   3   6   21.37    1.15
 -10  -4  -6   14.80    0.95
  10  -4   6   13.26    0.90
  10   4  -6   13.84    0.86
  10   4  -6   14.81    0.93
  10  -4  -6   13.07    0.83
  10  -4  -6   13.97    0.67
  10   4   6   13.23    0.94
 -10  -5  -6    2.22    0.48
  10   5  -6    2.42    0.49
  10  -5   6    2.15    0.49
  10   5  -6    2.76    0.49
  10   5   6    2.69    0.52
  10  -5  -6    2.37    0.43
  10  -5  -6    2.81    0.38
  10   6  -6    2.27    0.52
 -10  -6  -6    1.76    0.44
  10  -6   6    2.51    0.57
  10   6  -6    2.02    0.47
 -10   6   6    2.73    0.41
  10   6   6    2.56    0.59
  10  -6  -6    2.54    0.49
  10   7  -6   23.53    1.44
 -10  -7  -6   20.61    1.33
  10  -7   6   22.81    1.40
 -10   7   6   24.48    1.20
  10  -7  -6   23.58    1.26
  10   7   6   22.86    1.49
  10   8  -6    0.28    0.48
 -10   8   6    0.23    0.34
  10  -8   6   -0.18    0.36
  10   8  -6    0.51    0.41
 -10  -8  -6    0.07    0.38
  10   8   6   -0.17    0.38
 -10   8  -6    0.53    0.42
  10  -8  -6    0.25    0.34
  10   9  -6    4.89    0.88
 -10   9   6    5.86    0.76
 -10  -9  -6    6.12    0.87
  10  -9  -6    6.82    0.99
  10   9   6    6.19    1.04
 -10   9  -6    5.31    0.91
  10  -9  -6    5.87    0.75
 -10 -10  -6   14.70    1.44
  10  10  -6   13.36    1.52
 -10  10  -6   14.58    1.42
  10  10   6   18.28    1.85
  10 -10  -6   16.91    1.37
  10  11  -6    0.30    0.55
 -10 -11  -6    0.10    0.50
  10 -11  -6   -0.29    0.48
 -10  11  -6   -0.14    0.55
  10  11   6    0.35    0.63
  10   0  -7    0.01    0.19
  10   0  -7    0.14    0.12
 -10   0  -7   -0.01    0.21
  10   0   7   -0.41    0.16
 -10  -1  -7   26.31    1.25
  10  -1   7   29.06    1.39
  10   1  -7   27.34    1.05
  10   1  -7   28.43    1.36
  10   1   7   29.98    1.44
  10  -1  -7   29.53    1.34
 -10   1  -7   28.12    1.31
  10  -1  -7   28.64    0.92
  10  -2   7   11.88    0.87
  10   2  -7   10.96    0.64
 -10  -2  -7   12.39    0.82
  10   2  -7   12.38    0.84
  10   2   7   11.81    0.88
  10  -2  -7   12.67    0.81
  10  -2  -7   11.33    0.46
 -10   2  -7   12.79    0.87
 -10  -3  -7    3.37    0.51
  10   3  -7    4.00    0.59
  10   3  -7    3.64    0.46
  10  -3   7    5.29    0.67
 -10   3  -7    3.34    0.55
  10   3   7    3.60    0.55
  10  -3  -7    4.45    0.30
  10  -3  -7    3.32    0.49
  10  -4   7   11.92    0.86
  10   4  -7    9.22    0.89
  10   4  -7    9.81    0.73
 -10  -4  -7   11.64    0.87
 -10   4  -7   10.24    0.84
  10  -4  -7   11.86    0.81
  10  -4  -7   11.26    0.56
  10   4   7    9.66    0.96
  10  -5   7   23.71    1.27
  10   5  -7   22.11    1.27
 -10  -5  -7   22.26    1.26
  10   5  -7   20.71    1.17
  10  -5  -7   18.04    1.06
  10   5   7   20.47    1.24
  10  -5  -7   20.12    0.90
 -10   6   7    8.47    0.61
  10   6  -7    6.70    0.83
  10  -6   7    9.02    0.96
  10   6  -7    7.62    0.86
  10   6   7    9.21    1.01
  10  -6  -7    8.99    0.85
 -10   7   7   28.40    1.44
  10  -7   7   30.23    1.64
  10   7  -7   26.35    1.54
 -10  -7  -7   27.43    1.55
  10   7  -7   29.09    1.63
  10   7   7   27.62    1.64
  10  -7  -7   27.41    1.41
  10   8  -7   18.98    1.41
  10  -8   7   18.36    1.33
 -10  -8  -7   19.45    1.37
  10  -8  -7   21.98    1.24
  10   8   7   23.55    1.59
  10  -9   7   -0.05    0.49
  10   9  -7    0.26    0.54
 -10  -9  -7    0.31    0.42
  10   9   7   -0.36    0.46
  10  -9  -7    0.20    0.39
  10  10  -7    3.81    0.94
 -10 -10  -7    3.39    0.80
  10 -10   7    3.43    0.84
  10  10   7    2.05    0.81
  10 -10  -7    2.17    0.73
 -10  10  -7    3.59    0.77
  10 -11   7    3.92    0.88
 -10 -11  -7    3.71    0.83
  10  11  -7    5.30    1.10
  10 -11  -7    4.65    0.98
 -10  11  -7    6.00    1.08
  10  11   7    3.88    0.96
  10   0  -8  121.41    3.49
 -10   0  -8  125.23    3.90
  10   0  -8  116.74    4.00
 -10   0  -8  122.76    3.90
  10   0   8  125.16    4.11
  10  -1   8   18.25    1.08
  10   1  -8   16.64    1.05
 -10  -1  -8   16.23    0.95
 -10  -1  -8   17.94    0.93
  10   1  -8   16.60    0.72
  10   1   8   15.47    1.06
 -10   1  -8   15.67    0.97
  10  -1  -8   17.23    1.01
 -10  -2  -8   31.57    1.46
  10   2  -8   29.82    1.48
  10  -2   8   32.80    1.52
  10   2  -8   33.26    1.24
 -10   2  -8   29.14    1.45
  10   2   8   27.89    1.48
  10  -2  -8   31.88    1.47
  10  -3   8   19.42    1.15
  10   3  -8   21.32    1.23
 -10  -3  -8   23.47    1.24
  10   3  -8   22.20    1.02
  10  -3  -8   20.39    1.12
  10   3   8   20.90    1.20
 -10   3  -8   18.85    1.16
  10  -4   8    1.65    0.44
  10   4  -8    1.08    0.42
  10   4  -8    1.36    0.35
 -10  -4  -8    2.14    0.50
  10  -4  -8    1.66    0.40
  10   4   8    1.84    0.45
 -10   4  -8    1.29    0.42
  10   5  -8   -0.05    0.30
  10   5  -8   -0.01    0.29
 -10  -5  -8    0.69    0.37
  10  -5   8    0.35    0.32
  10   5   8    0.22    0.35
  10  -5  -8   -0.20    0.24
 -10   5  -8   -0.24    0.34
  10   6  -8   24.47    1.45
  10   6  -8   21.00    1.27
  10  -6   8   24.84    1.40
 -10  -6  -8   21.36    1.34
 -10   6  -8   23.55    1.47
  10  -6  -8   22.30    1.24
  10   6   8   22.38    1.41
  10   7  -8   19.16    1.33
 -10  -7  -8   19.16    1.36
  10   7  -8   22.33    1.40
  10  -7   8   19.15    1.35
  10  -7  -8   16.82    1.11
  10   7   8   21.22    1.45
  10   8  -8    2.93    0.69
  10   8  -8    3.58    0.76
 -10  -8  -8    2.65    0.64
  10  -8   8    3.41    0.72
  10   8   8    3.00    0.74
  10  -8  -8    2.51    0.53
  10  -8  -8    3.58    0.75
  10   9  -8   10.95    1.26
  10  -9   8   12.58    1.32
 -10  -9  -8   12.71    1.29
  10  -9  -8   11.57    1.31
  10   9   8   15.38    1.61
  10 -10   8   11.54    1.40
 -10 -10  -8   10.14    1.26
  10  10  -8   11.03    1.39
  10 -10  -8   10.14    1.29
  10  10   8    9.81    1.35
  10 -11   8   -0.11    0.56
  10  11  -8    0.38    0.57
 -10 -11  -8    0.07    0.52
  10 -11  -8    0.03    0.57
  10  11   8   -0.16    0.60
  10   0  -9   -0.11    0.30
 -10   0  -9    0.19    0.28
  10   0   9   -0.05    0.25
 -10   0  -9   -0.41    0.26
  10   1  -9    2.03    0.47
 -10  -1  -9    3.22    0.47
 -10  -1  -9    2.81    0.48
  10  -1   9    2.83    0.53
  10   1  -9    2.86    0.31
 -10   1  -9    2.02    0.38
  10  -1  -9    2.22    0.47
  10   1   9    1.95    0.48
 -10   1  -9    2.96    0.49
 -10  -2  -9   10.54    0.83
  10   2  -9   11.08    1.01
  10   2  -9   11.52    0.64
  10  -2   9   12.24    0.92
 -10  -2  -9   11.04    0.71
  10  -2  -9    9.63    0.79
 -10   2  -9   10.45    0.85
  10   2   9    9.43    0.96
  10   3  -9    0.25    0.24
  10   3  -9    0.71    0.36
  10  -3   9    0.74    0.35
 -10  -3  -9   -0.09    0.26
 -10   3  -9    0.11    0.32
  10  -3  -9    0.42    0.30
  10   3   9    0.12    0.33
  10  -4   9    6.06    0.78
  10   4  -9    8.59    0.77
  10   4  -9    9.16    0.95
 -10  -4  -9    6.80    0.82
  10  -4  -9    8.44    0.84
 -10   4  -9    8.89    0.93
  10   4   9    8.42    0.91
  10   5  -9    5.47    0.81
  10   5  -9    6.05    0.71
 -10  -5  -9    6.83    0.87
  10  -5   9    5.16    0.74
 -10   5  -9    7.13    0.92
  10   5   9    7.28    0.93
  10  -5  -9    5.79    0.71
  10   6  -9   -0.05    0.32
  10  -6   9    0.10    0.39
 -10  -6  -9   -0.46    0.29
  10   6  -9   -0.38    0.29
 -10   6  -9   -0.27    0.35
  10   6   9   -0.23    0.31
  10  -6  -9    0.07    0.31
 -10  -7  -9    5.52    0.90
  10  -7   9    8.13    0.98
  10   7  -9    8.06    0.97
  10   7  -9    6.68    0.98
 -10   7  -9    5.02    0.87
  10   7   9    7.30    1.04
  10  -7  -9    6.27    0.78
  10  -8   9   11.63    1.24
  10   8  -9   13.53    1.30
 -10  -8  -9   11.88    1.27
  10   8  -9   13.26    1.35
  10   8   9   11.69    1.30
  10  -8  -9   13.34    1.41
  10  -8  -9   12.73    0.97
  10  -9   9    0.18    0.52
  10   9  -9    0.67    0.54
 -10  -9  -9    0.59    0.51
  10   9  -9    0.12    0.49
  10   9   9    0.85    0.65
  10  -9  -9    1.43    0.65
 -10 -10  -9    3.45    0.83
  10  10  -9    2.92    0.90
  10 -10   9    3.98    0.91
  10  10   9    3.75    0.98
  10 -10  -9    2.82    0.85
  10  11  -9    3.60    0.96
  10 -11   9    3.46    0.91
 -10 -11  -9    3.66    0.90
  10 -11  -9    2.87    0.88
  10  11   9    1.67    0.84
 -10   0 -10   42.50    1.78
 -10   0 -10   43.29    1.75
  10   0 -10   38.20    1.85
  10   0  10   42.03    1.90
  10   1 -10   24.42    1.38
  10  -1  10   26.25    1.39
 -10  -1 -10   26.68    1.32
 -10  -1 -10   24.78    1.24
  10   1  10   25.77    1.40
 -10   1 -10   25.46    1.33
  10  -1 -10   26.57    1.41
 -10   1 -10   23.90    1.18
 -10  -2 -10    5.28    0.69
 -10  -2 -10    4.98    0.56
  10   2 -10    6.07    0.80
  10  -2  10    5.18    0.73
  10   2 -10    5.47    0.48
  10   2  10    4.68    0.72
  10  -2 -10    5.90    0.74
 -10   2 -10    6.39    0.77
  10   3 -10   34.93    1.41
  10  -3  10   35.46    1.71
 -10  -3 -10   32.92    1.37
  10   3 -10   34.40    1.77
 -10  -3 -10   36.88    1.72
  10   3  10   34.07    1.70
 -10   3 -10   33.26    1.69
  10  -3 -10   32.41    1.59
  10   4 -10    4.12    0.55
  10   4 -10    5.74    0.82
  10  -4  10    4.24    0.71
 -10  -4 -10    5.26    0.74
  10   4  10    4.89    0.75
  10  -4 -10    5.05    0.69
 -10   4 -10    5.00    0.80
  10   5 -10    2.27    0.57
  10  -5  10    2.36    0.57
  10   5 -10    1.37    0.44
 -10  -5 -10    1.46    0.52
 -10   5 -10    1.29    0.52
  10   5  10    2.34    0.56
  10  -5 -10    2.18    0.52
 -10  -6 -10    9.09    1.08
  10  -6  10    7.82    0.96
  10   6 -10    7.71    0.89
  10   6 -10    9.25    1.13
  10   6  10    8.08    0.97
  10  -6 -10    8.35    0.90
 -10   6 -10    7.78    1.00
  10   7 -10   13.01    1.22
  10  -7  10   17.46    1.31
  10   7 -10   15.17    1.47
 -10  -7 -10   12.41    1.28
  10   7  10   15.99    1.48
 -10   7 -10   13.42    1.40
  10  -7 -10   13.40    1.04
  10   8 -10    1.84    0.64
 -10  -8 -10    2.00    0.72
  10   8 -10    1.44    0.64
  10  -8  10    3.24    0.80
  10   8  10    1.42    0.58
  10  -8 -10    1.94    0.69
  10  -9  10    6.34    1.06
 -10  -9 -10    5.92    1.02
  10   9 -10    4.60    0.95
  10   9 -10    4.34    0.92
  10  -9 -10    5.40    1.02
  10   9  10    4.10    0.93
  10 -10  10   11.20    1.38
  10  10 -10    8.88    1.20
 -10 -10 -10    9.76    1.25
  10  10  10   10.35    1.41
  10 -10 -10   10.41    1.36
  10   0  11   -0.06    0.32
  10   0 -11   -0.08    0.29
 -10   0 -11   -0.28    0.26
 -10   0 -11   -0.11    0.27
  10  -1  11    7.11    0.86
 -10  -1 -11    8.61    0.86
  10   1 -11    6.97    0.84
 -10  -1 -11    7.54    0.76
 -10   1 -11    7.79    0.84
 -10   1 -11    8.79    0.71
  10   1  11    8.57    0.95
  10  -1 -11    8.52    0.91
 -10  -2 -11   18.31    1.03
  10  -2  11   18.42    1.22
  10   2 -11   18.80    1.27
 -10  -2 -11   20.82    1.19
 -10   2 -11   17.82    1.20
  10   2  11   16.96    1.19
  10  -2 -11   18.97    1.18
  10  -3  11    4.65    0.71
  10   3 -11    6.79    0.90
 -10  -3 -11    7.01    0.66
 -10  -3 -11    5.68    0.78
  10   3  11    7.32    0.88
  10  -3 -11    5.78    0.74
 -10   3 -11    6.17    0.82
  10   4 -11    4.68    0.59
 -10  -4 -11    3.13    0.66
  10   4 -11    4.44    0.75
  10  -4  11    5.32    0.76
  10   4  11    6.08    0.84
 -10   4 -11    3.62    0.72
  10  -4 -11    5.09    0.71
 -10  -5 -11   32.25    1.80
  10  -5  11   32.03    1.73
  10   5 -11   34.81    1.91
  10   5 -11   34.23    1.59
  10  -5 -11   30.90    1.63
 -10   5 -11   32.12    1.84
  10   5  11   32.45    1.75
  10  -6  11   -0.03    0.46
  10   6 -11   -0.27    0.35
 -10  -6 -11   -0.43    0.45
  10   6 -11   -0.48    0.41
 -10   6 -11   -0.35    0.41
  10  -6 -11    0.38    0.39
  10   6  11    0.19    0.42
  10  -7  11    5.87    0.89
  10   7 -11    6.13    0.99
  10   7 -11    5.36    0.83
 -10  -7 -11    6.11    0.96
  10   7  11    6.49    0.99
  10  -7 -11    5.78    0.80
 -10   7 -11    5.24    0.91
  10  -7 -11    5.83    0.97
  10   8 -11    5.58    0.93
 -10  -8 -11    6.97    1.09
  10   8 -11    7.09    1.08
  10  -8  11    5.43    0.90
  10  -8 -11    5.49    0.99
  10   8  11    4.63    0.90
 -10   8 -11    5.84    1.03
 -10  -9 -11    1.90    0.75
  10  -9  11    1.95    0.69
  10   9 -11    1.21    0.61
  10   9 -11    1.20    0.63
  10  -9 -11    1.90    0.73
  10   9  11    0.63    0.63
  10 -10  11    1.98    0.74
 -10 -10 -11    1.80    0.77
  10  10 -11    0.13    0.64
  10 -10 -11    1.35    0.70
  10  10  11    0.83    0.72
  10   0 -12    8.62    0.93
  10   0  12    8.32    0.93
 -10   0 -12   10.56    0.97
  10  -1  12    4.21    0.72
 -10  -1 -12    3.14    0.55
  10   1 -12    5.09    0.80
 -10  -1 -12    2.91    0.54
 -10   1 -12    3.36    0.52
  10  -1 -12    3.84    0.66
  10   1  12    3.74    0.67
 -10   1 -12    4.09    0.66
 -10  -2 -12    1.35    0.51
  10   2 -12    1.49    0.55
  10  -2  12    1.56    0.52
 -10  -2 -12    2.63    0.50
  10  -2 -12    0.97    0.44
 -10   2 -12    2.46    0.56
 -10   2 -12    1.53    0.39
  10   2  12    1.71    0.56
  10  -3  12   11.22    1.13
 -10  -3 -12   10.96    1.09
  10   3 -12   12.14    1.21
  10   3  12   13.44    1.05
  10  -3 -12   11.38    1.08
 -10   3 -12   11.12    1.11
 -10  -4 -12    2.27    0.62
  10   4 -12    3.22    0.74
  10  -4  12    2.36    0.58
 -10   4 -12    3.57    0.75
  10  -4 -12    2.51    0.60
  10   4  12    2.40    0.61
  10  -5  12    2.60    0.68
 -10  -5 -12    1.99    0.65
  10   5 -12    1.62    0.65
  10  -5 -12    1.53    0.54
  10   5  12    1.67    0.54
 -10   5 -12    0.45    0.55
  10   6 -12    6.93    0.83
  10   6 -12    6.18    1.00
  10  -6  12    5.73    0.93
 -10  -6 -12    6.43    1.00
 -10   6 -12    3.46    0.77
  10   6  12    7.92    1.01
  10  -6 -12    6.35    0.84
  10   7 -12    4.73    0.93
  10   7 -12    3.23    0.70
  10  -7  12    3.85    0.77
 -10  -7 -12    5.06    0.94
 -10   7 -12    3.06    0.80
  10   7  12    3.42    0.77
  10  -7 -12    3.69    0.66
  10  -7 -12    2.96    0.81
  10   8 -12    0.22    0.52
  10  -8  12   -0.83    0.34
 -10  -8 -12    1.11    0.67
  10   8 -12    0.37    0.58
 -10   8 -12   -0.52    0.43
  10  -8 -12    0.33    0.61
  10   8  12    0.47    0.52
 -10  -9 -12    6.10    1.11
  10   9 -12    3.63    0.87
  10   9 -12    5.66    1.12
  10  -9  12    3.27    0.84
  10  -9 -12    4.74    1.00
  10   9  12    3.54    0.91
  10  10 -12    4.69    1.09
  10  10 -12    4.87    1.05
 -10 -10 -12    6.31    1.13
 -10   0 -13   -0.34    0.33
  10   0  13   -0.27    0.35
  10   0 -13    0.53    0.44
  10   1 -13   13.99    1.28
 -10  -1 -13   11.83    0.93
 -10  -1 -13   13.80    1.04
  10  -1  13   10.16    1.08
 -10   1 -13   12.17    0.89
  10   1  13   13.45    1.07
  10  -1 -13   12.62    1.22
 -10   1 -13   13.09    1.19
  10  -2  13    9.99    1.03
  10   2 -13    9.60    1.09
 -10  -2 -13    9.42    0.99
  10  -2 -13    9.79    1.04
 -10   2 -13   11.91    1.20
  10   2  13   13.13    1.20
 -10   2 -13   12.33    0.85
  10   3 -13    0.86    0.54
  10  -3  13    0.59    0.46
 -10  -3 -13    1.08    0.53
  10   3  13    1.02    0.49
  10  -3 -13    0.01    0.34
 -10   3 -13    0.23    0.47
  10  -4  13    8.57    1.02
 -10  -4 -13    6.93    0.98
  10   4 -13    9.15    1.16
  10   4  13    7.00    0.91
 -10   4 -13    9.49    1.14
  10  -4 -13    6.45    0.87
  10  -5  13   10.92    1.21
 -10  -5 -13   12.36    1.32
  10   5 -13    9.09    1.20
  10  -5 -13   12.34    1.15
  10   5  13    9.39    1.10
 -10   5 -13   10.23    1.25
 -10  -6 -13    2.68    0.77
  10  -6  13    2.60    0.73
  10   6 -13    2.70    0.76
 -10   6 -13    2.56    0.75
  10  -6 -13    2.54    0.61
  10  -6 -13    2.30    0.70
  10   6  13    2.05    0.62
 -10  -7 -13    3.21    0.85
  10  -7  13    4.50    0.86
  10   7 -13    6.35    1.09
 -10   7 -13    3.91    0.88
  10   7  13    2.17    0.69
  10  -7 -13    4.07    0.92
  10  -8  13    7.63    1.14
 -10  -8 -13    5.90    1.06
  10   8 -13    7.39    1.19
  10  -8 -13    7.50    1.20
  10   8  13    5.96    1.04
 -10   8 -13    7.66    1.22
 -10  -9 -13    0.02    0.58
  10   9 -13    0.82    0.71
  10  -9  13    1.30    0.71
 -10   9 -13    1.01    0.66
  10  -9 -13    1.10    0.77
  10   0  14   22.83    1.41
  10   0 -14   19.38    1.40
 -10   0 -14   23.04    1.40
 -10  -1 -14    0.56    0.43
  10   1 -14    0.40    0.52
 -10  -1 -14    0.54    0.44
  10  -1  14   -0.21    0.35
 -10   1 -14    0.28    0.46
  10  -1 -14   -0.06    0.45
 -10   1 -14    0.43    0.37
  10   1  14   -0.10    0.40
  10   2 -14    6.93    0.98
  10  -2  14    6.05    0.87
 -10  -2 -14    7.52    0.82
 -10  -2 -14   10.57    1.13
  10  -2 -14    7.52    0.96
 -10   2 -14    6.39    0.92
  10  -3  14    3.49    0.72
 -10  -3 -14    5.45    0.87
  10   3 -14    3.95    0.82
 -10   3 -14    3.42    0.72
  10  -3 -14    4.33    0.76
  10  -4  14    0.56    0.44
  10   4 -14    0.94    0.56
 -10  -4 -14    1.29    0.59
  10  -4 -14    1.01    0.46
 -10   4 -14    0.61    0.54
  10   5 -14    0.34    0.54
  10  -5  14   -0.55    0.42
 -10  -5 -14    0.38    0.62
  10  -5 -14    0.11    0.44
  10  -5 -14    0.13    0.59
 -10   5 -14    0.56    0.59
  10   6 -14    1.44    0.65
 -10  -6 -14    1.51    0.69
  10  -6  14    2.41    0.75
  10  -6 -14    1.42    0.70
 -10   6 -14    4.33    0.93
  10  -6 -14    1.86    0.58
  10  -7  14    6.08    0.97
  10   7 -14    7.40    1.21
 -10  -7 -14    4.77    1.06
 -10   7 -14    8.62    1.28
  10  -7 -14    6.68    1.14
 -10  -8 -14    0.88    0.70
  10  -8  14    0.54    0.65
  10   8 -14   -0.08    0.54
  10  -8 -14   -0.65    0.53
 -10   8 -14    0.83    0.69
 -10   0 -15   -0.48    0.39
  10   0 -15   -0.12    0.47
  10   0  15    0.11    0.46
  10   1 -15    3.24    0.75
 -10  -1 -15    5.25    0.79
  10  -1  15    3.95    0.74
 -10  -1 -15    4.41    0.75
  10  -1 -15    4.03    0.77
 -10   1 -15    5.17    0.74
 -10   1 -15    4.97    0.84
  10   2 -15    8.53    1.16
  10  -2  15   10.55    1.14
 -10  -2 -15   10.84    1.16
  10  -2 -15    8.77    1.08
 -10   2 -15    8.85    1.10
  10  -3  15    0.52    0.47
 -10  -3 -15   -0.06    0.48
  10   3 -15    0.05    0.44
  10  -3 -15    0.21    0.46
 -10   3 -15    0.49    0.41
 -10  -4 -15    1.20    0.69
  10   4 -15    3.35    0.85
  10  -4  15    1.52    0.64
 -10   4 -15    2.15    0.73
  10  -4 -15    0.94    0.54
 -10  -5 -15    6.88    1.13
  10   5 -15    6.83    1.15
  10  -5  15    7.48    1.08
  10  -5 -15    7.09    0.97
 -10   5 -15    7.93    1.19
  10  -5 -15    7.51    1.21
 -10  -6 -15    4.04    0.99
  10   6 -15    4.13    1.03
  10  -6  15    2.64    0.77
 -10   6 -15    5.35    1.04
  10  -6 -15    3.79    0.97
  10  -6 -15    5.02    0.84
  10   7 -15    1.11    0.79
  10  -7  15    0.97    0.66
 -10  -7 -15    1.85    0.76
  10  -7 -15    3.57    0.99
 -10   7 -15    3.54    0.96
 -10  -8 -15    5.58    1.10
  10  -8  15    5.12    1.02
  10   8 -15    5.34    1.11
  10  -8 -15    4.74    1.08
 -10   8 -15    5.15    1.18
 -10   0 -16    6.40    0.92
  10   0 -16    6.94    1.06
  10   1 -16    1.72    0.67
 -10  -1 -16    0.66    0.49
 -10  -1 -16    1.69    0.61
  10  -1 -16   -0.31    0.49
 -10   1 -16    0.98    0.57
  10  -2  16    2.46    0.68
  10   2 -16    2.40    0.75
 -10  -2 -16    2.30    0.67
  10   2  16    1.70    0.60
 -10   2 -16    2.03    0.67
  10  -2 -16    1.82    0.63
  10   3 -16    5.69    1.04
  10  -3  16    6.79    0.99
 -10  -3 -16    5.52    0.94
  10  -3 -16    5.22    1.00
 -10   3 -16    6.78    1.07
  10  -3 -16    6.20    0.93
  10  -4  16    1.32    0.63
 -10  -4 -16    0.47    0.58
  10   4 -16    1.08    0.70
 -10   4 -16    0.11    0.51
  10  -4 -16    0.24    0.51
  10  -4 -16    1.22    0.72
 -10  -5 -16    0.10    0.54
  10   5 -16    0.37    0.70
  10  -5  16   -0.25    0.51
  10  -5 -16    0.08    0.50
  10  -5 -16    0.70    0.69
 -10   5 -16    0.22    0.56
  10   6 -16    2.54    0.85
  10  -6  16    3.72    0.91
 -10  -6 -16    1.79    0.80
 -10   6 -16    2.19    0.82
  10  -6 -16    2.87    0.85
  10  -7  16   -0.62    0.59
  10   7 -16    2.50    0.92
 -10  -7 -16    1.50    0.86
 -10   7 -16    0.32    0.63
  10  -7 -16    1.50    0.80
  10   0 -17   -0.04    0.45
 -10   0 -17   -0.40    0.49
 -10  -1 -17    3.31    0.73
 -10  -1 -17    3.25    0.74
  10   1 -17    2.98    0.78
 -10   1 -17    2.74    0.77
  10  -1 -17    3.21    0.83
  10   2 -17    3.77    0.95
 -10  -2 -17    4.00    0.87
  10  -2  17    3.04    0.72
  10  -2 -17    4.40    0.92
 -10   2 -17    3.28    0.79
  10  -2 -17    4.57    0.93
 -10  -3 -17   -0.67    0.49
  10   3 -17   -0.67    0.55
  10  -3  17    0.38    0.53
 -10   3 -17    0.42    0.65
  10  -3 -17    0.31    0.55
  10  -3 -17   -0.11    0.51
  10   4 -17    2.08    0.80
  10  -4  17    2.56    0.73
 -10  -4 -17    1.42    0.75
  10  -4 -17    3.14    0.88
  10  -4 -17    1.87    0.71
 -10   4 -17    1.79    0.75
  10   5 -17    5.62    1.13
  10  -5  17    7.11    1.08
 -10  -5 -17    5.13    1.09
 -10   5 -17    6.43    1.17
  10  -5 -17    5.53    0.96
  10  -5 -17    6.19    1.14
 -10  -6 -17    0.09    0.74
  10   6 -17   -0.22    0.65
  10  -6  17    0.60    0.67
 -10   6 -17    0.55    0.68
  10  -6 -17    0.88    0.81
 -10   0 -18    2.55    0.78
  10   0 -18    2.13    0.72
  10   0 -18    2.14    0.73
  10   1 -18    1.04    0.71
 -10  -1 -18    1.08    0.61
 -10   1 -18    1.34    0.67
  10  -1 -18    1.41    0.72
  10  -1 -18    1.05    0.69
  10   2 -18   -0.35    0.59
 -10  -2 -18    0.83    0.62
  10  -2 -18    0.55    0.64
 -10   2 -18   -0.08    0.56
  10  -2 -18    0.32    0.51
 -10  -3 -18    3.68    0.92
  10   3 -18    3.77    0.90
  10  -3 -18    3.97    0.97
  10  -3 -18    4.85    0.93
 -10   3 -18    3.01    0.86
  10  -4  18    1.96    0.79
  10   4 -18    1.75    0.74
 -10  -4 -18    2.13    0.86
 -10   4 -18    1.45    0.75
  10  -4 -18    0.93    0.68
  10  -4 -18    2.31    0.88
  10   5 -18    0.08    0.66
 -10  -5 -18   -1.23    0.62
  10  -5  18    1.11    0.69
 -10   5 -18    0.53    0.72
  10  -5 -18    0.51    0.65
  10  -5 -18    1.81    0.89
 -10   0 -19   -0.53    0.51
  10   0 -19   -0.34    0.60
  10   1 -19   -0.23    0.64
 -10   1 -19    2.02    0.81
  10  -1 -19    1.24    0.71
  10  -1 -19    1.17    0.67
  10   2 -19    1.28    0.81
 -10  -2 -19    1.13    0.73
  10  -2 -19    2.14    0.78
 -10   2 -19    0.14    0.63
  10  -2 -19    0.67    0.67
  10   3 -19   -1.16    0.57
 -10  -3 -19    0.12    0.63
  10  -3 -19    0.21    0.63
  10  -3 -19   -0.14    0.61
 -10   3 -19    0.62    0.75
  10   4 -19    1.56    0.85
 -10   4 -19    2.89    0.98
  10  -4 -19    1.90    0.75
  10   0 -20    5.48    1.10
  10   1 -20   -0.39    0.55
  10  -1 -20    0.69    0.74
 -10   1 -20    1.71    0.79
  11   0   0    0.31    0.20
  11  -1   0   36.02    1.39
  11   1   0   34.80    1.31
  11   1   0   35.06    1.39
  11   2   0  104.93    3.41
  11  -2   0  110.83    3.43
  11   3   0   20.83    1.02
  11   3   0   19.41    0.87
  11  -3   0   20.49    0.99
  11   4   0   57.72    2.16
  11  -4   0   57.68    2.07
  11   4   0   56.88    1.94
  11  -5   0   76.14    2.65
  11   5   0   76.64    2.44
  11   5   0   73.28    2.76
  11   6   0    4.23    0.47
  11  -6   0    4.48    0.59
  11   6   0    2.92    0.56
 -11   7   0   17.48    1.08
  11   7   0   17.37    1.20
 -11   8   0   18.76    1.22
  11   8   0   18.48    1.34
  11   9   0    0.86    0.54
 -11   9   0    0.51    0.44
 -11  10   0    5.24    0.87
  11  10   0    3.66    0.87
  11  11   0    5.63    1.15
 -11  11   0    5.18    0.92
 -11  12   0    1.40    0.68
  11  12   0    4.26    1.08
  11   0  -1  114.98    3.51
  11   0  -1  114.05    3.51
  11   0   1  111.74    3.57
  11   1  -1   36.54    1.36
  11  -1   1   35.68    1.44
  11   1  -1   36.18    1.38
  11   1   1   35.27    1.42
  11  -1  -1   36.69    1.39
  11  -2   1   61.43    2.18
  11   2  -1   63.08    2.14
  11   2   1   60.70    2.17
  11   2   1   62.55    2.01
  11  -2  -1   61.05    2.12
  11  -3   1   23.99    1.13
  11   3  -1   24.15    1.14
  11   3  -1   25.78    1.07
  11   3   1   25.93    0.99
  11   3   1   26.10    1.20
  11  -3  -1   24.75    1.10
  11   4  -1    3.21    0.48
  11  -4   1    3.63    0.50
  11   4  -1    3.88    0.44
  11   4   1    3.39    0.36
  11  -4  -1    3.59    0.44
  11   4   1    2.93    0.49
  11   5  -1    2.49    0.38
  11  -5   1    2.59    0.44
  11   5  -1    2.66    0.51
  11   5   1    2.77    0.33
  11   5   1    2.31    0.47
  11  -5  -1    2.08    0.39
  11   6  -1   11.65    0.92
  11  -6   1   11.65    0.83
  11   6   1   12.45    1.12
  11  -6  -1   12.04    0.82
 -11  -7  -1   13.10    0.92
 -11   7   1   13.99    0.94
  11   7  -1   12.37    1.18
 -11   7  -1   15.86    1.05
  11   7   1   14.51    1.31
  11   8  -1    3.10    0.73
 -11   8   1    2.03    0.53
 -11  -8  -1    1.58    0.47
  11   8   1    1.84    0.62
 -11   8  -1    2.05    0.53
  11   9  -1    9.85    1.25
 -11  -9  -1    9.13    0.94
 -11   9   1    6.93    0.90
 -11   9  -1   12.35    1.18
  11   9   1    8.97    1.21
 -11  10   1   14.87    1.38
  11  10  -1   20.14    1.63
  11  10   1   19.20    1.54
 -11  10  -1   17.74    1.37
 -11  11   1   -0.66    0.42
  11  11  -1   -0.10    0.57
 -11  11  -1    0.36    0.53
  11  11   1    0.05    0.53
 -11  12   1    5.65    1.04
  11  12  -1    8.80    1.44
 -11  12  -1    5.55    0.98
  11  12   1    5.45    1.19
  11   0  -2   -0.16    0.14
  11   0   2    0.16    0.18
  11   0  -2    0.13    0.15
  11  -1   2   59.98    2.19
  11   1  -2   63.42    2.11
  11   1  -2   61.75    2.05
  11  -1  -2   59.67    2.12
  11   1   2   61.13    2.18
  11  -1  -2   61.52    2.04
  11  -2   2    0.89    0.31
  11   2  -2    0.53    0.21
  11   2  -2    1.20    0.28
  11   2   2    0.84    0.26
  11  -2  -2    1.18    0.26
  11  -3   2    0.75    0.27
  11   3  -2    0.68    0.25
  11  -3  -2    0.80    0.23
  11   3   2    0.49    0.16
  11   3   2    0.29    0.26
  11  -4   2    3.59    0.51
  11   4  -2    2.80    0.44
  11   4  -2    3.65    0.45
  11  -4  -2    2.84    0.40
  11   4   2    3.36    0.33
  11   4   2    4.08    0.56
  11  -5   2   60.77    2.26
 -11  -5  -2   57.70    2.21
  11   5  -2   56.68    2.12
  11   5  -2   62.38    2.36
  11   5   2   59.06    1.88
  11  -5  -2   62.78    2.17
  11   5   2   59.60    2.34
  11   6  -2    9.26    0.67
  11  -6   2    8.89    0.87
 -11  -6  -2    9.76    0.76
  11   6  -2    7.69    0.90
  11   6   2    8.61    0.95
  11  -6  -2    8.28    0.76
 -11   7   2   22.59    1.24
  11  -7   2   23.24    1.30
  11   7  -2   22.98    1.41
 -11  -7  -2   22.72    1.26
 -11   7  -2   23.51    1.35
  11   7   2   25.14    1.47
 -11   8   2   34.20    1.66
 -11  -8  -2   35.29    1.67
  11   8  -2   34.35    1.91
 -11   8  -2   33.97    1.75
  11   8   2   35.09    1.92
  11   9  -2    0.38    0.52
 -11  -9  -2    0.84    0.42
 -11   9   2   -0.37    0.36
 -11   9  -2    0.73    0.47
  11   9   2    0.67    0.53
  11  10  -2    1.36    0.66
 -11 -10  -2    3.27    0.65
 -11  10   2    3.62    0.76
  11  10   2    3.11    0.81
 -11  10  -2    3.46    0.73
  11  11  -2   12.07    1.49
 -11  11   2   10.10    1.22
 -11 -11  -2    8.35    1.00
  11  11   2    7.62    1.28
 -11  11  -2    8.41    1.13
 -11  12   2    4.81    0.98
  11  12  -2    5.50    1.21
 -11  12  -2    2.77    0.89
  11  12   2    4.36    1.07
  11   0  -3   95.11    2.84
  11   0  -3   92.36    2.97
  11   0   3   86.20    3.03
  11  -1   3    0.61    0.28
  11   1  -3    0.12    0.16
  11   1  -3   -0.06    0.14
  11   1   3    0.15    0.18
  11  -1  -3    0.21    0.19
  11  -1  -3   -0.03    0.12
  11   2  -3   17.75    0.85
  11   2  -3   17.35    0.88
  11  -2   3   16.10    0.92
  11  -2  -3   17.52    0.90
  11   2   3   17.56    0.94
  11  -2  -3   15.56    0.77
  11  -3   3   47.46    1.80
  11   3  -3   44.92    1.71
 -11  -3  -3   43.36    1.72
  11   3  -3   47.11    1.72
  11  -3  -3   45.61    1.60
  11   3   3   40.49    1.45
  11   3   3   42.76    1.78
  11  -3  -3   46.32    1.74
 -11  -4  -3    3.92    0.53
  11  -4   3    3.36    0.49
  11   4  -3    3.93    0.50
  11   4  -3    3.70    0.52
  11  -4  -3    4.15    0.44
  11   4   3    3.69    0.56
  11   4   3    3.25    0.30
  11   5  -3    4.31    0.54
 -11  -5  -3    4.02    0.56
  11   5  -3    5.36    0.68
  11  -5   3    4.09    0.57
  11   5   3    4.59    0.67
  11  -5  -3    4.31    0.52
  11   6  -3   19.70    1.07
  11   6  -3   21.20    1.27
  11  -6   3   19.89    1.19
 -11  -6  -3   18.71    1.11
  11  -6  -3   23.11    1.10
  11   6   3   20.86    1.27
  11  -7   3   14.43    1.05
  11   7  -3   15.55    1.18
 -11   7   3   17.53    1.05
 -11  -7  -3   16.07    1.04
  11   7  -3   15.87    0.96
  11   7   3   16.04    1.22
 -11  -8  -3    0.48    0.33
  11   8  -3    0.26    0.48
 -11   8   3    0.76    0.40
 -11   8  -3    0.86    0.48
  11   8   3    0.65    0.46
 -11  -9  -3   14.46    1.10
 -11   9   3   16.49    1.16
  11   9  -3   16.19    1.52
 -11   9  -3   15.61    1.20
  11   9   3   13.48    1.46
 -11  10   3   18.79    1.33
  11  10  -3   19.58    1.56
 -11 -10  -3   18.48    1.32
  11 -10  -3   18.82    1.34
  11  10   3   21.33    1.70
 -11  10  -3   14.55    1.43
  11  11  -3    0.22    0.62
 -11  11   3    0.18    0.48
 -11 -11  -3   -0.03    0.42
  11  11   3   -0.11    0.52
 -11  11  -3    0.17    0.54
  11  12  -3    5.84    1.24
 -11  12   3    7.47    1.11
  11  12   3    8.80    1.45
 -11  12  -3    6.91    1.12
  11   0  -4    0.22    0.14
  11   0   4    0.00    0.18
  11   0  -4   -0.18    0.17
  11   1  -4   17.53    0.77
  11   1  -4   14.34    0.85
  11  -1   4   14.50    0.90
  11  -1  -4   15.37    0.85
  11   1   4   15.80    0.92
  11  -1  -4   17.55    0.73
 -11  -2  -4   75.81    2.57
  11   2  -4   74.92    2.43
  11  -2   4   70.22    2.60
  11   2  -4   74.93    2.55
  11  -2  -4   73.45    2.54
  11  -2  -4   71.56    2.33
  11   2   4   76.64    2.65
  11   3  -4    9.82    0.70
 -11  -3  -4   10.00    0.71
  11  -3   4   10.33    0.74
  11   3  -4    9.77    0.67
  11  -3  -4   10.11    0.59
  11  -3  -4   10.24    0.70
  11   3   4   11.34    0.80
  11   4  -4   41.66    1.65
  11   4  -4   38.52    1.63
  11  -4   4   38.33    1.65
 -11  -4  -4   40.41    1.66
  11  -4  -4   39.05    1.45
  11   4   4   36.74    1.68
  11   4   4   37.59    1.26
  11  -4  -4   39.08    1.60
  11  -5   4   54.28    2.22
 -11  -5  -4   60.12    2.29
  11   5  -4   56.11    2.31
  11   5  -4   59.34    2.31
  11  -5  -4   59.99    2.20
  11   5   4   58.65    2.35
  11  -5  -4   59.46    2.06
  11  -6   4    3.72    0.61
 -11  -6  -4    3.76    0.61
  11   6  -4    4.01    0.57
  11   6  -4    4.14    0.67
  11  -6  -4    4.17    0.57
  11   6   4    3.79    0.69
  11  -6  -4    3.86    0.50
  11  -7   4   13.45    1.05
  11   7  -4   14.85    1.11
 -11  -7  -4   13.91    1.02
  11   7  -4   13.25    0.93
  11   7   4   15.79    1.41
  11  -8   4   17.86    1.29
  11   8  -4   20.04    1.42
 -11  -8  -4   18.98    1.24
 -11   8  -4   16.97    1.26
  11   8   4   18.38    1.42
 -11  -9  -4    1.99    0.56
  11   9  -4    2.38    0.73
 -11   9   4    1.88    0.53
  11   9   4    1.90    0.71
 -11   9  -4    1.77    0.60
 -11 -10  -4    1.30    0.57
  11  10  -4    1.90    0.71
 -11  10   4    2.48    0.64
  11 -10  -4    1.46    0.55
  11  10   4    1.43    0.74
 -11  10  -4    2.28    0.68
  11 -10  -4    0.80    0.47
 -11  11   4    4.90    0.86
 -11 -11  -4    5.14    0.87
  11  11  -4    6.88    1.19
  11  11   4    5.67    1.14
 -11  11  -4    6.85    1.07
 -11  12   4    4.30    0.92
  11  12  -4    2.97    0.94
 -11  12  -4    4.20    0.99
  11  12   4    4.49    1.12
  11   0  -5  112.27    3.67
  11   0  -5  116.57    3.40
  11   0   5  113.46    3.78
  11   1  -5   14.82    0.84
  11   1  -5   13.39    0.66
  11  -1   5   12.36    0.85
  11  -1  -5   13.06    0.80
  11  -1  -5   13.76    0.60
  11   1   5   12.04    0.84
  11   2  -5   25.24    1.07
  11   2  -5   23.90    1.17
  11  -2   5   25.01    1.26
 -11  -2  -5   23.86    1.16
  11  -2  -5   24.78    1.18
  11   2   5   24.10    1.24
  11  -2  -5   25.89    0.96
  11  -3   5   15.85    0.96
  11   3  -5   17.49    0.90
 -11  -3  -5   15.65    0.93
  11   3  -5   17.03    0.96
  11  -3  -5   16.17    0.94
  11  -3  -5   16.21    0.75
  11   3   5   16.28    0.99
  11   4  -5   10.89    0.78
  11   4  -5   10.44    0.76
  11  -4   5   11.56    0.83
 -11  -4  -5   11.77    0.84
  11   4   5   11.06    0.84
  11   4   5   11.24    0.49
  11  -4  -5   10.58    0.62
  11  -4  -5   10.63    0.75
  11  -5   5    0.88    0.39
 -11  -5  -5    0.60    0.34
  11   5  -5    0.49    0.34
  11  -5  -5    1.01    0.37
  11  -5  -5    0.64    0.27
  11   5   5    1.07    0.40
  11  -6   5    1.63    0.44
  11   6  -5    1.87    0.49
 -11  -6  -5    0.62    0.34
  11  -6  -5    1.59    0.42
  11   6   5    1.17    0.44
  11  -6  -5    1.55    0.34
 -11  -7  -5    4.32    0.69
  11  -7   5    4.75    0.72
  11   7  -5    3.38    0.64
  11   7  -5    5.04    0.69
 -11   7   5    4.15    0.57
  11   7   5    3.29    0.68
  11  -7  -5    3.79    0.59
 -11   8   5    2.80    0.54
 -11  -8  -5    2.66    0.58
  11   8  -5    2.38    0.58
  11  -8   5    1.92    0.57
  11   8  -5    3.00    0.73
  11  -8  -5    3.00    0.60
  11   8   5    3.55    0.77
  11   9  -5    4.36    0.85
  11  -9   5    6.46    0.98
 -11  -9  -5    5.00    0.81
  11  -9  -5    7.20    0.86
  11  -9  -5    6.60    0.94
  11   9   5    6.26    1.05
 -11   9  -5    5.65    0.92
  11  10  -5   14.44    1.52
  11 -10   5   13.00    1.37
 -11 -10  -5   12.59    1.29
  11  10   5   15.20    1.68
  11 -10  -5   10.12    1.19
 -11  10  -5   14.06    1.38
 -11 -11  -5    0.10    0.46
  11  11  -5    0.21    0.57
  11 -11  -5    0.30    0.47
  11  11   5    0.46    0.66
 -11  11  -5   -0.50    0.51
  11   0   6   -0.32    0.17
  11   0  -6    0.36    0.25
  11   0  -6   -0.09    0.12
  11   1  -6   19.52    0.83
 -11  -1  -6   18.85    0.99
  11   1  -6   19.11    1.03
  11  -1   6   19.27    1.11
  11  -1  -6   19.00    0.73
  11  -1  -6   18.06    1.00
  11   1   6   17.83    1.07
 -11  -2  -6   48.48    1.93
  11   2  -6   49.91    1.98
  11   2  -6   52.28    1.79
  11  -2   6   50.85    2.04
  11   2   6   50.71    2.06
  11  -2  -6   49.54    1.60
  11  -2  -6   49.82    1.95
  11   3  -6    7.76    0.59
 -11  -3  -6    7.62    0.73
  11  -3   6    7.96    0.77
  11   3  -6    5.95    0.67
  11   3   6    7.90    0.83
  11  -3  -6    7.17    0.45
  11  -3  -6    7.82    0.64
  11   4  -6   20.62    1.18
  11   4  -6   22.20    1.13
  11  -4   6   22.29    1.21
 -11  -4  -6   20.80    1.16
  11  -4  -6   21.35    0.91
  11  -4  -6   21.02    1.12
  11   4   6   21.29    1.24
  11  -5   6   34.83    1.64
  11   5  -6   35.75    1.67
 -11  -5  -6   31.14    1.59
  11   5  -6   37.43    1.66
  11  -5  -6   34.22    1.34
  11  -5  -6   36.85    1.60
  11   5   6   34.75    1.73
  11   6  -6   14.65    1.07
 -11  -6  -6   13.71    1.01
  11  -6   6   14.59    1.05
  11  -6  -6   13.07    0.93
  11   6   6   15.62    1.14
  11  -6  -6   13.91    0.81
 -11   7   6   21.12    1.10
 -11  -7  -6   22.07    1.37
  11  -7   6   21.25    1.38
  11   7  -6   19.60    1.31
  11  -7  -6   18.80    1.17
  11   7   6   21.38    1.43
  11   8  -6   20.35    1.47
  11   8  -6   22.42    1.37
 -11   8   6   20.89    1.18
  11  -8   6   24.16    1.50
 -11  -8  -6   22.00    1.43
  11  -8  -6   21.97    1.28
  11   8   6   20.45    1.49
  11  -9   6    0.63    0.52
  11   9  -6   -0.41    0.39
 -11  -9  -6    0.29    0.42
  11  -9  -6    0.43    0.40
  11  -9  -6    0.13    0.46
  11   9   6    0.31    0.53
  11  10  -6    1.85    0.77
 -11 -10  -6    2.03    0.61
  11 -10   6    2.39    0.75
  11 -10  -6    1.99    0.62
  11  10   6    3.02    0.83
 -11 -11  -6    4.53    0.86
  11  11  -6    5.48    1.08
  11 -11   6    6.09    1.09
 -11  11  -6    2.59    0.81
  11  11   6    5.29    1.10
  11 -11  -6    4.36    0.93
  11   0   7   68.96    2.61
  11   0  -7   68.57    2.53
  11   0  -7   70.01    2.13
  11   1  -7   10.44    0.57
  11  -1   7   11.07    1.00
  11   1  -7    9.98    0.77
 -11  -1  -7   11.42    0.75
  11  -1  -7   10.86    0.78
  11  -1  -7   10.52    0.47
  11   1   7   10.56    0.86
  11   2  -7   25.89    1.32
  11  -2   7   27.50    1.39
  11   2  -7   25.21    1.10
 -11  -2  -7   26.82    1.30
  11  -2  -7   26.53    0.90
  11  -2  -7   26.55    1.31
  11   2   7   26.61    1.38
  11  -3   7   14.41    0.96
  11   3  -7   14.13    0.82
  11   3  -7   15.20    0.99
 -11  -3  -7   13.85    0.94
  11   3   7   13.99    0.97
  11  -3  -7   12.74    0.88
  11  -3  -7   14.85    0.62
  11  -4   7    1.97    0.47
 -11  -4  -7    1.20    0.37
  11   4  -7    2.90    0.55
  11   4  -7    1.53    0.38
  11   4   7    1.80    0.48
  11  -4  -7    2.47    0.30
  11  -4  -7    2.46    0.48
 -11  -5  -7    1.07    0.43
  11  -5   7    1.92    0.50
  11   5  -7    0.77    0.36
  11   5  -7    1.07    0.39
  11  -5  -7    1.16    0.28
  11   5   7    0.34    0.35
  11  -5  -7    1.25    0.39
  11  -6   7   28.73    1.54
 -11  -6  -7   27.90    1.54
  11   6  -7   28.82    1.50
  11   6  -7   29.40    1.57
  11   6   7   25.43    1.55
  11  -6  -7   27.02    1.20
  11  -6  -7   28.13    1.42
  11   7  -7   21.25    1.38
 -11  -7  -7   19.42    1.35
  11  -7   7   20.64    1.34
  11   7   7   18.72    1.37
  11  -7  -7   20.30    1.21
  11  -8   7   -0.08    0.43
  11   8  -7   -0.16    0.38
 -11  -8  -7    0.32    0.45
  11  -8  -7   -0.16    0.33
  11   8   7    0.38    0.50
 -11  -9  -7   12.92    1.29
  11   9  -7   14.71    1.50
  11  -9   7   13.10    1.36
  11  -9  -7   13.11    1.05
  11   9   7   18.30    1.71
  11  -9  -7   15.15    1.48
 -11 -10  -7    8.41    1.11
  11  10  -7    9.81    1.32
  11 -10   7    9.79    1.23
  11 -10  -7   10.78    1.30
  11  10   7    9.25    1.35
 -11 -11  -7   -0.03    0.47
  11 -11   7    0.08    0.58
  11  11  -7   -0.20    0.60
  11 -11  -7   -0.25    0.47
  11  11   7   -0.28    0.66
  11   0  -8    0.40    0.29
  11   0   8    0.66    0.36
  11   0  -8   -0.02    0.13
 -11   0  -8    0.01    0.23
  11   1  -8   23.74    0.94
  11   1  -8   23.98    1.28
 -11  -1  -8   23.55    1.21
  11  -1   8   23.52    1.30
  11  -1  -8   22.85    1.23
  11   1   8   23.71    1.35
 -11   1  -8   25.54    1.27
  11  -2   8    1.75    0.45
 -11  -2  -8    2.67    0.48
  11   2  -8    2.10    0.45
  11   2  -8    2.03    0.33
  11   2   8    1.93    0.51
  11  -2  -8    1.82    0.42
 -11   2  -8    2.60    0.49
  11   3  -8    2.12    0.51
  11   3  -8    2.43    0.40
  11  -3   8    1.40    0.45
 -11  -3  -8    1.73    0.44
 -11   3  -8    1.71    0.45
  11  -3  -8    1.76    0.40
  11   3   8    1.67    0.47
  11  -4   8    0.45    0.38
 -11  -4  -8    1.16    0.42
  11   4  -8    0.75    0.38
  11   4  -8    0.78    0.32
  11   4   8    0.80    0.39
 -11   4  -8    0.91    0.43
  11  -4  -8    0.36    0.27
  11   5  -8   18.40    1.23
  11   5  -8   17.69    1.11
  11  -5   8   18.66    1.22
 -11  -5  -8   19.03    1.25
  11  -5  -8   18.22    1.12
  11   5   8   19.92    1.29
 -11  -6  -8   -0.17    0.30
  11   6  -8    0.30    0.35
  11   6  -8    0.55    0.38
  11  -6   8    0.49    0.45
  11  -6  -8   -0.32    0.26
  11   6   8    0.23    0.34
  11  -7   8    6.15    0.86
  11   7  -8    7.79    1.00
  11   7  -8    6.66    0.92
 -11  -7  -8    7.48    0.95
  11   7   8    6.95    0.97
  11  -7  -8    6.26    0.76
  11   8  -8   22.15    1.53
 -11  -8  -8   19.49    1.41
  11  -8   8   23.29    1.51
  11  -8  -8   20.91    1.27
  11   8   8   21.38    1.59
  11   9  -8    0.73    0.53
 -11  -9  -8    1.39    0.62
  11  -9   8    0.50    0.56
  11  -9  -8    0.58    0.52
  11   9   8    1.14    0.66
  11 -10   8    4.93    0.96
 -11 -10  -8    3.60    0.89
  11  10  -8    2.67    0.86
  11  10   8    3.81    1.02
  11 -10  -8    4.66    0.97
  11 -11   8    1.44    0.70
 -11 -11  -8    2.55    0.80
  11  11  -8    2.01    0.81
  11 -11  -8    1.63    0.71
  11  11   8    2.57    0.97
 -11   0  -9   66.61    2.45
  11   0  -9   65.31    2.56
 -11   0  -9   68.09    2.41
  11   0   9   63.07    2.57
 -11  -1  -9   29.24    1.38
  11   1  -9   26.35    1.42
 -11  -1  -9   28.50    1.30
  11  -1   9   28.06    1.49
  11   1  -9   28.45    1.05
  11  -1  -9   26.98    1.40
 -11   1  -9   28.48    1.40
  11   1   9   25.78    1.45
 -11  -2  -9   16.81    1.04
  11   2  -9   17.66    0.84
  11  -2   9   17.73    1.14
  11   2  -9   16.42    1.13
  11  -2  -9   19.40    1.14
 -11   2  -9   17.23    1.08
  11   2   9   17.70    1.18
  11   3  -9   37.20    1.79
 -11  -3  -9   36.41    1.72
  11   3  -9   37.38    1.51
  11  -3   9   41.31    1.84
  11  -3  -9   39.02    1.73
 -11   3  -9   37.11    1.77
  11   3   9   34.47    1.76
  11  -4   9    0.12    0.33
  11   4  -9    0.03    0.27
 -11  -4  -9    0.01    0.32
  11   4  -9   -0.04    0.35
 -11   4  -9    0.45    0.42
  11   4   9    0.48    0.39
  11  -4  -9    0.23    0.31
  11  -5   9    1.16    0.44
  11   5  -9    1.33    0.50
 -11  -5  -9    0.79    0.47
  11   5  -9    0.64    0.37
  11   5   9    2.68    0.62
  11  -5  -9    1.04    0.39
 -11   5  -9    0.93    0.46
  11   6  -9    3.40    0.68
  11   6  -9    3.47    0.67
 -11  -6  -9    3.34    0.73
  11  -6   9    2.83    0.62
  11  -6  -9    3.40    0.59
  11   6   9    3.05    0.65
 -11  -7  -9   20.11    1.41
  11  -7   9   20.12    1.44
  11   7  -9   23.06    1.52
  11   7  -9   22.36    1.42
  11  -7  -9   17.67    1.21
  11   7   9   24.59    1.61
  11   8  -9    1.41    0.60
 -11  -8  -9    1.46    0.56
  11  -8   9    1.06    0.61
  11   8  -9    1.65    0.63
  11  -8  -9    0.46    0.53
  11   8   9    1.74    0.68
  11  -8  -9    2.04    0.55
  11  -9   9   10.51    1.29
 -11  -9  -9   10.61    1.30
  11   9  -9    9.49    1.21
  11  -9  -9   13.02    1.45
  11   9   9   11.37    1.41
 -11 -10  -9    7.94    1.17
  11 -10   9    5.32    1.06
  11  10  -9    7.65    1.18
  11 -10  -9    9.23    1.30
  11  10   9    7.19    1.29
  11   0 -10    0.21    0.34
 -11   0 -10   -0.34    0.22
 -11   0 -10   -0.23    0.30
  11   0  10    0.28    0.35
  11   1 -10    8.24    0.90
 -11  -1 -10    9.72    0.75
  11  -1  10    9.72    0.99
 -11  -1 -10   10.73    0.84
  11  -1 -10    9.64    0.95
  11   1  10    9.57    1.01
 -11   1 -10    9.96    0.93
  11   2 -10   11.68    0.96
  11  -2  10   14.10    1.06
  11   2 -10   13.10    0.70
 -11  -2 -10   12.57    0.96
 -11  -2 -10   12.63    0.81
 -11   2 -10   12.73    0.96
  11  -2 -10   11.49    1.05
  11   2  10   13.02    1.19
  11  -3  10    8.16    0.92
 -11  -3 -10    9.61    0.95
  11   3 -10    9.55    0.68
  11   3 -10   10.09    1.03
 -11   3 -10    8.34    0.92
  11   3  10    7.97    0.92
  11  -3 -10    9.06    0.93
  11   4 -10   12.05    1.14
  11  -4  10   11.52    1.08
 -11  -4 -10   10.28    1.02
  11   4 -10   12.44    0.83
  11  -4 -10   11.61    0.94
  11   4  10   10.42    1.08
 -11   4 -10   11.32    1.11
  11  -5  10   16.68    1.17
 -11  -5 -10   18.06    1.27
  11   5 -10   15.10    1.03
  11   5 -10   15.23    1.23
 -11   5 -10   17.36    1.29
  11  -5 -10   13.51    1.05
  11   5  10   16.17    1.23
 -11  -6 -10    1.98    0.60
  11   6 -10    2.29    0.59
  11  -6  10    1.96    0.59
  11   6 -10    1.58    0.56
  11  -6 -10    1.35    0.46
  11   6  10    3.20    0.72
 -11   6 -10    2.68    0.71
 -11  -7 -10    4.93    0.85
  11  -7  10    5.78    0.92
  11   7 -10    5.33    0.90
  11   7 -10    5.46    0.85
  11  -7 -10    7.51    0.89
  11   7  10    4.96    0.87
  11   8 -10    9.01    1.12
  11   8 -10   10.63    1.27
 -11  -8 -10    9.04    1.16
  11  -8  10   11.53    1.28
  11  -8 -10    9.57    1.01
  11  -8 -10   11.44    1.31
  11   8  10   10.54    1.31
  11   9 -10    1.11    0.64
 -11  -9 -10    1.01    0.63
  11  -9  10    1.59    0.70
  11   9 -10    0.98    0.59
  11   9  10    1.14    0.67
  11  -9 -10    0.53    0.62
  11  10 -10    2.86    0.87
  11 -10  10    3.43    0.90
 -11 -10 -10    2.66    0.82
  11 -10 -10    1.52    0.68
  11  10  10    2.81    0.94
 -11   0 -11   23.73    1.29
  11   0 -11   21.01    1.33
  11   0  11   23.14    1.38
 -11   0 -11   24.36    1.25
 -11  -1 -11    4.24    0.61
  11   1 -11    4.18    0.72
  11  -1  11    4.34    0.69
 -11  -1 -11    5.61    0.65
  11  -1 -11    4.35    0.71
 -11   1 -11    5.15    0.72
  11   1  11    4.31    0.68
 -11  -2 -11    1.06    0.45
 -11  -2 -11    0.22    0.30
  11   2 -11    0.29    0.35
  11  -2  11    1.77    0.52
  11  -2 -11    1.21    0.43
 -11   2 -11    0.43    0.38
  11   2  11    1.56    0.51
 -11  -3 -11   11.27    1.09
  11   3 -11   12.75    1.21
  11  -3  11   13.10    1.20
  11   3  11   14.46    1.14
  11  -3 -11   13.46    1.04
 -11   3 -11   12.89    1.05
  11   4 -11    7.11    0.71
  11   4 -11    6.98    0.96
 -11  -4 -11    8.76    1.02
 -11   4 -11    6.36    0.88
  11  -4 -11    6.90    0.85
  11   4  11    6.29    0.85
  11   5 -11    1.29    0.47
 -11  -5 -11    2.05    0.60
  11  -5  11    1.88    0.62
  11   5 -11    1.30    0.58
  11  -5 -11    1.40    0.51
 -11   5 -11    0.89    0.60
  11   5  11    2.27    0.64
  11   6 -11    5.33    0.77
  11   6 -11    5.16    0.91
  11  -6  11    6.56    0.97
 -11  -6 -11    7.70    1.04
  11   6  11    6.06    0.93
  11  -6 -11    5.78    0.81
 -11   6 -11    6.88    0.99
  11  -7  11    6.32    0.94
  11   7 -11    7.25    0.93
  11   7 -11    5.36    0.97
 -11  -7 -11    5.57    0.92
  11  -7 -11    7.09    0.88
  11   7  11   10.03    1.23
 -11   7 -11    7.13    1.10
  11  -8  11    0.62    0.53
  11   8 -11    0.01    0.54
 -11  -8 -11    0.58    0.58
  11   8 -11    0.17    0.47
  11  -8 -11    0.67    0.64
  11   8  11   -0.16    0.46
  11  -9  11    3.35    0.84
 -11  -9 -11    4.65    0.95
  11   9 -11    4.40    0.88
  11   9 -11    5.34    1.01
  11  -9 -11    6.07    1.07
  11   9  11    4.41    0.96
  11 -10  11    5.49    1.03
 -11 -10 -11    5.33    1.03
  11  10 -11    5.01    0.99
  11 -10 -11    8.96    1.29
  11  10  11    4.45    1.04
 -11   0 -12   -0.20    0.26
  11   0  12   -0.01    0.37
  11   0 -12    0.07    0.33
 -11   0 -12   -0.54    0.27
 -11  -1 -12    1.66    0.50
  11  -1  12    2.68    0.60
 -11  -1 -12    2.04    0.49
  11   1 -12    1.97    0.55
  11  -1 -12    2.58    0.60
  11   1  12    2.09    0.59
 -11   1 -12    2.27    0.52
 -11   1 -12    2.05    0.46
 -11  -2 -12   28.02    1.40
  11   2 -12   24.90    1.57
 -11  -2 -12   28.90    1.56
  11  -2  12   28.90    1.61
 -11   2 -12   27.21    1.58
  11   2  12   29.16    1.62
  11  -2 -12   27.24    1.54
 -11  -3 -12    0.51    0.42
  11   3 -12    0.94    0.52
  11  -3  12    1.21    0.52
  11  -3 -12    0.59    0.40
  11   3  12    1.30    0.54
 -11   3 -12   -0.45    0.39
  11   4 -12   10.61    1.18
 -11  -4 -12   13.82    1.30
  11  -4  12   13.37    1.30
  11   4  12   11.28    1.19
  11  -4 -12   13.21    1.21
 -11   4 -12   12.94    1.27
  11   5 -12   12.93    1.36
  11  -5  12   12.71    1.24
 -11  -5 -12   11.57    1.23
  11   5  12   12.20    1.27
 -11   5 -12   15.10    1.46
  11  -5 -12   13.08    1.07
  11   6 -12    0.19    0.59
 -11  -6 -12    0.27    0.54
  11  -6  12    0.33    0.48
  11  -6 -12    0.80    0.48
 -11   6 -12    0.00    0.50
  11   6  12    0.76    0.53
  11  -7  12    3.57    0.78
  11   7 -12    3.43    0.71
 -11  -7 -12    4.07    0.85
  11   7 -12    2.55    0.74
  11  -7 -12    4.48    0.78
  11  -7 -12    3.53    0.86
 -11   7 -12    6.47    1.04
  11   7  12    3.19    0.79
  11   8 -12    4.69    1.01
 -11  -8 -12    2.31    0.74
  11  -8  12    6.26    1.06
  11   8 -12    4.51    0.84
 -11   8 -12    5.58    1.04
  11   8  12    6.42    1.09
  11  -8 -12    3.77    0.90
 -11  -9 -12    1.59    0.73
  11   9 -12    2.14    0.84
  11  -9  12    0.28    0.65
  11   9 -12    1.78    0.71
  11  -9 -12    0.72    0.60
  11   9  12    1.24    0.73
  11   0 -13   16.10    1.25
  11   0  13   15.03    1.17
 -11   0 -13   17.07    1.16
  11  -1  13    1.37    0.53
  11   1 -13    1.50    0.57
 -11  -1 -13    0.55    0.41
 -11  -1 -13    0.70    0.42
  11   1  13    1.21    0.54
 -11   1 -13    0.74    0.38
 -11   1 -13    0.29    0.43
  11  -1 -13    0.64    0.47
  11   2 -13    3.64    0.73
 -11  -2 -13    3.35    0.67
  11  -2  13    3.92    0.73
 -11   2 -13    4.36    0.78
  11   2  13    2.40    0.64
  11  -2 -13    3.23    0.67
  11  -3  13    8.58    1.04
 -11  -3 -13   10.05    1.06
  11   3 -13   11.41    1.26
  11  -3 -13   10.68    1.08
  11   3  13   10.22    1.10
 -11   3 -13   12.08    1.21
  11   4 -13    0.10    0.53
 -11  -4 -13    1.05    0.49
  11  -4  13    0.66    0.55
  11   4  13    1.16    0.53
 -11   4 -13    1.15    0.55
  11  -4 -13    1.82    0.56
  11  -5  13    1.39    0.58
 -11  -5 -13    2.77    0.79
  11   5 -13    2.08    0.67
  11  -5 -13    1.93    0.62
 -11   5 -13    1.44    0.66
  11   5  13    3.98    0.78
  11  -6  13    2.32    0.69
  11   6 -13    3.51    0.85
 -11  -6 -13    2.08    0.70
  11   6  13    4.31    0.85
 -11   6 -13    4.13    0.91
  11  -6 -13    2.74    0.66
  11   7 -13    3.72    0.89
 -11  -7 -13    3.43    0.92
  11  -7  13    3.17    0.85
  11  -7 -13    2.88    0.69
 -11   7 -13    2.30    0.76
  11  -7 -13    3.26    0.84
  11   7  13    2.00    0.69
  11   8 -13    0.31    0.53
 -11  -8 -13   -0.45    0.54
  11  -8  13    0.51    0.56
  11   8  13   -0.32    0.49
  11  -8 -13    0.79    0.68
 -11   8 -13   -0.36    0.58
  11  -9  13    3.45    0.90
 -11  -9 -13    6.28    1.15
  11   9 -13    4.93    1.07
  11  -9 -13    5.53    1.21
  11   9  13    5.33    1.09
 -11   0 -14   -0.37    0.36
  11   0  14    0.97    0.48
  11   0 -14   -0.55    0.31
 -11  -1 -14    6.88    0.88
 -11  -1 -14    6.50    0.83
  11  -1  14    8.99    1.04
  11   1 -14    5.67    0.91
 -11   1 -14    6.68    0.91
  11  -1 -14    6.60    0.96
  11   1  14    5.27    0.81
 -11   1 -14    5.95    0.75
  11   2 -14    8.67    1.10
 -11  -2 -14    9.38    0.93
  11  -2  14    8.78    1.01
 -11  -2 -14   11.24    1.16
  11   2  14    9.01    1.04
  11  -2 -14    9.17    1.06
 -11   2 -14    9.11    1.05
 -11  -3 -14    0.48    0.46
  11   3 -14    0.26    0.50
  11  -3  14    0.29    0.46
  11  -3 -14    0.05    0.44
 -11   3 -14    0.15    0.50
  11   3  14   -0.07    0.39
  11   4 -14    1.23    0.59
  11  -4  14    3.00    0.70
 -11  -4 -14    1.97    0.67
 -11   4 -14    3.01    0.77
  11   4  14    2.27    0.66
  11  -4 -14    3.16    0.67
 -11  -5 -14    7.36    1.13
  11   5 -14    9.83    1.24
  11  -5  14   10.24    1.19
 -11   5 -14    9.65    1.22
  11  -5 -14    8.70    1.04
  11   5  14    7.48    1.03
  11  -6  14    3.74    0.82
  11   6 -14    2.89    0.78
 -11  -6 -14    2.12    0.72
 -11   6 -14    4.10    0.93
  11   6  14    2.56    0.71
  11  -6 -14    2.63    0.90
  11  -6 -14    3.06    0.70
  11   7 -14    1.48    0.77
  11  -7  14    2.11    0.83
 -11  -7 -14    1.66    0.78
  11  -7 -14    2.02    0.81
  11   7  14    1.46    0.65
 -11   7 -14    1.56    0.75
  11   8 -14    5.94    1.16
  11  -8  14    5.88    1.05
 -11  -8 -14    4.95    1.07
 -11   8 -14   10.48    1.47
  11  -8 -14    8.11    1.26
  11   0  15    6.10    0.93
 -11   0 -15    5.78    0.85
  11   0 -15    6.12    0.98
  11   1 -15    2.27    0.70
  11  -1  15    1.91    0.61
 -11  -1 -15    2.49    0.62
 -11  -1 -15    1.86    0.60
  11  -1 -15    2.10    0.63
 -11   1 -15    1.33    0.58
  11   1  15    3.14    0.68
 -11  -2 -15    2.89    0.72
  11  -2  15    3.44    0.78
  11   2 -15    2.87    0.77
 -11   2 -15    2.30    0.66
  11  -2 -15    3.28    0.77
  11   3 -15    7.53    1.11
 -11  -3 -15    7.13    1.01
  11  -3  15    6.72    0.96
  11  -3 -15    4.33    0.82
 -11   3 -15    6.95    1.04
 -11  -4 -15    0.61    0.60
  11  -4  15    1.17    0.59
  11   4 -15    0.90    0.62
  11  -4 -15    0.65    0.58
 -11   4 -15    0.90    0.64
  11   5 -15   -0.56    0.49
 -11  -5 -15   -0.14    0.57
  11  -5  15    0.29    0.54
 -11   5 -15   -0.19    0.49
  11  -5 -15   -0.37    0.56
  11  -5 -15   -0.21    0.45
  11   6 -15    1.70    0.79
 -11  -6 -15    2.11    0.74
  11  -6  15    1.84    0.68
  11  -6 -15    0.92    0.79
  11  -6 -15    1.03    0.57
 -11   6 -15    2.06    0.74
 -11  -7 -15    2.21    0.89
  11  -7  15    3.09    0.92
  11   7 -15    3.06    0.95
  11  -7 -15    2.77    0.91
 -11   7 -15    3.42    0.96
 -11  -8 -15   -0.75    0.67
  11   8 -15   -0.33    0.60
 -11   8 -15    0.58    0.79
  11  -8 -15    0.05    0.57
  11   0  16    0.10    0.48
  11   0 -16   -0.30    0.48
 -11   0 -16   -0.09    0.45
  11   1 -16    3.53    0.82
 -11  -1 -16    2.49    0.63
 -11  -1 -16    4.23    0.77
  11  -1  16    4.58    0.83
  11  -1 -16    3.54    0.84
 -11   1 -16    3.77    0.81
  11  -2  16    7.21    0.98
  11   2 -16    6.17    1.03
 -11  -2 -16    6.57    0.99
  11  -2 -16    5.55    0.93
 -11   2 -16    4.67    0.88
 -11  -3 -16    0.63    0.55
  11   3 -16    1.24    0.64
  11  -3  16    0.94    0.57
 -11   3 -16    0.43    0.59
  11  -3 -16    0.33    0.56
  11  -4  16    3.02    0.81
 -11  -4 -16    2.58    0.76
  11   4 -16    3.51    0.90
  11  -4 -16    1.98    0.70
  11  -4 -16    3.88    0.88
 -11   4 -16    1.65    0.71
  11  -5  16    7.03    1.06
  11   5 -16    7.23    1.18
 -11  -5 -16    6.00    1.10
  11  -5 -16    5.07    1.08
  11  -5 -16    5.51    0.92
 -11   5 -16    8.51    1.24
 -11  -6 -16    0.09    0.70
  11   6 -16   -0.39    0.49
  11  -6  16    0.59    0.64
  11  -6 -16    0.31    0.57
 -11   6 -16    0.47    0.66
 -11  -7 -16    1.26    0.82
  11   7 -16    1.98    0.87
  11  -7  16    0.93    0.75
 -11   7 -16    0.63    0.68
  11  -7 -16    1.32    0.79
  11   0 -17    7.49    1.14
 -11   0 -17    5.10    0.89
 -11  -1 -17    1.28    0.60
  11   1 -17    1.89    0.75
  11  -1  17    1.06    0.58
 -11  -1 -17    1.69    0.62
  11  -1 -17    1.19    0.66
 -11   1 -17    0.75    0.62
 -11  -2 -17    1.39    0.65
  11   2 -17    0.56    0.57
  11  -2  17    2.00    0.67
  11  -2 -17    1.88    0.72
 -11   2 -17    0.82    0.58
  11  -3  17    5.17    0.95
 -11  -3 -17    5.35    0.96
  11   3 -17    5.10    1.01
 -11   3 -17    6.96    1.15
  11  -3 -17    6.79    1.14
  11  -3 -17    3.37    0.82
  11   4 -17    1.49    0.74
  11  -4  17    1.38    0.72
 -11  -4 -17    2.34    0.80
  11  -4 -17    1.47    0.84
 -11   4 -17    2.03    0.79
  11  -4 -17    3.08    0.79
 -11  -5 -17   -0.93    0.60
  11   5 -17   -0.20    0.63
  11  -5  17   -0.32    0.59
  11  -5 -17    0.20    0.66
  11  -5 -17   -0.06    0.56
 -11   5 -17   -0.11    0.58
  11   6 -17    1.25    0.78
  11  -6  17    2.16    0.81
 -11  -6 -17    0.64    0.69
 -11   6 -17    1.67    0.78
  11  -6 -17    1.91    0.86
  11   0 -18   -0.01    0.50
 -11   0 -18    0.15    0.52
  11   1 -18    1.20    0.73
 -11  -1 -18    2.01    0.69
  11  -1 -18    0.93    0.65
  11  -1 -18    0.73    0.60
 -11   1 -18    1.13    0.65
  11   2 -18    2.09    0.79
 -11  -2 -18    2.71    0.78
 -11   2 -18    2.63    0.79
  11  -2 -18    1.55    0.75
  11  -2 -18    3.16    0.86
 -11  -3 -18    0.46    0.63
  11  -3  18   -0.06    0.59
  11   3 -18    0.69    0.71
 -11   3 -18    0.07    0.65
  11  -3 -18    1.28    0.81
  11  -3 -18    0.00    0.52
  11  -4  18    2.27    0.78
 -11  -4 -18    5.02    1.01
  11   4 -18    1.99    0.87
  11  -4 -18    4.06    0.98
 -11   4 -18    2.22    0.90
  11  -4 -18    3.11    0.86
  11  -5  18    2.09    0.79
  11   5 -18    2.05    0.87
 -11  -5 -18    0.96    0.78
  11  -5 -18    2.05    0.73
  11  -5 -18    2.98    0.96
 -11   5 -18    0.96    0.70
 -11   0 -19    3.45    0.86
  11   0 -19    2.99    0.94
  11   1 -19    1.39    0.77
  11  -1 -19    0.96    0.70
 -11   1 -19    0.53    0.61
  11  -1 -19    1.09    0.72
 -11  -2 -19   -0.58    0.59
  11   2 -19    0.41    0.65
  11  -2 -19    0.28    0.67
  11  -2 -19   -0.65    0.55
 -11   2 -19    0.64    0.65
  11   3 -19    1.39    0.79
 -11  -3 -19    2.44    0.86
 -11   3 -19    2.95    0.92
  11  -3 -19    1.68    0.78
  11  -3 -19    2.30    0.87
  12   0   0   67.53    2.33
  12   1   0   95.96    3.08
  12   1   0   93.37    2.98
  12  -1   0   94.25    3.07
  12   2   0   12.47    0.75
  12  -2   0   11.86    0.74
  12  -3   0   50.16    1.85
  12   3   0   48.40    1.88
  12   3   0   49.26    1.72
  12   4   0   27.82    1.36
  12  -4   0   30.74    1.33
  12   4   0   30.61    1.21
  12   5   0    0.18    0.28
  12  -5   0    0.45    0.26
  12  -6   0    9.32    0.86
  12   6   0    6.54    0.80
  12   7   0   10.17    1.10
  12  -7   0   12.11    0.92
  12  -8   0    8.08    0.94
 -12   8   0   10.09    1.01
  12   8   0   10.24    1.22
 -12   9   0    6.30    0.85
  12   9   0    7.67    1.09
  12  10   0   20.60    1.68
 -12  10   0   18.76    1.41
 -12  11   0   -0.04    0.46
  12  11   0    0.89    0.67
  12  12   0   10.21    1.62
 -12  12   0    7.43    1.16
  12   0  -1   -0.01    0.16
  12   0  -1   -0.07    0.17
  12   0   1    0.40    0.22
  12  -1   1   22.09    1.07
  12   1  -1   23.77    1.03
  12   1  -1   22.04    1.00
  12   1   1   20.71    1.03
  12  -1  -1   22.06    1.01
  12  -2   1   22.27    1.08
  12   2  -1   21.23    1.02
  12   2   1   22.10    1.07
  12  -2  -1   23.83    1.06
  12   2   1   21.69    0.93
  12  -3   1    1.21    0.34
  12   3  -1    1.61    0.35
  12   3  -1    1.79    0.32
  12  -3  -1    1.80    0.35
  12   3   1    2.17    0.41
  12   3   1    1.74    0.27
  12   4  -1   24.29    1.11
  12  -4   1   24.56    1.21
  12   4  -1   26.21    1.26
  12   4   1   25.56    1.04
  12  -4  -1   26.45    1.18
  12   4   1   28.07    1.32
  12   5  -1   45.75    1.71
  12  -5   1   44.58    1.83
  12   5  -1   46.53    1.94
  12   5   1   42.63    1.90
  12  -5  -1   47.37    1.81
  12   6  -1    0.55    0.31
  12  -6   1    1.10    0.38
  12   6   1    0.30    0.31
  12  -6  -1    0.56    0.31
  12  -7   1   22.93    1.30
  12   7  -1   20.40    1.36
  12  -7  -1   23.34    1.26
  12   7   1   22.54    1.42
  12  -8   1   20.94    1.33
  12   8  -1   18.65    1.42
 -12   8   1   19.27    1.25
 -12   8  -1   23.40    1.37
  12   8   1   19.23    1.41
  12   9  -1    0.82    0.55
 -12   9   1    0.54    0.40
 -12   9  -1    0.28    0.42
  12   9   1    0.56    0.51
  12  10  -1    6.14    1.13
 -12  10   1    5.30    0.86
 -12  10  -1    7.21    0.99
  12  10   1    5.00    1.01
 -12  11   1    8.24    1.12
  12  11  -1   10.56    1.45
  12  11   1    8.71    1.36
 -12  11  -1    9.00    1.14
  12  12  -1    1.61    0.84
 -12  12   1    1.92    0.77
  12  12   1    1.73    0.81
 -12  12  -1    2.01    0.76
  12   0  -2  162.51    4.91
  12   0   2  168.57    5.10
  12   0  -2  165.98    4.99
  12   1  -2    0.83    0.25
  12   1  -2    1.35    0.28
  12  -1   2    0.88    0.28
  12  -1  -2    0.96    0.28
  12  -1  -2    1.32    0.27
  12   1   2    1.34    0.31
  12   2  -2   29.62    1.25
  12   2  -2   30.66    1.27
  12  -2   2   29.72    1.35
  12  -2  -2   30.61    1.23
  12   2   2   29.63    1.14
  12   2   2   31.91    1.37
  12  -3   2   24.91    1.19
  12   3  -2   26.70    1.19
  12  -3  -2   23.83    1.08
  12   3   2   25.28    1.23
  12   3   2   23.37    0.96
  12   4  -2    0.61    0.30
  12   4  -2    0.81    0.27
  12  -4   2    0.77    0.30
  12   4   2    0.98    0.21
  12   4   2    0.88    0.32
  12  -4  -2    0.83    0.27
  12   5  -2   -0.14    0.19
  12  -5   2    0.51    0.30
  12   5  -2    0.07    0.26
  12  -5  -2    0.20    0.24
  12   5   2    0.21    0.14
  12   5   2   -0.28    0.20
  12   6  -2   14.92    0.89
 -12  -6  -2   16.36    1.02
  12  -6   2   16.05    1.04
  12   6  -2   15.81    1.09
  12  -6  -2   15.49    0.95
  12   6   2   18.36    1.19
  12   7  -2   18.58    1.26
 -12  -7  -2   16.26    1.08
  12  -7   2   17.35    1.13
  12  -7  -2   16.76    1.05
  12   7   2   19.06    1.28
 -12  -8  -2    0.75    0.42
  12   8  -2    0.76    0.52
 -12   8   2    0.72    0.39
  12  -8   2   -0.01    0.37
  12   8   2    0.94    0.52
 -12  -9  -2   12.49    1.15
 -12   9   2   11.40    1.11
  12  -9   2   11.46    1.19
  12   9  -2   10.48    1.28
 -12   9  -2   12.53    1.24
  12   9   2    9.97    1.28
 -12  10   2   17.26    1.27
 -12 -10  -2   19.55    1.29
  12  10  -2   21.71    1.69
 -12  10  -2   14.90    1.43
  12  10   2   18.70    1.88
 -12  11   2    0.32    0.54
  12  11  -2    0.56    0.68
  12  11   2    0.49    0.57
 -12  11  -2   -0.33    0.49
 -12  12   2    5.08    0.97
  12  12  -2    5.97    1.18
  12  12   2    4.96    1.18
 -12  12  -2    4.11    0.97
  12   0  -3   -0.06    0.19
  12   0   3    0.14    0.20
  12   0  -3    0.29    0.18
  12   1  -3   29.73    1.27
  12   1  -3   28.29    1.17
  12  -1   3   31.27    1.39
  12   1   3   29.12    1.35
  12  -1  -3   30.91    1.17
  12  -1  -3   29.54    1.29
  12   2  -3   45.76    1.69
  12  -2   3   47.92    1.87
  12   2  -3   44.96    1.74
  12   2   3   44.60    1.82
  12  -2  -3   47.42    1.79
  12  -2  -3   44.32    1.63
  12   3  -3    9.94    0.68
  12  -3   3    9.43    0.70
  12   3  -3    9.15    0.66
  12  -3  -3    9.23    0.67
  12  -3  -3    7.77    0.55
  12   3   3   10.06    0.75
  12   3   3    9.56    0.52
 -12  -4  -3   25.60    1.23
  12  -4   3   23.87    1.22
  12   4  -3   21.91    1.13
  12   4  -3   24.65    1.23
  12   4   3   25.76    0.95
  12  -4  -3   25.52    1.11
  12   4   3   25.42    1.29
  12  -5   3   59.88    2.31
  12   5  -3   62.06    2.26
 -12  -5  -3   62.09    2.32
  12   5  -3   60.76    2.37
  12  -5  -3   60.32    2.15
  12   5   3   55.63    2.36
 -12  -6  -3    7.57    0.81
  12  -6   3    8.55    0.87
  12   6  -3    6.34    0.76
  12   6  -3    6.76    0.70
  12  -6  -3    6.45    0.67
  12   6   3    7.30    0.88
  12   7  -3   16.89    1.19
  12   7  -3   15.39    0.97
 -12  -7  -3   16.74    1.10
  12  -7   3   13.81    1.05
  12   7   3   14.92    1.19
  12  -7  -3   16.74    1.01
 -12  -8  -3   29.22    1.55
  12  -8   3   30.66    1.63
 -12   8   3   30.06    1.51
  12   8  -3   28.36    1.74
  12   8   3   27.22    1.76
  12  -9   3    0.48    0.43
 -12   9   3    0.69    0.42
  12   9  -3    0.41    0.48
 -12  -9  -3    0.68    0.42
  12   9   3    0.44    0.50
 -12   9  -3    0.82    0.49
 -12 -10  -3    1.67    0.56
  12  10  -3    1.31    0.65
 -12  10   3    2.03    0.63
  12 -10   3    1.50    0.65
 -12  10  -3    1.38    0.59
  12 -10  -3    2.12    0.65
  12  10   3    0.97    0.63
  12 -11   3    5.69    0.98
 -12  11   3    6.68    1.00
 -12 -11  -3    5.33    0.87
  12  11  -3    7.85    1.25
  12  11   3    7.63    1.35
 -12  11  -3    5.99    0.98
  12  12  -3    2.66    0.98
 -12  12   3    2.35    0.76
 -12  12  -3    3.18    0.86
  12  12   3    3.50    1.08
  12   0  -4   60.33    2.04
  12   0  -4   63.67    2.25
  12   0   4   65.25    2.37
  12   1  -4   20.01    0.85
  12   1  -4   16.70    0.93
  12  -1   4   17.27    1.01
  12   1   4   17.73    1.01
  12  -1  -4   17.74    0.95
  12  -1  -4   18.20    0.80
  12   2  -4   20.35    0.96
  12  -2   4   20.85    1.13
  12   2  -4   20.81    1.06
  12  -2  -4   21.83    1.08
  12   2   4   20.04    1.10
  12  -2  -4   20.09    0.89
  12   3  -4   23.85    1.12
  12   3  -4   22.46    1.13
 -12  -3  -4   22.41    1.14
  12  -3   4   24.43    1.22
  12   3   4   23.80    1.23
  12  -3  -4   19.94    1.08
  12  -3  -4   22.59    0.98
 -12  -4  -4    9.87    0.75
  12   4  -4    9.57    0.72
  12   4  -4    9.21    0.84
  12  -4   4   10.17    0.80
  12   4   4    9.16    0.48
  12  -4  -4    9.49    0.73
  12  -4  -4    8.79    0.61
  12   4   4   10.09    0.80
  12  -5   4    1.15    0.39
  12   5  -4    0.72    0.37
 -12  -5  -4    0.65    0.35
  12  -5  -4    0.54    0.28
  12   5   4    1.44    0.45
  12  -5  -4    0.78    0.36
 -12  -6  -4    4.46    0.63
  12  -6   4    5.07    0.71
  12   6  -4    5.63    0.68
  12   6  -4    5.49    0.73
  12  -6  -4    4.83    0.65
  12  -6  -4    5.51    0.62
  12   6   4    5.32    0.76
 -12  -7  -4    7.45    0.85
  12  -7   4    8.34    0.97
  12   7  -4    9.03    1.05
  12   7  -4    9.45    0.91
  12  -7  -4    8.44    0.79
  12   7   4    8.49    1.03
  12   8  -4    0.11    0.46
  12  -8   4    0.61    0.47
 -12  -8  -4    1.01    0.45
  12   8   4    0.64    0.48
  12  -9   4    6.66    0.93
 -12   9   4    8.95    1.03
  12   9  -4    9.64    1.22
 -12  -9  -4    9.50    1.05
  12  -9  -4   10.74    1.05
  12   9   4    7.70    1.17
  12 -10   4   12.87    1.39
  12  10  -4   11.28    1.40
 -12  10   4   14.51    1.15
 -12 -10  -4   12.15    1.20
  12  10   4   12.10    1.49
  12 -10  -4   12.20    1.29
  12 -10  -4   14.62    1.16
  12  11  -4   -0.99    0.54
 -12 -11  -4   -0.38    0.42
  12 -11   4   -0.32    0.54
 -12  11   4   -0.57    0.41
  12  11   4    0.20    0.61
 -12  11  -4   -0.06    0.55
  12   0  -5    0.06    0.20
  12   0  -5    0.05    0.14
  12   0   5   -0.19    0.24
  12  -1   5   34.45    1.53
  12   1  -5   31.41    1.21
  12   1  -5   28.01    1.35
  12   1   5   32.34    1.50
  12  -1  -5   31.62    1.14
  12  -1  -5   31.34    1.39
  12   2  -5   20.44    0.94
 -12  -2  -5   18.65    1.02
  12  -2   5   19.09    1.10
  12   2  -5   21.57    1.09
  12  -2  -5   19.12    1.03
  12  -2  -5   20.10    0.83
  12   2   5   16.96    1.06
  12   3  -5    6.05    0.62
 -12  -3  -5    6.48    0.70
  12   3  -5    6.11    0.65
  12  -3   5    5.40    0.65
  12   3   5    6.58    0.75
  12  -3  -5    6.09    0.65
  12  -3  -5    6.71    0.47
  12  -4   5   26.56    1.33
  12   4  -5   25.24    1.28
  12   4  -5   24.85    1.24
 -12  -4  -5   26.37    1.32
  12  -4  -5   24.12    1.05
  12   4   5   23.06    1.31
  12   4   5   24.67    0.91
  12  -4  -5   25.15    1.25
 -12  -5  -5   35.11    1.68
  12  -5   5   33.92    1.65
  12   5  -5   37.07    1.69
  12  -5  -5   38.25    1.64
  12  -5  -5   35.89    1.43
  12   5   5   38.57    1.80
  12   6  -5    5.11    0.73
  12  -6   5    6.06    0.79
 -12  -6  -5    6.32    0.80
  12   6  -5    5.74    0.79
  12  -6  -5    5.02    0.57
  12  -6  -5    4.86    0.64
  12   6   5    5.68    0.81
  12   7  -5   19.29    1.23
  12   7  -5   20.62    1.37
 -12  -7  -5   19.20    1.27
  12  -7   5   17.65    1.22
  12  -7  -5   18.93    1.17
  12  -7  -5   18.68    1.07
  12   7   5   20.76    1.43
  12  -8   5   16.92    1.26
 -12   8   5   17.61    1.11
  12   8  -5   16.15    1.34
 -12  -8  -5   16.04    1.19
  12   8   5   21.44    1.52
  12  -8  -5   18.58    1.18
  12  -9   5    2.04    0.64
  12   9  -5    0.96    0.58
 -12  -9  -5    0.76    0.49
  12  -9  -5    0.66    0.44
  12   9   5    1.52    0.68
  12  10  -5    1.27    0.73
 -12 -10  -5    1.62    0.59
  12 -10   5    3.25    0.79
  12 -10  -5    3.37    0.79
  12  10   5    2.96    0.85
 -12 -11  -5    5.54    0.95
  12 -11   5    5.08    1.05
  12  11  -5    7.38    1.26
  12  11   5    5.37    1.12
  12 -11  -5    5.04    1.01
  12   0  -6   45.28    1.50
  12   0  -6   43.39    1.80
  12   0   6   42.80    1.87
  12   1  -6   14.23    0.70
  12  -1   6   13.64    0.94
  12   1  -6   13.15    0.87
  12  -1  -6   15.24    0.64
  12  -1  -6   15.24    0.90
  12   1   6   12.56    0.92
 -12  -2  -6   19.49    1.07
  12  -2   6   17.67    1.09
  12   2  -6   18.53    1.07
  12   2  -6   19.59    0.92
  12   2   6   16.89    1.09
  12  -2  -6   18.59    0.76
  12  -2  -6   17.80    1.02
  12   3  -6   25.22    1.19
 -12  -3  -6   26.50    1.31
  12   3  -6   27.57    1.34
  12  -3   6   25.65    1.36
  12  -3  -6   25.38    1.27
  12   3   6   26.24    1.39
  12  -3  -6   25.82    1.02
  12   4  -6    1.83    0.44
  12  -4   6    1.66    0.44
  12   4  -6    2.07    0.45
 -12  -4  -6    1.18    0.38
  12   4   6    1.04    0.37
  12  -4  -6    1.92    0.44
  12  -4  -6    1.67    0.29
 -12  -5  -6    0.26    0.30
  12   5  -6    0.00    0.30
  12  -5   6    0.83    0.38
  12   5  -6    0.07    0.33
  12  -5  -6    0.54    0.26
  12   5   6    0.82    0.42
  12  -5  -6    0.71    0.32
  12  -6   6   16.69    1.14
 -12  -6  -6   16.92    1.18
  12   6  -6   17.98    1.20
  12  -6  -6   19.73    0.98
  12  -6  -6   16.38    1.08
  12   6   6   17.80    1.24
  12  -7   6    7.42    0.94
 -12  -7  -6    7.52    0.90
  12   7  -6    8.45    1.02
  12  -7  -6    9.45    0.91
  12  -7  -6    8.99    0.80
  12   7   6   10.18    1.18
 -12  -8  -6    0.12    0.41
  12   8  -6    0.49    0.41
  12   8  -6    0.17    0.41
  12  -8   6    1.02    0.52
  12  -8  -6    0.38    0.38
  12  -8  -6    0.78    0.37
  12   8   6    0.58    0.51
  12   9  -6   10.65    1.29
 -12  -9  -6   10.06    1.19
  12  -9   6   14.58    1.43
  12  -9  -6   14.12    1.23
  12   9   6   13.40    1.51
 -12 -10  -6   10.32    1.25
  12  10  -6   10.46    1.34
  12 -10   6   11.29    1.33
  12  10   6   12.03    1.53
  12 -10  -6    9.05    1.18
  12 -11   6   -0.22    0.52
 -12 -11  -6    0.44    0.56
  12  11  -6    0.85    0.68
  12  11   6    0.75    0.71
  12 -11  -6    0.08    0.51
  12   0   7    0.07    0.29
  12   0  -7    0.11    0.14
  12   0  -7   -0.07    0.25
 -12  -1  -7   28.90    1.34
  12  -1   7   28.57    1.45
  12   1  -7   29.48    1.40
  12   1  -7   27.34    1.10
  12  -1  -7   27.47    0.99
  12   1   7   28.82    1.49
  12  -1  -7   29.08    1.39
 -12  -2  -7   13.34    0.92
  12  -2   7   14.01    1.01
  12   2  -7   14.75    0.98
  12   2  -7   17.17    0.82
  12  -2  -7   14.88    0.96
  12   2   7   12.75    0.97
  12  -2  -7   13.95    0.60
  12  -3   7    0.37    0.34
  12   3  -7    0.06    0.23
  12   3  -7    0.55    0.33
 -12  -3  -7    0.21    0.28
  12  -3  -7    0.09    0.25
  12   3   7    0.37    0.31
  12  -3  -7    0.38    0.17
  12   4  -7    2.31    0.51
  12   4  -7    3.46    0.53
 -12  -4  -7    2.73    0.52
  12  -4   7    2.50    0.54
  12  -4  -7    3.16    0.35
  12  -4  -7    2.75    0.48
  12   4   7    3.46    0.60
  12   5  -7   41.67    1.79
  12  -5   7   41.34    1.88
 -12  -5  -7   36.75    1.81
  12   5  -7   38.84    1.86
  12  -5  -7   39.18    1.76
  12   5   7   36.20    1.86
  12  -5  -7   37.82    1.53
  12  -6   7    2.25    0.61
  12   6  -7    1.77    0.51
  12   6  -7    3.27    0.64
 -12  -6  -7    2.13    0.57
  12  -6  -7    4.49    0.65
  12   6   7    3.21    0.68
  12  -7   7    7.25    0.93
 -12  -7  -7    6.73    0.91
  12   7  -7    6.07    0.87
  12   7   7    6.66    1.02
  12  -7  -7    6.71    0.80
 -12  -8  -7   24.33    1.56
  12  -8   7   25.34    1.57
  12   8  -7   24.22    1.57
  12   8   7   21.35    1.59
  12  -8  -7   23.88    1.40
 -12  -9  -7    1.26    0.59
  12   9  -7   -0.55    0.44
  12  -9   7    0.45    0.49
  12   9   7    0.82    0.61
  12  -9  -7   -0.26    0.39
  12  -9  -7    0.80    0.56
  12 -10   7    1.69    0.68
  12  10  -7    2.39    0.79
 -12 -10  -7    1.62    0.68
  12  10   7    1.76    0.73
  12 -10  -7    2.73    0.75
 -12 -11  -7    3.68    0.83
  12 -11   7    1.18    0.65
  12  11  -7    3.16    0.94
  12  11   7    3.42    1.04
  12 -11  -7    2.62    0.78
  12   0   8   81.17    2.96
  12   0  -8   78.40    2.37
  12   0  -8   73.83    2.83
  12   1  -8    8.41    0.54
  12   1  -8   10.19    0.82
  12  -1   8    7.24    0.84
 -12  -1  -8    9.58    0.76
  12   1   8    9.27    0.98
  12  -1  -8   10.47    0.84
 -12  -2  -8   29.05    1.42
  12   2  -8   28.51    1.17
  12  -2   8   26.48    1.47
  12   2  -8   25.49    1.42
  12   2   8   26.36    1.49
  12  -2  -8   28.85    1.44
 -12  -3  -8   16.24    1.07
  12  -3   8   17.08    1.09
  12   3  -8   15.53    1.06
  12   3  -8   16.76    0.91
  12  -3  -8   14.81    1.00
  12   3   8   15.98    1.10
  12   4  -8    0.47    0.32
 -12  -4  -8    0.79    0.39
  12  -4   8    0.43    0.36
  12   4  -8    0.26    0.37
  12   4   8   -0.17    0.32
  12  -4  -8   -0.18    0.29
  12  -5   8    0.37    0.36
  12   5  -8    0.92    0.38
  12   5  -8    0.66    0.41
 -12  -5  -8    0.70    0.43
  12   5   8    0.28    0.42
  12  -5  -8    0.35    0.35
  12   6  -8    4.63    0.69
 -12  -6  -8    4.64    0.74
  12   6  -8    3.37    0.68
  12  -6   8    4.66    0.75
  12  -6  -8    4.17    0.64
  12   6   8    4.69    0.80
  12  -7   8   20.60    1.44
  12   7  -8   22.34    1.44
  12   7  -8   20.36    1.44
 -12  -7  -8   21.01    1.42
  12   7   8   24.79    1.64
  12  -7  -8   22.56    1.32
  12   8  -8    0.55    0.51
 -12  -8  -8   -0.20    0.44
  12  -8   8    0.06    0.49
  12  -8  -8   -0.04    0.35
  12   8   8   -0.29    0.49
 -12  -9  -8   11.96    1.30
  12  -9   8   12.97    1.40
  12   9  -8   10.45    1.27
  12   9   8   11.89    1.46
  12  -9  -8   14.43    1.51
 -12 -10  -8    6.11    1.02
  12 -10   8    6.31    1.11
  12  10  -8    8.06    1.17
  12 -10  -8    7.42    1.15
  12  10   8    7.19    1.28
  12  11  -8    0.09    0.57
  12 -11   8    0.36    0.66
 -12 -11  -8    0.09    0.57
  12 -11  -8    0.32    0.56
  12  11   8   -0.40    0.60
 -12   0  -9    0.21    0.27
  12   0   9   -0.21    0.30
  12   0  -9   -0.02    0.31
 -12  -1  -9   20.67    1.13
  12   1  -9   21.06    1.26
  12  -1   9   20.62    1.28
  12   1  -9   19.84    0.84
  12   1   9   17.94    1.21
  12  -1  -9   18.88    1.20
 -12  -2  -9   14.38    0.96
  12  -2   9   13.54    1.21
  12   2  -9   12.39    1.00
  12   2  -9   11.79    0.70
 -12   2  -9   12.66    0.97
  12   2   9   13.16    1.05
  12  -2  -9   12.39    0.93
 -12  -3  -9    0.59    0.39
  12   3  -9    0.85    0.39
  12  -3   9    1.46    0.45
  12   3  -9    1.18    0.34
  12   3   9    0.99    0.47
  12  -3  -9    1.06    0.42
 -12   3  -9    0.28    0.37
 -12  -4  -9    5.85    0.78
  12   4  -9    6.73    0.70
  12  -4   9    8.05    0.89
  12   4  -9    7.88    0.94
  12  -4  -9    9.13    0.93
  12   4   9    6.28    0.85
  12  -5   9    9.00    0.99
  12   5  -9    9.12    1.01
 -12  -5  -9    9.10    0.98
  12   5  -9   11.61    0.91
  12  -5  -9   10.29    1.00
  12   5   9   12.52    1.23
  12  -6   9    7.67    0.98
  12   6  -9    9.49    0.98
  12   6  -9    8.31    1.08
 -12  -6  -9   10.62    1.11
  12   6   9    8.68    1.06
  12  -6  -9   10.82    1.02
  12   7  -9    7.69    1.05
  12   7  -9    8.83    1.04
  12  -7   9    8.45    1.06
 -12  -7  -9    9.52    1.12
  12   7   9   10.58    1.27
  12  -7  -9    7.80    0.90
 -12  -8  -9   15.16    1.47
  12   8  -9   17.42    1.35
  12   8  -9   14.08    1.43
  12  -8   9   15.70    1.50
  12  -8  -9   17.82    1.21
  12   8   9   16.51    1.67
 -12  -9  -9    0.45    0.49
  12  -9   9    1.60    0.73
  12   9  -9   -0.09    0.48
  12   9   9    0.41    0.61
  12  -9  -9   -0.05    0.47
  12 -10   9    4.51    1.00
 -12 -10  -9    2.70    0.77
  12  10  -9    3.56    0.92
  12 -10  -9    2.17    0.74
  12  10   9    3.89    1.01
 -12   0 -10   63.82    2.40
  12   0  10   57.41    2.49
 -12   0 -10   61.49    2.35
  12   0 -10   62.28    2.53
  12   1 -10    4.97    0.70
 -12  -1 -10    5.30    0.68
  12  -1  10    5.32    0.77
 -12   1 -10    4.38    0.63
  12   1  10    4.47    0.76
  12  -1 -10    4.10    0.66
  12   2 -10    5.73    0.77
  12  -2  10    7.42    0.88
 -12  -2 -10    6.99    0.82
  12   2  10    7.02    0.89
 -12   2 -10    7.15    0.87
  12  -2 -10    6.26    0.78
  12   3 -10   10.06    0.73
 -12  -3 -10   13.71    1.01
  12  -3  10   12.72    1.03
  12   3 -10   12.05    1.18
  12  -3 -10   12.56    0.96
  12   3  10   12.66    1.22
 -12   3 -10   11.62    1.11
  12  -4  10    3.17    0.66
  12   4 -10    5.02    0.83
 -12  -4 -10    2.55    0.59
  12   4 -10    4.21    0.58
 -12   4 -10    4.14    0.77
  12   4  10    4.34    0.77
  12  -4 -10    2.86    0.57
  12  -5  10    0.32    0.42
  12   5 -10    0.00    0.36
  12   5 -10    0.10    0.35
 -12  -5 -10    0.05    0.41
  12  -5 -10   -0.36    0.33
  12   5  10   -0.26    0.31
 -12   5 -10   -0.89    0.40
 -12  -6 -10    7.15    0.96
  12   6 -10    7.51    1.03
  12  -6  10    7.32    1.00
  12   6 -10    7.22    0.89
  12  -6 -10    7.27    0.88
  12   6  10    7.48    1.05
  12  -7  10   12.84    1.30
  12   7 -10   13.52    1.41
  12   7 -10   13.13    1.23
 -12  -7 -10    9.67    1.17
  12  -7 -10   13.15    1.19
  12   7  10   10.95    1.33
  12   8 -10    0.32    0.52
  12   8 -10   -0.34    0.43
  12  -8  10    0.46    0.59
 -12  -8 -10   -0.08    0.46
  12   8  10   -0.15    0.46
  12  -8 -10    0.56    0.45
 -12  -9 -10    8.13    1.16
  12   9 -10   10.09    1.27
  12  -9  10    7.51    1.16
  12   9 -10    8.63    1.15
  12  -9 -10    6.55    1.14
  12   9  10    7.34    1.22
 -12 -10 -10    3.97    0.95
  12  10 -10    5.51    1.08
  12 -10  10    5.01    1.03
  12  10  10    3.54    1.02
  12 -10 -10    4.63    0.99
 -12   0 -11   -0.27    0.27
  12   0 -11    0.11    0.34
  12   0  11    0.23    0.36
 -12   0 -11   -0.34    0.27
 -12  -1 -11    3.29    0.53
  12   1 -11    3.31    0.66
 -12  -1 -11    4.00    0.63
  12  -1  11    5.26    0.80
  12   1  11    2.85    0.61
  12  -1 -11    3.44    0.65
 -12   1 -11    3.26    0.60
  12   2 -11   19.79    1.34
  12  -2  11   22.06    1.42
 -12  -2 -11   23.52    1.37
  12  -2 -11   23.46    1.42
  12   2  11   23.20    1.47
 -12   2 -11   23.55    1.38
  12   3 -11    0.38    0.41
 -12  -3 -11    0.61    0.41
  12  -3  11    0.42    0.41
 -12   3 -11    0.29    0.39
  12  -3 -11    0.49    0.37
  12   3  11    0.73    0.47
  12  -4  11    8.03    0.97
  12   4 -11    7.00    0.97
 -12  -4 -11    6.37    0.86
  12   4  11    7.61    1.02
 -12   4 -11    9.00    1.05
  12  -4 -11    5.50    0.78
  12   5 -11   12.12    1.26
  12   5 -11   13.58    0.99
 -12  -5 -11   11.46    1.24
  12  -5  11   15.01    1.35
  12  -5 -11   13.62    1.23
 -12   5 -11   14.30    1.41
  12   5  11   15.91    1.26
  12   6 -11    0.65    0.46
  12   6 -11    0.82    0.44
 -12  -6 -11    0.23    0.55
  12  -6  11    1.35    0.58
  12  -6 -11    0.82    0.48
  12   6  11    0.19    0.45
 -12   6 -11   -0.09    0.48
  12   7 -11    3.40    0.72
 -12  -7 -11    2.69    0.78
  12   7 -11    4.89    0.94
  12  -7  11    3.87    0.80
  12   7  11    4.93    0.97
  12  -7 -11    4.37    0.75
 -12  -8 -11    8.20    1.20
  12   8 -11    8.75    1.10
  12  -8  11    7.02    1.05
  12   8 -11    4.75    0.98
  12  -8 -11    6.50    1.10
  12   8  11    6.50    1.13
  12   9 -11    0.45    0.62
  12  -9  11    1.39    0.70
 -12  -9 -11    0.53    0.56
  12   9 -11    1.41    0.70
  12  -9 -11    1.24    0.71
  12   9  11    1.74    0.79
  12  10 -11    0.12    0.60
 -12 -10 -11    1.56    0.76
  12 -10 -11    0.08    0.58
  12  10  11    0.76    0.76
  12   0 -12    6.86    0.87
 -12   0 -12    5.71    0.72
 -12   0 -12    7.48    0.87
  12   0  12    8.29    0.98
 -12  -1 -12    3.52    0.59
  12  -1  12    2.98    0.64
  12   1 -12    2.23    0.59
 -12  -1 -12    3.41    0.65
 -12   1 -12    4.51    0.71
  12  -1 -12    2.90    0.67
  12   1  12    2.70    0.63
  12   2 -12    0.08    0.38
  12  -2  12    1.63    0.54
 -12  -2 -12    0.93    0.47
  12   2  12    2.25    0.63
  12  -2 -12    1.13    0.51
 -12   2 -12    0.65    0.49
 -12  -3 -12   19.41    1.33
  12   3 -12   16.30    1.30
  12  -3  12   16.66    1.26
  12   3  12   17.57    1.31
  12  -3 -12   18.87    1.30
 -12   3 -12   18.67    1.36
 -12  -4 -12    3.21    0.72
  12   4 -12    1.62    0.58
  12  -4  12    1.65    0.57
  12   4  12    2.76    0.69
 -12   4 -12    2.41    0.64
  12  -4 -12    1.96    0.56
 -12  -5 -12    5.55    0.94
  12  -5  12    4.92    0.84
  12   5 -12    5.35    0.88
  12   5  12    4.84    0.83
 -12   5 -12    5.63    0.94
  12  -5 -12    5.66    0.84
  12  -6  12    4.30    0.83
  12   6 -12    4.64    0.96
 -12  -6 -12    5.40    0.96
  12   6  12    3.53    0.78
 -12   6 -12    4.01    0.85
  12  -6 -12    5.09    0.81
  12   7 -12    0.90    0.54
 -12  -7 -12    2.74    0.79
  12  -7  12    1.90    0.70
  12   7  12    1.46    0.70
  12  -7 -12    2.16    0.60
  12  -8  12   -0.48    0.47
  12   8 -12   -0.63    0.46
  12   8 -12   -0.29    0.51
 -12  -8 -12    0.39    0.58
  12  -8 -12    0.04    0.57
  12   8  12    0.85    0.61
  12   9 -12    3.48    0.87
 -12  -9 -12    3.28    0.89
  12  -9  12    4.43    0.95
  12   9 -12    2.84    0.84
  12   9  12    4.12    1.02
  12  -9 -12    4.81    1.05
 -12   0 -13   -0.48    0.32
  12   0 -13   -0.03    0.36
 -12   0 -13   -0.86    0.26
  12   0  13    0.08    0.35
  12  -1  13    4.87    0.84
 -12  -1 -13    4.71    0.71
 -12  -1 -13    3.72    0.66
  12   1 -13    3.40    0.75
  12  -1 -13    4.41    0.79
  12   1  13    5.16    0.84
 -12   1 -13    4.06    0.72
 -12   1 -13    4.66    0.65
  12  -2  13   17.75    1.30
 -12  -2 -13   16.57    1.24
  12   2 -13   16.10    1.31
 -12  -2 -13   15.88    1.06
  12   2  13   16.57    1.24
  12  -2 -13   12.95    1.25
 -12   2 -13   16.42    1.26
  12   3 -13    0.78    0.58
 -12  -3 -13    0.77    0.54
  12  -3  13    2.21    0.63
 -12   3 -13    1.90    0.62
  12  -3 -13    1.69    0.60
  12   3  13    2.20    0.63
  12   4 -13    9.30    1.17
 -12  -4 -13    6.73    0.95
  12  -4  13    7.50    1.04
 -12   4 -13    8.78    1.10
  12  -4 -13    6.91    0.96
  12   4  13    7.72    1.03
 -12  -5 -13   16.48    1.53
  12   5 -13   11.25    1.32
  12  -5  13   13.90    1.39
 -12   5 -13   12.70    1.38
  12   5  13   13.68    1.37
  12  -5 -13   13.33    1.23
 -12  -6 -13    0.51    0.54
  12   6 -13    1.91    0.72
  12  -6  13    1.19    0.68
  12  -6 -13    1.84    0.62
 -12   6 -13    1.41    0.64
  12   6  13    0.71    0.55
 -12  -7 -13    0.94    0.63
  12   7 -13    1.29    0.67
  12  -7  13    2.43    0.75
  12  -7 -13    3.32    0.71
  12  -7 -13    0.30    0.59
  12   7  13    2.65    0.82
 -12   7 -13    1.89    0.82
  12  -8  13    3.46    0.93
  12   8 -13    4.19    1.05
 -12  -8 -13    5.96    1.06
  12   8  13    5.01    1.00
  12  -8 -13    5.53    1.10
  12   9 -13    1.90    0.80
 -12  -9 -13    3.04    0.95
  12  -9  13   -0.06    0.66
  12  -9 -13    2.27    0.88
  12   9  13    1.41    0.80
  12   0 -14    9.99    1.14
  12   0  14   12.61    1.24
 -12   0 -14    9.35    1.01
 -12  -1 -14    2.88    0.64
  12   1 -14    1.76    0.64
  12  -1  14    1.75    0.64
 -12  -1 -14    2.38    0.58
 -12   1 -14    2.76    0.69
  12  -1 -14    2.08    0.65
  12   1  14    3.35    0.74
 -12   1 -14    1.90    0.52
  12  -2  14    5.44    0.90
 -12  -2 -14    6.48    0.92
  12   2 -14    5.35    0.96
  12  -2 -14    3.71    0.78
  12   2  14    4.06    0.80
 -12   2 -14    5.99    0.92
  12   3 -14    5.65    0.97
  12  -3  14    5.42    0.90
 -12  -3 -14    6.15    0.90
 -12   3 -14    5.15    0.93
  12   3  14    6.15    0.88
  12  -3 -14    4.42    0.78
  12   4 -14    0.98    0.57
 -12  -4 -14    1.49    0.65
  12  -4  14    0.68    0.57
  12  -4 -14    0.40    0.52
 -12   4 -14    0.51    0.59
  12   4  14    0.00    0.45
  12   5 -14    0.31    0.51
  12  -5  14   -0.68    0.39
 -12  -5 -14    0.23    0.57
 -12   5 -14    0.91    0.63
  12   5  14   -0.15    0.44
  12  -5 -14   -0.05    0.45
 -12  -6 -14    2.26    0.81
  12  -6  14    0.13    0.59
  12   6 -14    2.70    0.86
  12  -6 -14    2.30    0.69
 -12   6 -14    2.95    0.88
  12   6  14    2.47    0.75
  12   7 -14    4.35    0.99
 -12  -7 -14    4.87    1.04
  12  -7  14    1.86    0.79
  12   7  14    4.53    0.93
  12  -7 -14    4.05    1.03
 -12   7 -14    3.11    0.87
  12   8 -14    0.57    0.70
 -12  -8 -14    0.76    0.75
  12  -8  14    0.63    0.74
  12  -8 -14    0.12    0.68
 -12   0 -15   -0.24    0.38
  12   0 -15   -0.05    0.49
  12   0  15    0.20    0.48
  12  -1  15    6.61    0.96
 -12  -1 -15    5.15    0.80
 -12  -1 -15    5.27    0.80
  12   1 -15    4.58    0.91
 -12   1 -15    4.59    0.81
  12  -1 -15    3.90    0.82
  12   1  15    4.01    0.74
  12   2 -15    7.55    1.09
  12  -2  15    6.83    0.99
 -12  -2 -15    5.27    0.88
  12   2  15    8.44    1.04
  12  -2 -15    6.94    1.03
 -12   2 -15    6.15    0.99
  12  -3  15    1.43    0.61
  12   3 -15   -0.05    0.53
 -12  -3 -15    0.84    0.53
  12   3  15    0.84    0.50
  12  -3 -15    0.16    0.50
 -12   3 -15    1.21    0.64
  12   4 -15    1.98    0.73
 -12  -4 -15    3.06    0.81
  12  -4  15    4.53    0.89
  12   4  15    2.53    0.72
 -12   4 -15    3.99    0.86
  12  -4 -15    3.88    0.82
 -12  -5 -15    6.49    1.05
  12  -5  15    8.06    1.12
  12   5 -15    5.19    1.05
  12   5  15    6.38    1.01
 -12   5 -15    4.28    0.95
  12  -5 -15    5.74    0.93
  12   6 -15    0.54    0.64
 -12  -6 -15    1.49    0.75
  12  -6  15    0.42    0.63
  12  -6 -15    0.63    0.56
  12  -6 -15    1.61    0.83
 -12   6 -15    1.09    0.73
 -12  -7 -15    1.26    0.79
  12  -7  15    1.64    0.81
  12   7 -15    0.76    0.65
 -12   7 -15    1.22    0.76
  12  -7 -15    0.87    0.78
 -12   0 -16    4.51    0.79
  12   0  16    5.51    0.91
  12   0 -16    4.54    0.95
  12  -1  16    1.44    0.62
 -12  -1 -16    1.76    0.57
 -12  -1 -16    0.87    0.56
  12   1 -16    1.84    0.67
 -12   1 -16    1.59    0.65
  12  -1 -16    0.52    0.60
  12   1  16    1.31    0.58
  12   2 -16    1.22    0.66
 -12  -2 -16    0.84    0.61
  12  -2  16    1.21    0.59
  12  -2 -16    1.42    0.68
  12   2  16    0.95    0.60
 -12   2 -16    1.12    0.67
 -12  -3 -16    5.22    0.93
  12   3 -16    7.25    1.17
  12  -3  16    5.72    0.91
  12  -3 -16    6.68    1.02
 -12   3 -16    5.66    1.01
  12   4 -16    1.22    0.66
  12  -4  16    0.85    0.61
 -12  -4 -16    0.82    0.65
  12  -4 -16    1.27    0.65
 -12   4 -16    0.55    0.67
 -12  -5 -16    0.99    0.73
  12   5 -16    0.32    0.59
  12  -5  16    0.54    0.64
  12  -5 -16    1.24    0.79
  12  -5 -16    0.89    0.63
 -12   5 -16    0.35    0.63
  12  -6  16    1.86    0.76
 -12  -6 -16    1.12    0.71
  12   6 -16    0.95    0.78
  12  -6 -16    1.51    0.65
 -12   6 -16    0.29    0.74
  12  -6 -16    1.01    0.71
  12   7 -16    1.15    0.78
 -12   7 -16    2.16    0.87
  12   0 -17   -0.30    0.58
  12   0  17    0.08    0.48
 -12   0 -17   -0.41    0.47
  12  -1  17    1.74    0.65
 -12  -1 -17    2.06    0.68
  12   1 -17    1.02    0.66
 -12   1 -17    0.72    0.59
  12  -1 -17    2.22    0.74
 -12  -2 -17    3.02    0.79
  12   2 -17    3.28    0.92
  12  -2  17    2.54    0.74
  12  -2 -17    3.11    0.77
 -12   2 -17    2.63    0.79
  12   3 -17   -0.08    0.55
 -12  -3 -17    0.07    0.60
  12  -3  17    0.75    0.63
  12  -3 -17    0.98    0.60
 -12   3 -17    0.74    0.67
  12   4 -17    1.82    0.86
  12  -4  17    2.21    0.77
 -12  -4 -17    2.88    0.86
  12  -4 -17    2.53    0.79
 -12   4 -17    2.26    0.78
  12  -4 -17    2.07    0.92
 -12  -5 -17    1.87    0.75
  12   5 -17    2.12    0.91
  12  -5  17    2.48    0.79
  12  -5 -17    3.99    0.90
  12  -5 -17    2.68    0.90
 -12   5 -17    2.95    0.96
  12   6 -17   -0.93    0.65
 -12   6 -17   -0.04    0.65
  12   0 -18    3.66    0.97
 -12   0 -18    4.80    0.91
  12   1 -18    0.61    0.71
 -12  -1 -18    0.97    0.63
 -12   1 -18    0.91    0.66
  12  -1 -18    2.91    0.86
 -12  -2 -18    0.17    0.58
  12   2 -18    0.80    0.72
  12  -2 -18    1.10    0.76
  12  -2 -18    0.00    0.60
 -12   2 -18    0.68    0.68
  12   3 -18    2.08    0.79
 -12  -3 -18    2.62    0.85
  12  -3  18    2.71    0.78
  12  -3 -18    2.76    0.97
  12  -3 -18    1.67    0.71
 -12   3 -18    1.85    0.83
  12   4 -18    1.08    0.77
  12  -4  18    0.89    0.70
 -12  -4 -18    0.10    0.56
 -12   4 -18    1.23    0.68
  12  -4 -18    0.44    0.62
  12  -4 -18    0.78    0.81
  12   0 -19   -0.07    0.65
  12   0 -19    0.30    0.68
  12   1 -19    1.34    0.82
  12  -1 -19    0.99    0.73
  12  -1 -19    1.13    0.79
 -12   1 -19    1.85    0.78
  12   2 -19    2.37    0.95
 -12  -2 -19    3.56    0.89
  12  -2 -19    2.61    0.87
  12  -2 -19    2.68    0.93
 -12   2 -19    1.95    0.84
  13   0   0    0.02    0.18
  13   1   0    0.93    0.29
  13  -1   0    0.68    0.25
  13   1   0    0.84    0.25
  13  -2   0    1.94    0.37
  13   2   0    2.86    0.43
  13   3   0   10.31    0.62
  13   3   0   10.76    0.74
  13  -3   0    9.87    0.71
  13   4   0   62.57    2.37
  13   4   0   62.52    2.14
  13  -4   0   61.81    2.28
  13   5   0    9.95    0.82
  13  -5   0   11.23    0.80
  13   6   0    1.89    0.48
  13  -6   0    0.93    0.34
  13   7   0   28.03    1.65
  13  -7   0   32.52    1.58
  13   8   0   13.55    1.38
  13  -8   0   13.87    1.09
  13   9   0    0.93    0.56
  13  -9   0    1.33    0.56
  13  10   0    7.28    1.18
  13 -10   0    6.32    0.96
 -13  10   0    5.91    0.94
  13 -11   0   11.61    1.32
 -13  11   0   14.40    1.42
  13  11   0   14.19    1.67
  13   0   1  104.91    3.49
  13   0  -1  109.71    3.43
  13   0  -1  108.28    3.43
  13   1  -1   15.36    0.84
  13  -1   1   15.21    0.88
  13   1  -1   15.65    0.83
  13   1   1   15.82    0.89
  13  -1  -1   16.78    0.86
  13   2  -1    6.87    0.65
  13  -2   1    5.53    0.60
  13   2  -1    5.42    0.52
  13   2   1    6.45    0.64
  13  -2  -1    4.60    0.52
  13   2   1    6.09    0.47
  13   3  -1   54.96    1.92
  13  -3   1   52.68    2.03
  13   3  -1   51.58    1.99
  13   3   1   53.53    2.05
  13  -3  -1   52.18    1.95
  13   3   1   52.78    1.82
  13   4  -1   14.98    0.92
  13  -4   1   14.03    0.90
  13   4  -1   14.19    0.80
  13   4   1   14.44    0.96
  13  -4  -1   15.49    0.88
  13   4   1   13.11    0.72
  13   5  -1    3.27    0.59
  13  -5   1    3.03    0.50
  13   5  -1    3.16    0.44
  13   5   1    3.85    0.62
  13  -5  -1    3.26    0.50
  13   6  -1    8.44    0.92
  13  -6   1   10.34    0.96
  13   6   1    9.44    0.98
  13  -6  -1   11.52    0.83
  13   7  -1   19.31    1.34
  13  -7   1   18.70    1.21
  13   7   1   19.88    1.33
  13  -7  -1   18.32    1.16
  13  -8   1    5.98    0.84
  13   8  -1    7.10    1.05
  13   8   1    6.58    0.97
  13  -8  -1    5.76    0.80
  13   9  -1    9.52    1.26
  13  -9   1    7.12    0.96
  13  -9  -1    8.45    1.03
  13   9   1    9.47    1.26
 -13  10   1   16.81    1.31
  13 -10   1   19.61    1.45
  13  10  -1   20.17    1.91
  13  10   1   21.10    1.67
  13 -10  -1   19.84    1.38
  13 -11   1    0.44    0.53
 -13  11   1    0.64    0.60
  13  11  -1    0.57    0.61
  13  11   1    0.12    0.58
 -13  11  -1    0.04    0.49
  13 -11  -1   -0.17    0.48
  13   0  -2    0.58    0.22
  13   0  -2    0.21    0.21
  13   0   2    0.14    0.22
  13   1  -2   28.53    1.17
  13  -1   2   28.25    1.30
  13   1  -2   26.90    1.19
  13   1   2   25.80    1.24
  13  -1  -2   25.94    1.13
  13  -1  -2   25.65    1.20
  13   2  -2   96.62    3.18
  13   2  -2  103.29    3.22
  13  -2   2   96.93    3.33
  13  -2  -2   99.88    3.18
  13   2   2   95.64    3.30
  13   2   2  100.18    3.07
  13   3  -2    1.24    0.35
  13  -3   2    0.82    0.31
  13   3   2    0.93    0.23
  13  -3  -2    1.44    0.32
  13   3   2    1.43    0.37
  13   4  -2   14.20    0.91
  13  -4   2   12.78    0.87
  13   4  -2   13.66    0.83
  13   4   2   14.34    0.94
  13   4   2   14.46    0.70
  13  -4  -2   13.25    0.81
  13   5  -2   48.65    1.92
  13  -5   2   53.47    2.08
  13   5  -2   49.51    2.09
  13   5   2   53.01    2.17
  13  -5  -2   50.01    1.93
  13   5   2   49.74    1.73
  13   6  -2    1.89    0.40
  13  -6   2    2.33    0.53
  13   6  -2    2.39    0.53
  13  -6  -2    1.75    0.42
  13   6   2    2.12    0.52
  13  -7   2   11.20    1.07
  13   7  -2   10.13    1.10
  13  -7  -2   12.57    0.92
  13   7   2   11.88    1.23
  13   8  -2   23.26    1.58
  13  -8   2   26.94    1.56
  13   8   2   25.71    1.68
  13  -8  -2   29.32    1.50
  13  -9   2    0.94    0.54
  13   9  -2    0.28    0.48
  13  -9  -2   -0.12    0.38
  13   9   2    0.30    0.57
  13 -10   2    4.40    0.84
 -13  10   2    4.56    0.84
  13  10  -2    4.65    0.96
  13 -10  -2    3.98    0.78
  13  10   2    3.92    0.94
 -13  11   2    5.14    0.89
  13  11  -2    5.04    1.07
  13 -11   2    4.67    0.90
  13  11   2    4.83    1.15
  13   0   3   53.13    2.04
  13   0  -3   51.30    1.80
  13   0  -3   49.83    1.92
  13   1  -3   33.81    1.36
  13  -1   3   36.69    1.58
  13   1  -3   35.32    1.47
  13   1   3   34.93    1.56
  13  -1  -3   36.66    1.50
  13  -1  -3   35.95    1.36
  13   2  -3   32.34    1.40
  13   2  -3   31.01    1.32
  13  -2   3   32.94    1.50
  13  -2  -3   32.77    1.42
  13  -2  -3   33.58    1.30
  13   2   3   32.42    1.47
  13  -3   3   29.02    1.42
  13   3  -3   31.91    1.38
  13   3  -3   33.24    1.40
  13  -3  -3   32.37    1.42
  13   3   3   31.09    1.18
  13   3   3   30.16    1.47
  13  -3  -3   31.46    1.29
  13  -4   3    3.41    0.53
  13   4  -3    3.63    0.56
  13  -4  -3    4.61    0.52
  13   4   3    2.93    0.54
  13   5  -3    0.19    0.31
  13   5  -3    0.07    0.25
  13  -5   3    0.29    0.30
  13  -5  -3    0.16    0.25
  13   5   3   -0.08    0.24
  13   6  -3    9.20    0.94
  13  -6   3    5.96    0.75
  13   6  -3    6.50    0.73
 -13  -6  -3    5.79    0.72
  13   6   3    8.37    0.96
  13  -6  -3    8.55    0.77
  13  -7   3    8.61    0.95
 -13  -7  -3    8.08    0.91
  13   7  -3   10.31    1.10
  13  -7  -3   10.15    0.92
  13   7   3   10.87    1.18
  13   8  -3    4.16    0.84
 -13  -8  -3    4.00    0.67
  13  -8   3    4.61    0.77
  13  -8  -3    4.39    0.70
  13   8   3    4.30    0.86
  13   9  -3    8.04    1.16
  13  -9   3    8.77    1.07
 -13  -9  -3    9.87    1.08
  13  -9  -3    9.08    0.99
  13   9   3   10.59    1.33
  13 -10   3   12.34    1.33
 -13 -10  -3   10.90    1.13
 -13  10   3   12.32    1.22
  13  10  -3   11.72    1.51
  13  10   3   11.72    1.49
  13 -10  -3    9.92    1.16
  13 -10  -3   11.83    1.21
 -13  11   3   -0.41    0.47
  13  11  -3    0.31    0.65
  13 -11   3    0.31    0.58
  13  11   3   -0.25    0.62
  13   0  -4   -0.29    0.17
  13   0  -4   -0.24    0.11
  13   0   4   -0.07    0.19
  13  -1   4   20.65    1.14
  13   1  -4   20.42    1.07
  13   1  -4   21.38    0.95
  13   1   4   20.35    1.13
  13  -1  -4   21.10    1.08
  13  -1  -4   22.73    0.93
  13   2  -4   12.69    0.74
  13   2  -4   12.64    0.82
  13  -2   4   12.85    0.88
  13  -2  -4   13.18    0.69
  13  -2  -4   13.53    0.85
  13   2   4   10.67    0.82
  13   3  -4   15.73    0.92
  13   3  -4   15.79    0.87
  13  -3   4   13.64    0.93
  13  -3  -4   14.46    0.92
  13   3   4   13.97    0.96
  13  -3  -4   14.84    0.78
  13   4  -4   25.27    1.30
  13   4  -4   29.23    1.35
  13  -4   4   25.87    1.35
 -13  -4  -4   28.36    1.37
  13   4   4   25.56    1.39
  13  -4  -4   25.83    1.31
  13  -4  -4   28.28    1.18
 -13  -5  -4   33.52    1.56
  13  -5   4   31.65    1.56
  13   5  -4   31.82    1.58
  13  -5  -4   32.52    1.53
  13  -5  -4   32.96    1.38
  13   5   4   32.73    1.67
 -13  -6  -4    7.11    0.83
  13   6  -4    6.96    0.78
  13   6  -4    5.88    0.78
  13  -6   4    6.72    0.82
  13  -6  -4    5.11    0.59
  13  -6  -4    6.29    0.74
  13   6   4    6.68    0.88
  13   7  -4   19.85    1.36
 -13  -7  -4   16.69    1.19
  13  -7   4   15.65    1.17
  13   7  -4   19.71    1.17
  13   7   4   18.52    1.39
  13  -7  -4   19.49    1.10
  13  -7  -4   18.67    1.17
  13  -8   4   17.72    1.29
 -13  -8  -4   19.24    1.30
  13   8  -4   20.01    1.48
  13  -8  -4   20.25    1.26
  13   8   4   21.99    1.57
  13  -8  -4   19.73    1.21
  13   9  -4    1.65    0.66
  13  -9   4    0.50    0.46
 -13  -9  -4    1.17    0.48
  13  -9  -4    0.44    0.45
  13  -9  -4    0.53    0.43
  13   9   4    0.65    0.63
 -13 -10  -4    2.12    0.63
  13  10  -4    2.46    0.80
 -13  10   4    1.92    0.60
  13 -10   4    2.37    0.71
  13 -10  -4    2.62    0.67
  13  10   4    4.13    1.01
  13 -10  -4    2.95    0.70
  13 -10  -4    3.36    0.70
  13  11  -4    4.97    1.11
 -13 -11  -4    5.05    0.92
  13 -11   4    3.45    0.84
  13  11   4    7.64    1.31
  13   0  -5   21.79    1.14
  13   0  -5   23.51    0.95
  13   0   5   22.77    1.23
  13  -1   5   12.18    0.87
  13   1  -5   12.10    0.66
  13   1  -5   10.77    0.79
  13  -1  -5   11.59    0.79
  13   1   5   11.62    1.04
  13  -1  -5   11.74    0.60
  13   2  -5   13.84    0.79
  13  -2   5   14.48    0.99
  13   2  -5   14.78    0.93
  13   2   5   13.69    0.96
  13  -2  -5   15.62    0.73
  13  -2  -5   15.11    0.94
  13   3  -5   27.85    1.36
  13  -3   5   28.92    1.42
  13   3  -5   28.11    1.27
 -13  -3  -5   28.94    1.37
  13  -3  -5   27.64    1.36
  13   3   5   25.54    1.38
  13  -3  -5   27.03    1.12
  13   4  -5    4.06    0.59
 -13  -4  -5    3.46    0.55
  13  -4   5    4.40    0.66
  13   4  -5    3.14    0.54
  13   4   5    3.38    0.34
  13  -4  -5    4.36    0.47
  13   4   5    5.52    0.73
  13  -4  -5    3.50    0.54
 -13  -5  -5   -0.09    0.26
  13  -5   5    0.57    0.35
  13   5  -5    0.11    0.30
  13  -5  -5    0.13    0.23
  13   5   5    0.05    0.29
  13  -5  -5   -0.13    0.26
  13   6  -5   17.02    1.18
  13   6  -5   19.13    1.25
 -13  -6  -5   18.07    1.18
  13  -6   5   20.21    1.27
  13  -6  -5   19.85    1.18
  13   6   5   20.49    1.33
  13  -6  -5   18.83    1.01
  13   7  -5   15.64    1.37
  13  -7   5    9.42    1.04
  13   7  -5   12.01    0.96
 -13  -7  -5   11.80    1.12
  13  -7  -5   11.62    0.87
  13   7   5   14.98    1.21
  13  -7  -5   14.47    1.04
  13   8  -5    0.32    0.50
  13  -8   5    0.81    0.46
 -13  -8  -5    0.02    0.34
  13  -8  -5    0.12    0.35
  13  -8  -5    0.77    0.44
  13   8   5    0.30    0.46
 -13  -9  -5   10.59    1.15
  13   9  -5   11.94    1.38
  13  -9   5   11.91    1.31
  13   9   5   10.34    1.37
  13  -9  -5   12.77    0.99
  13  -9  -5   11.75    1.13
  13  10  -5    9.64    1.33
  13 -10   5   10.21    1.27
 -13 -10  -5   12.75    1.30
  13  10   5   13.01    1.60
  13 -10  -5   10.42    1.25
  13 -10  -5    9.77    1.11
  13 -11   5   -0.95    0.40
  13  11  -5    1.53    0.79
 -13 -11  -5   -0.02    0.45
  13  11   5   -0.24    0.64
  13   0  -6    0.02    0.15
  13   0  -6    0.07    0.23
  13   0   6    0.10    0.27
  13   1  -6   25.10    1.03
  13  -1   6   23.21    1.29
  13   1  -6   24.18    1.24
  13   1   6   23.48    1.32
  13  -1  -6   23.91    0.94
  13  -1  -6   24.78    1.26
  13   2  -6   20.94    0.99
  13  -2   6   18.91    1.17
  13   2  -6   20.62    1.14
 -13  -2  -6   20.98    1.14
  13   2   6   18.03    1.19
  13  -2  -6   20.58    1.12
  13  -2  -6   20.65    0.85
 -13  -3  -6    1.79    0.42
  13   3  -6    2.34    0.48
  13   3  -6    1.76    0.38
  13  -3   6    1.54    0.43
  13   3   6    0.43    0.33
  13  -3  -6    1.55    0.43
  13  -3  -6    1.69    0.29
  13   4  -6    7.13    0.80
 -13  -4  -6    7.47    0.81
  13   4  -6    8.26    0.80
  13  -4   6    6.60    0.78
  13  -4  -6    7.19    0.52
  13  -4  -6    6.31    0.72
  13   4   6    7.07    0.88
  13   5  -6   52.50    2.22
  13   5  -6   56.74    2.23
  13  -5   6   49.90    2.21
 -13  -5  -6   51.61    2.23
  13   5   6   51.09    2.31
  13  -5  -6   54.82    2.19
  13  -5  -6   51.83    1.89
 -13  -6  -6    0.09    0.35
  13  -6   6   -0.14    0.32
  13   6  -6   -0.26    0.33
  13  -6  -6    0.15    0.33
  13  -6  -6    0.06    0.25
  13   6   6   -0.22    0.28
  13  -7   6    4.92    0.78
  13   7  -6    4.36    0.78
 -13  -7  -6    4.88    0.77
  13   7  -6    6.55    0.93
  13  -7  -6    5.65    0.75
  13   7   6    5.49    0.91
  13  -7  -6    5.03    0.73
  13   8  -6   17.89    1.40
  13  -8   6   18.37    1.34
 -13  -8  -6   19.69    1.38
  13  -8  -6   18.89    1.25
  13   8   6   19.13    1.53
 -13  -9  -6   -0.43    0.43
  13  -9   6    1.02    0.55
  13   9  -6    0.87    0.62
  13   9   6    0.48    0.58
  13  -9  -6    1.16    0.51
 -13 -10  -6    1.05    0.49
  13 -10   6    0.97    0.59
  13  10  -6    1.67    0.73
  13 -10  -6    1.52    0.67
  13  10   6    1.57    0.73
  13  11  -6    4.47    1.07
  13 -11   6    3.58    0.91
 -13 -11  -6    5.16    0.99
  13 -11  -6    5.57    1.03
  13  11   6    4.47    1.08
  13   0   7   64.31    2.59
  13   0  -7   68.91    2.12
  13   0  -7   63.18    2.48
  13   1  -7    1.86    0.46
  13   1  -7    1.88    0.31
  13  -1   7    1.76    0.45
  13  -1  -7    2.19    0.44
  13   1   7    1.67    0.49
  13  -1  -7    1.44    0.24
  13   2  -7   13.70    0.78
 -13  -2  -7   15.08    0.98
  13  -2   7   13.58    1.02
  13   2  -7   13.48    0.98
  13  -2  -7   14.95    0.65
  13  -2  -7   13.90    0.94
  13   2   7   15.21    1.10
 -13  -3  -7   25.61    1.33
  13  -3   7   25.19    1.38
  13   3  -7   27.60    1.42
  13   3  -7   23.56    1.18
  13   3   7   25.75    1.45
  13  -3  -7   25.33    1.34
  13  -3  -7   24.06    0.97
  13  -4   7    0.09    0.30
  13   4  -7    0.06    0.28
 -13  -4  -7    0.17    0.34
  13   4  -7   -0.28    0.22
  13   4   7    0.00    0.30
  13  -4  -7   -0.17    0.26
  13  -4  -7    0.13    0.19
  13   5  -7    3.71    0.63
 -13  -5  -7    2.80    0.57
  13   5  -7    2.04    0.53
  13  -5   7    4.11    0.70
  13  -5  -7    2.24    0.49
  13   5   7    2.06    0.58
  13  -6   7    1.88    0.57
  13   6  -7    1.68    0.53
  13   6  -7    1.07    0.49
 -13  -6  -7    2.44    0.62
  13   6   7    2.24    0.62
  13  -6  -7    1.55    0.47
  13  -7   7    9.68    1.14
  13   7  -7    9.55    1.05
 -13  -7  -7    9.89    1.10
  13  -7  -7   11.79    1.09
  13   7   7   13.31    1.42
  13  -8   7    0.17    0.45
 -13  -8  -7    0.54    0.44
  13   8  -7   -0.09    0.43
  13   8  -7    0.31    0.43
  13  -8  -7    0.12    0.38
  13   8   7    0.83    0.58
  13   9  -7    7.22    1.10
 -13  -9  -7    8.81    1.14
  13  -9   7    7.11    1.08
  13   9   7    7.51    1.18
  13  -9  -7    9.35    1.05
  13 -10   7    9.10    1.24
  13  10  -7    8.70    1.31
 -13 -10  -7    9.44    1.17
  13  10   7    9.28    1.39
  13 -10  -7   10.57    1.32
  13  11  -7    0.07    0.54
 -13 -11  -7    0.64    0.55
  13 -11   7    0.00    0.53
  13  11   7   -0.56    0.53
  13 -11  -7    0.36    0.61
  13   0  -8    0.00    0.17
  13   0  -8   -0.34    0.22
  13   0   8   -0.24    0.27
  13  -1   8   21.75    1.29
  13   1  -8   22.40    0.94
 -13  -1  -8   20.51    1.14
  13   1  -8   21.76    1.27
  13  -1  -8   21.19    1.24
  13   1   8   18.94    1.26
  13   2  -8   27.36    1.19
  13  -2   8   28.52    1.51
 -13  -2  -8   28.94    1.44
  13   2  -8   27.94    1.49
  13   2   8   29.26    1.56
  13  -2  -8   28.19    1.45
  13   3  -8    6.02    0.64
  13  -3   8    6.74    0.81
 -13  -3  -8    6.61    0.77
  13   3  -8    7.20    0.85
  13   3   8    7.89    0.94
  13  -3  -8    7.38    0.84
  13   4  -8   13.56    0.93
 -13  -4  -8   14.29    1.07
  13   4  -8   13.17    1.05
  13  -4   8   13.63    1.08
  13   4   8   13.88    1.10
  13  -4  -8   12.36    0.97
  13  -5   8   10.90    1.12
 -13  -5  -8   11.01    1.08
  13   5  -8   11.91    0.93
  13   5  -8   12.88    1.22
  13   5   8   11.41    1.18
  13  -5  -8   11.66    0.94
  13  -6   8   20.74    1.41
  13   6  -8   20.47    1.31
  13   6  -8   17.19    1.30
 -13  -6  -8   21.80    1.42
  13  -6  -8   20.32    1.26
  13   6   8   22.07    1.47
  13   7  -8    9.37    1.14
  13  -7   8   10.61    1.14
  13   7  -8   10.96    1.16
 -13  -7  -8   10.27    1.12
  13  -7  -8   12.01    1.10
  13   7   8   10.60    1.27
  13  -8   8   16.03    1.29
  13   8  -8   13.90    1.38
 -13  -8  -8   14.01    1.41
  13   8   8   12.81    1.48
  13  -8  -8   13.67    1.10
 -13  -9  -8    1.30    0.64
  13  -9   8    1.65    0.67
  13   9  -8    1.30    0.71
  13  -9  -8    1.47    0.53
  13   9   8    1.00    0.65
  13  10  -8    3.23    0.93
 -13 -10  -8    2.67    0.76
  13 -10   8    3.92    0.96
  13  10   8    2.30    0.91
  13 -10  -8    2.12    0.74
  13   0   9   69.15    2.76
  13   0  -9   67.86    2.68
  13  -1   9    4.38    0.71
 -13  -1  -9    5.65    0.66
  13   1  -9    6.32    0.77
  13   1   9    5.66    0.81
  13  -1  -9    4.64    0.66
  13   2  -9   20.93    0.96
 -13  -2  -9   19.76    1.20
  13   2  -9   20.41    1.28
  13  -2   9   19.60    1.25
  13   2   9   17.59    1.27
  13  -2  -9   17.22    1.15
  13   3  -9    3.15    0.48
  13  -3   9    3.49    0.64
 -13  -3  -9    3.28    0.60
  13   3  -9    4.27    0.70
  13   3   9    2.38    0.58
  13  -3  -9    3.38    0.59
  13  -4   9    8.88    0.98
 -13  -4  -9    7.44    0.92
  13   4  -9    9.10    0.82
  13   4  -9    8.85    1.02
  13   4   9    6.85    0.93
  13  -4  -9    8.20    0.89
  13   5  -9    0.41    0.36
  13  -5   9    0.17    0.44
 -13  -5  -9    0.33    0.45
  13   5  -9    1.15    0.48
  13  -5  -9    0.27    0.34
  13   5   9    0.52    0.41
  13   6  -9   13.37    1.30
 -13  -6  -9   12.46    1.21
  13  -6   9   16.64    1.28
  13   6  -9   13.19    1.07
  13   6   9   11.49    1.28
  13  -6  -9   13.61    1.07
 -13  -7  -9   12.12    1.28
  13   7  -9   15.94    1.22
  13   7  -9   14.37    1.39
  13  -7   9   12.68    1.28
  13  -7  -9   14.82    1.13
  13   7   9   13.99    1.48
 -13  -8  -9    0.24    0.53
  13   8  -9    0.16    0.47
  13   8  -9    0.19    0.52
  13  -8   9   -0.14    0.53
  13   8   9    0.09    0.53
  13  -8  -9    0.44    0.44
 -13  -9  -9   13.03    1.43
  13   9  -9   14.63    1.48
  13  -9   9   13.50    1.51
  13  -9  -9   10.59    1.38
  13   9   9    8.62    1.33
 -13 -10  -9    6.33    1.08
  13  10  -9    3.83    0.94
  13 -10   9    4.15    0.97
  13 -10  -9    4.02    0.95
  13  10   9    4.02    0.99
  13   0  10   -0.14    0.32
 -13   0 -10    0.02    0.30
  13   0 -10    0.06    0.35
  13  -1  10   12.67    1.02
 -13  -1 -10   10.62    0.87
  13   1 -10   10.57    1.03
  13  -1 -10    9.87    1.03
  13   1  10   12.40    1.17
  13  -2  10   13.40    1.07
 -13  -2 -10   16.93    1.12
  13   2 -10   11.30    1.11
  13  -2 -10   12.45    0.99
  13   2  10   11.30    1.15
  13  -3  10    3.84    0.74
  13   3 -10    2.99    0.67
 -13  -3 -10    3.62    0.66
  13  -3 -10    2.27    0.54
  13   3  10    2.86    0.66
  13   4 -10    0.06    0.41
  13  -4  10   -0.03    0.41
  13   4 -10   -0.34    0.26
 -13  -4 -10   -0.21    0.39
  13   4  10    0.06    0.40
  13  -4 -10   -0.04    0.37
 -13  -5 -10   16.17    1.24
  13  -5  10   15.24    1.21
  13   5 -10   17.45    1.11
  13   5 -10   18.82    1.37
  13  -5 -10   18.01    1.24
  13   5  10   17.19    1.34
  13  -6  10    3.00    0.77
 -13  -6 -10    4.21    0.78
  13   6 -10    3.07    0.65
  13   6 -10    2.09    0.69
  13  -6 -10    2.68    0.63
  13   6  10    2.91    0.75
 -13  -7 -10    5.36    0.91
  13   7 -10    7.96    1.16
  13  -7  10    6.36    0.96
  13   7 -10    6.49    0.92
  13   7  10    8.07    1.18
  13  -7 -10    7.24    0.90
 -13  -8 -10   12.46    1.39
  13   8 -10   13.34    1.35
  13   8 -10   11.77    1.39
  13  -8  10   12.74    1.42
  13  -8 -10   11.94    1.19
  13   8  10   10.63    1.37
  13   9 -10    0.48    0.56
  13   9 -10    0.51    0.61
 -13  -9 -10   -0.07    0.55
  13  -9  10    0.19    0.59
  13   9  10   -0.30    0.55
  13  -9 -10   -0.21    0.59
 -13 -10 -10    0.12    0.63
  13 -10  10    0.72    0.63
  13  10 -10    2.89    0.85
  13  10  10    0.34    0.68
  13 -10 -10    1.90    0.79
 -13   0 -11   26.08    1.32
  13   0 -11   20.43    1.36
  13   0  11   22.88    1.46
  13   1 -11    1.52    0.49
  13  -1  11    1.45    0.52
 -13  -1 -11    1.30    0.46
  13   1  11    2.06    0.59
  13  -1 -11    0.88    0.48
 -13   1 -11    2.79    0.56
 -13  -2 -11    4.37    0.73
  13   2 -11    4.22    0.74
  13  -2  11    5.54    0.86
  13  -2 -11    4.20    0.71
 -13   2 -11    5.17    0.76
  13   2  11    7.44    1.00
 -13  -3 -11   17.24    1.22
  13   3 -11   13.70    1.30
  13  -3  11   13.80    1.15
 -13   3 -11   17.09    1.27
  13   3  11   13.75    1.33
  13  -3 -11   16.67    1.19
  13   4 -11    0.80    0.50
  13  -4  11    0.50    0.50
 -13  -4 -11    0.92    0.53
  13  -4 -11    0.41    0.44
  13   4  11    0.94    0.52
 -13   4 -11   -0.05    0.43
 -13  -5 -11    2.10    0.70
  13  -5  11    1.88    0.62
  13   5 -11    2.69    0.70
  13  -5 -11    3.06    0.68
  13   5  11    1.27    0.56
 -13  -6 -11    7.23    1.05
  13  -6  11    6.63    1.01
  13   6 -11    6.27    0.97
  13   6 -11    5.96    0.83
  13   6  11    5.66    0.95
  13  -6 -11    4.98    0.81
  13   7 -11    5.37    0.98
  13   7 -11    3.96    0.75
 -13  -7 -11    4.17    0.91
  13  -7  11    3.19    0.75
  13   7  11    3.65    0.84
  13  -7 -11    3.60    0.74
  13  -8  11    0.25    0.62
  13   8 -11   -0.27    0.50
 -13  -8 -11    0.08    0.48
  13   8 -11    0.51    0.55
  13  -8 -11   -0.46    0.42
  13   8  11   -0.74    0.45
  13   9 -11    4.76    0.96
  13   9 -11    3.35    0.93
  13  -9  11    3.38    0.95
 -13  -9 -11    3.84    0.96
  13  -9 -11    3.81    0.94
  13   9  11    5.02    1.11
 -13   0 -12    0.24    0.35
  13   0 -12   -0.45    0.35
  13   0  12   -0.44    0.35
 -13   0 -12    0.06    0.34
  13   1 -12    3.25    0.71
 -13  -1 -12    3.72    0.65
  13  -1  12    3.45    0.67
  13   1  12    3.63    0.73
 -13   1 -12    3.63    0.68
  13  -1 -12    1.60    0.55
  13   2 -12   12.89    1.25
  13  -2  12   16.45    1.23
 -13  -2 -12   14.81    1.16
 -13   2 -12   16.40    1.24
  13   2  12   17.49    1.33
  13  -2 -12   13.63    1.13
  13   3 -12   10.87    1.22
 -13  -3 -12    9.80    1.06
  13  -3  12    7.93    1.02
  13  -3 -12    9.80    1.05
 -13   3 -12    9.78    1.13
  13   3  12    8.33    1.03
 -13  -4 -12   13.83    1.30
  13   4 -12   11.50    1.26
  13  -4  12   14.81    1.42
 -13   4 -12   11.89    1.26
  13   4  12   12.81    1.30
  13  -4 -12   15.99    1.20
 -13  -5 -12   17.37    1.43
  13  -5  12   20.52    1.48
  13   5 -12   16.63    1.56
  13   5  12   17.97    1.42
 -13   5 -12   17.56    1.41
  13  -5 -12   18.80    1.34
 -13  -6 -12    0.55    0.57
  13  -6  12    0.99    0.61
  13   6 -12    0.24    0.52
  13   6  12    0.09    0.49
  13  -6 -12    0.43    0.47
 -13  -7 -12    4.16    0.94
  13   7 -12    1.25    0.67
  13  -7  12    2.85    0.78
  13  -7 -12    2.06    0.63
  13   7  12    2.73    0.82
  13  -8  12    3.63    0.87
  13   8 -12    3.66    0.88
 -13  -8 -12    2.26    0.74
  13   8  12    4.61    1.02
  13  -8 -12    2.65    0.89
  13   9 -12    1.49    0.78
 -13  -9 -12    0.90    0.75
  13  -9  12    1.79    0.82
  13   9  12    0.96    0.76
  13  -9 -12    2.03    0.87
  13   0 -13    3.52    0.72
 -13   0 -13    3.81    0.68
  13   0  13    4.44    0.82
 -13   0 -13    4.04    0.65
 -13  -1 -13    3.56    0.62
 -13  -1 -13    4.37    0.73
  13   1 -13    3.07    0.69
  13  -1  13    3.74    0.77
  13   1  13    4.64    0.80
 -13   1 -13    5.01    0.80
  13  -1 -13    3.60    0.73
 -13  -2 -13    1.80    0.58
  13  -2  13    2.37    0.69
  13   2 -13    1.28    0.56
 -13   2 -13    2.64    0.65
  13  -2 -13    2.33    0.67
  13   2  13    1.89    0.63
  13   3 -13    5.05    0.93
 -13  -3 -13    7.23    0.94
  13  -3  13    6.51    0.95
  13  -3 -13    5.50    0.83
 -13   3 -13    6.70    0.97
  13   3  13    5.65    0.90
  13  -4  13    4.08    0.85
 -13  -4 -13    3.40    0.78
  13   4 -13    2.34    0.68
 -13   4 -13    3.75    0.79
  13  -4 -13    1.59    0.56
  13   4  13    3.92    0.81
  13   5 -13    0.90    0.65
 -13  -5 -13    0.63    0.60
  13  -5  13    0.86    0.59
  13  -5 -13    0.49    0.46
  13   5  13    0.56    0.51
 -13   5 -13    0.50    0.54
 -13  -6 -13    3.47    0.86
  13   6 -13    1.78    0.71
  13  -6  13    3.67    0.81
  13   6  13    2.01    0.71
 -13   6 -13    4.28    0.98
  13  -6 -13    2.17    0.67
 -13  -7 -13    2.83    0.88
  13   7 -13    1.73    0.79
  13  -7  13    3.46    0.92
  13   7  13    2.70    0.84
  13  -7 -13    2.84    0.69
  13  -8  13   -0.17    0.58
  13   8 -13   -0.33    0.60
 -13  -8 -13    0.27    0.69
  13  -8 -13   -1.15    0.57
  13   8  13   -0.02    0.55
  13   0  14   -0.54    0.42
  13   0 -14   -0.17    0.46
 -13   0 -14   -0.26    0.38
 -13   0 -14    0.09    0.40
  13   1 -14    9.35    1.13
 -13  -1 -14    9.01    0.98
 -13  -1 -14   10.35    1.09
  13  -1  14   11.04    1.22
  13  -1 -14   10.65    1.19
 -13   1 -14   12.87    1.25
  13   1  14    9.93    1.14
 -13  -2 -14    5.87    0.90
  13  -2  14    4.68    0.88
  13   2 -14    5.32    0.96
  13  -2 -14    4.68    0.83
  13   2  14    5.00    0.89
 -13   2 -14    3.41    0.77
  13   3 -14   -0.04    0.45
  13  -3  14    0.86    0.56
 -13  -3 -14    0.11    0.47
  13  -3 -14    0.20    0.49
  13   3  14    0.27    0.49
 -13   3 -14    0.37    0.51
  13   4 -14    2.23    0.76
  13  -4  14    1.38    0.62
 -13  -4 -14    1.88    0.71
  13   4  14    2.41    0.72
 -13   4 -14    0.89    0.65
  13  -4 -14    2.53    0.67
  13   5 -14   10.13    1.33
  13  -5  14    8.84    1.13
 -13  -5 -14    8.21    1.14
  13   5  14    7.89    1.09
  13  -5 -14    8.38    1.09
 -13   5 -14    8.95    1.23
 -13  -6 -14    2.42    0.83
  13  -6  14    4.14    0.93
  13   6 -14    1.51    0.77
  13   6  14    1.77    0.75
 -13   6 -14    3.48    0.85
  13  -6 -14    1.88    0.64
  13  -7  14    1.28    0.68
 -13  -7 -14    3.17    0.91
  13   7 -14    3.06    0.97
  13  -7 -14    1.64    0.85
  13   7  14    3.07    0.92
  13  -7 -14    2.37    0.71
  13   8 -14    4.32    1.09
 -13  -8 -14    3.08    0.92
  13  -8  14    5.11    1.10
  13  -8 -14    4.05    1.10
  13   8  14    3.71    0.99
 -13   0 -15   12.10    1.19
  13   0  15   13.03    1.36
  13   0 -15   10.98    1.23
  13  -1  15   -0.01    0.50
 -13  -1 -15    0.56    0.44
 -13  -1 -15    0.98    0.52
  13   1 -15    0.07    0.49
 -13   1 -15    0.02    0.45
  13  -1 -15    1.47    0.63
  13   1  15    0.04    0.49
 -13  -2 -15    1.63    0.60
  13   2 -15    2.14    0.72
  13  -2  15    2.38    0.70
 -13   2 -15    1.33    0.65
  13   2  15    2.56    0.72
  13  -2 -15    2.45    0.69
  13   3 -15    4.71    0.91
 -13  -3 -15    7.30    1.01
  13  -3  15    6.72    1.03
  13   3  15    5.53    0.92
  13  -3 -15    6.38    0.97
 -13   3 -15    4.04    0.88
 -13  -4 -15    1.36    0.65
  13  -4  15    0.81    0.64
  13   4 -15    0.86    0.60
 -13   4 -15    1.37    0.64
  13   4  15    0.47    0.56
  13  -4 -15    0.47    0.54
  13  -5  15    0.63    0.64
 -13  -5 -15    0.99    0.65
  13   5 -15   -0.26    0.58
  13  -5 -15    0.84    0.54
  13   5  15    0.25    0.53
 -13   5 -15   -0.63    0.48
 -13  -6 -15    2.66    0.83
  13   6 -15    1.50    0.84
  13  -6  15    3.07    0.85
  13  -6 -15    2.63    0.75
 -13   6 -15    2.38    0.87
  13  -6 -15    2.52    0.94
  13   6  15    2.18    0.78
  13   7 -15    2.08    0.87
  13  -7  15    1.18    0.77
 -13  -7 -15    1.15    0.74
 -13   7 -15    1.41    0.78
  13  -7 -15    2.70    0.92
  13   0  16   -0.70    0.46
 -13   0 -16    0.07    0.47
  13   0 -16    0.04    0.54
  13  -1  16    1.36    0.65
  13   1 -16    1.05    0.65
 -13  -1 -16    1.26    0.61
  13   1  16    2.36    0.66
  13  -1 -16    1.16    0.63
 -13   1 -16    1.76    0.64
 -13  -2 -16    5.28    0.91
  13   2 -16    4.18    0.92
  13  -2  16    5.06    0.92
  13   2  16    3.39    0.74
  13  -2 -16    5.73    0.96
 -13   2 -16    4.20    0.88
  13  -3  16    0.01    0.57
  13   3 -16    0.19    0.55
 -13  -3 -16    0.03    0.53
  13  -3 -16   -0.02    0.54
  13   3  16   -0.01    0.47
 -13   3 -16    0.10    0.58
 -13  -4 -16    3.34    0.90
  13  -4  16    2.87    0.87
  13   4 -16    3.22    0.92
  13   4  16    3.84    0.86
  13  -4 -16    3.49    0.82
 -13   4 -16    3.91    0.89
 -13  -5 -16    4.52    0.98
  13  -5  16    5.33    1.04
  13   5 -16    4.29    1.02
  13  -5 -16    3.32    0.82
 -13   5 -16    4.54    1.01
  13  -6  16    0.51    0.63
  13   6 -16    0.34    0.72
 -13  -6 -16    0.10    0.68
 -13   6 -16    0.72    0.75
  13  -6 -16    0.20    0.55
  13  -6 -16   -1.70    0.55
  13   0  17    3.57    0.85
  13   0 -17    3.07    0.87
 -13   0 -17    3.69    0.79
  13   1 -17    0.41    0.62
  13  -1  17    1.27    0.60
 -13  -1 -17    1.08    0.61
 -13   1 -17    1.61    0.68
  13   1  17    0.88    0.60
  13  -1 -17    1.13    0.66
  13  -2  17    1.23    0.64
  13   2 -17    1.28    0.66
 -13  -2 -17    1.12    0.62
  13  -2 -17    0.74    0.64
 -13   2 -17    1.65    0.71
  13  -3  17    3.39    0.85
  13   3 -17    3.62    0.93
 -13  -3 -17    2.37    0.82
 -13   3 -17    3.45    0.89
  13  -3 -17    2.52    0.80
  13  -4  17    1.49    0.71
  13   4 -17    1.94    0.76
 -13  -4 -17    0.86    0.67
 -13   4 -17    0.09    0.69
  13  -4 -17    0.83    0.65
  13  -5  17   -0.51    0.58
 -13  -5 -17   -0.53    0.61
  13   5 -17    0.25    0.62
  13  -5 -17    0.11    0.70
  13  -5 -17    0.08    0.58
 -13   5 -17    0.06    0.74
  13   0 -18   -0.13    0.59
 -13   0 -18    0.30    0.61
  13   1 -18    1.29    0.73
 -13   1 -18    2.35    0.76
  13  -1 -18    0.91    0.66
 -13  -2 -18    2.28    0.78
  13  -2  18    2.47    0.80
  13   2 -18    1.46    0.80
 -13   2 -18    1.02    0.66
  13  -2 -18    0.80    0.65
  13   3 -18   -0.57    0.62
  13  -3  18   -0.10    0.57
 -13  -3 -18    0.26    0.62
  13  -3 -18    1.73    0.90
  13  -3 -18   -0.15    0.48
 -13   3 -18    0.85    0.62
  13  -4  18    1.40    0.75
 -13  -4 -18    0.79    0.73
  13   4 -18    0.33    0.72
  13  -4 -18    1.13    0.72
 -13   4 -18    1.84    0.86
  13  -4 -18   -0.16    0.67
  13   0 -19    4.95    1.05
  13   1 -19    0.77    0.81
  13  -1 -19    0.41    0.64
  13  -1 -19    1.46    0.82
 -13   1 -19    0.79    0.70
  13   2 -19   -0.27    0.70
  13  -2 -19    0.52    0.70
  14   0   0   22.99    1.12
  14   1   0   38.65    1.50
  14   1   0   38.05    1.56
  14  -1   0   36.50    1.54
  14  -2   0    5.04    0.58
  14   2   0    7.01    0.69
  14  -3   0   42.26    1.72
  14   3   0   41.45    1.58
  14   3   0   41.78    1.74
  14  -4   0   19.71    1.08
  14   4   0   20.86    1.17
  14   4   0   19.14    0.95
  14  -5   0   14.63    0.93
  14   5   0   15.14    1.02
  14  -6   0   11.88    0.90
  14   6   0   12.85    1.01
  14   7   0   22.00    1.47
  14  -7   0   23.50    1.35
  14   8   0    6.66    1.03
  14  -8   0    6.08    0.82
  14   9   0    7.49    1.17
  14  -9   0    8.06    1.04
  14 -10   0   27.22    1.69
  14  10   0   25.11    1.86
  14 -11   0    0.24    0.55
  14  11   0    1.21    0.77
  14   0  -1    0.38    0.23
  14   0   1    0.06    0.23
  14   0  -1    0.16    0.22
  14   1  -1    1.75    0.35
  14  -1   1    1.65    0.38
  14   1  -1    1.78    0.36
  14  -1  -1    2.15    0.38
  14   1   1    1.94    0.40
  14   2  -1   28.34    1.25
  14   2  -1   25.77    1.17
  14  -2   1   30.74    1.35
  14  -2  -1   27.38    1.23
  14   2   1   23.78    1.10
  14   2   1   26.22    1.27
  14   3  -1    4.53    0.51
  14  -3   1    3.82    0.54
  14   3  -1    4.13    0.54
  14  -3  -1    3.20    0.48
  14   3   1    5.27    0.65
  14   3   1    3.45    0.43
  14   4  -1   25.55    1.33
  14   4  -1   26.28    1.21
  14  -4   1   27.48    1.35
  14   4   1   28.56    1.17
  14   4   1   27.49    1.39
  14  -4  -1   29.30    1.31
  14   5  -1   18.53    1.17
  14  -5   1   19.33    1.12
  14   5  -1   19.49    1.03
  14  -5  -1   21.71    1.13
  14   5   1   22.64    1.27
  14   6  -1    0.61    0.42
  14  -6   1    0.21    0.33
  14   6   1    0.11    0.34
  14  -6  -1    0.20    0.29
  14  -7   1   20.25    1.26
  14   7  -1   19.76    1.36
  14   7   1   19.49    1.36
  14  -7  -1   18.13    1.17
  14  -8   1   18.78    1.28
  14   8  -1   16.97    1.35
  14   8   1   17.12    1.38
  14  -8  -1   19.52    1.27
  14   9  -1    1.17    0.58
  14  -9   1    0.55    0.50
  14  -9  -1    0.48    0.45
  14   9   1    0.24    0.48
  14 -10   1    6.69    1.03
  14  10  -1    7.00    1.17
  14 -10  -1    6.12    0.92
  14  10   1    5.01    1.04
  14 -11   1    9.16    1.20
  14  11  -1    9.49    1.45
  14  11   1    5.77    1.19
  14 -11  -1    7.65    1.09
  14   0  -2  119.49    3.78
  14   0  -2  118.08    3.68
  14   0   2  114.64    3.84
  14   1  -2   32.17    1.31
  14  -1   2   28.99    1.39
  14   1  -2   32.30    1.36
  14   1   2   30.89    1.41
  14  -1  -2   29.05    1.27
  14  -1  -2   31.52    1.37
  14   2  -2   14.13    0.83
  14   2  -2   15.54    0.84
  14  -2   2   15.58    0.95
  14   2   2   13.29    0.90
  14   2   2   13.48    0.74
  14  -2  -2   14.17    0.81
  14  -2  -2   12.54    0.83
  14   3  -2   67.21    2.39
  14  -3   2   64.33    2.43
  14   3   2   65.00    2.16
  14   3   2   65.85    2.47
  14  -3  -2   61.85    2.29
  14   4  -2    2.49    0.45
  14   4  -2    3.87    0.52
  14  -4   2    2.30    0.48
  14   4   2    2.88    0.54
  14  -4  -2    2.60    0.43
  14  -5   2    0.01    0.30
  14   5  -2    0.88    0.38
  14   5  -2   -0.09    0.20
  14  -5  -2    0.59    0.31
  14   5   2    0.61    0.37
  14  -6   2   12.36    0.97
  14   6  -2   11.44    0.82
  14   6  -2   12.92    1.19
  14   6   2   12.73    1.03
  14  -6  -2   12.90    0.88
  14  -7   2   15.65    1.14
  14   7  -2   16.67    1.27
  14   7   2   15.32    1.45
  14  -7  -2   17.47    1.10
  14  -8   2    6.09    0.85
  14   8  -2    8.23    1.12
  14  -8  -2    6.70    0.87
  14   8   2    6.56    1.06
  14   9  -2   11.34    1.36
  14  -9   2   11.92    1.26
  14   9   2   11.22    1.35
  14  -9  -2    8.71    1.01
  14  10  -2   13.10    1.56
  14 -10   2   10.81    1.26
  14  10   2    8.87    1.30
  14 -10  -2   11.08    1.14
  14  11  -2    0.06    0.57
  14 -11   2   -0.08    0.58
  14  11   2    0.24    0.64
  14 -11  -2    0.30    0.50
  14   0  -3   -0.12    0.22
  14   0  -3    0.19    0.19
  14   0   3   -0.24    0.19
  14   1  -3   20.51    1.03
  14   1  -3   19.04    0.93
  14  -1   3   18.81    1.09
  14  -1  -3   18.92    0.91
  14  -1  -3   18.20    1.01
  14   1   3   17.09    1.03
  14  -2   3   33.24    1.55
  14   2  -3   33.23    1.45
  14   2  -3   33.40    1.40
  14  -2  -3   32.67    1.35
  14  -2  -3   35.06    1.50
  14   2   3   34.34    1.55
  14   3  -3    6.65    0.68
  14  -3   3    8.56    0.83
  14   3  -3    7.62    0.72
  14  -3  -3    6.59    0.62
  14   3   3    7.15    0.50
  14  -3  -3    8.23    0.79
  14   3   3    7.35    0.78
  14  -4   3   14.41    0.96
  14   4  -3   13.33    0.92
  14  -4  -3   14.27    0.84
  14   4   3   14.51    0.99
  14   5  -3   28.04    1.33
  14  -5   3   26.04    1.39
  14   5  -3   23.10    1.35
  14  -5  -3   25.89    1.22
  14   5   3   25.18    1.43
  14  -6   3    1.17    0.47
  14   6  -3    1.29    0.38
  14   6  -3    1.22    0.43
  14   6   3    0.71    0.44
  14  -6  -3    0.65    0.33
  14  -7   3    7.23    0.91
  14   7  -3    6.63    0.96
  14  -7  -3    6.57    0.76
  14   7   3    5.36    0.89
  14   8  -3   19.28    1.43
  14  -8   3   18.84    1.31
  14   8   3   18.66    1.45
  14  -8  -3   20.22    1.26
  14  -9   3    0.56    0.47
  14   9  -3    0.22    0.47
  14  -9  -3    0.06    0.41
  14   9   3    0.20    0.54
  14 -10   3    3.77    0.82
  14  10  -3    3.16    0.93
  14 -10  -3    4.57    0.79
  14  10   3    3.16    0.91
  14 -11   3    2.76    0.81
  14  11  -3    3.98    1.03
  14 -11  -3    3.39    0.77
  14  11   3    2.47    0.89
  14   0  -4   29.60    1.36
  14   0  -4   29.22    1.19
  14   0   4   29.91    1.44
  14   1  -4   13.83    0.87
  14   1  -4   12.82    0.73
  14  -1   4   13.36    0.94
  14  -1  -4   13.86    0.72
  14   1   4   15.42    0.98
  14  -1  -4   13.22    0.85
  14   2  -4   12.58    0.76
  14   2  -4   12.09    0.83
  14  -2   4   11.59    0.87
  14   2   4   12.44    0.91
  14  -2  -4   12.31    0.84
  14  -2  -4   12.74    0.71
  14   3  -4   27.38    1.30
  14   3  -4   28.61    1.37
  14  -3   4   27.43    1.44
  14  -3  -4   31.44    1.43
  14  -3  -4   30.62    1.24
  14   3   4   28.70    1.46
  14   4  -4    9.92    0.76
  14   4  -4    7.62    0.77
  14  -4   4   10.82    0.84
  14  -4  -4   10.67    0.68
  14  -4  -4    8.55    0.81
  14   4   4    9.13    0.92
  14  -5   4    3.62    0.63
 -14  -5  -4    2.34    0.50
  14   5  -4    3.47    0.59
  14   5   4    2.70    0.58
  14  -5  -4    3.28    0.59
  14  -5  -4    2.82    0.46
  14   6  -4   10.08    0.94
 -14  -6  -4    8.49    0.92
  14   6  -4    9.86    1.01
  14  -6   4    9.17    0.94
  14  -6  -4    9.14    0.73
  14  -6  -4    9.43    0.92
  14   6   4   10.26    1.11
  14   7  -4   17.56    1.32
  14   7  -4   18.05    1.17
  14  -7   4   16.45    1.19
 -14  -7  -4   18.43    1.25
  14  -7  -4   17.25    1.06
  14   7   4   19.74    1.43
  14  -7  -4   17.73    1.18
  14  -8   4   -0.23    0.41
  14   8  -4    0.01    0.44
 -14  -8  -4    0.09    0.36
  14  -8  -4   -0.60    0.34
  14   8   4    0.41    0.49
  14  -8  -4   -0.04    0.37
  14   9  -4    8.58    1.20
  14  -9   4    8.71    1.13
 -14  -9  -4   10.13    1.11
  14   9   4    9.72    1.31
  14  -9  -4    8.57    0.97
  14  -9  -4    8.16    0.93
 -14 -10  -4   11.48    1.22
  14 -10   4   10.46    1.30
  14  10  -4    9.12    1.32
  14 -10  -4   10.40    1.11
  14  10   4   10.79    1.54
  14 -10  -4   10.57    1.15
 -14 -11  -4    0.24    0.51
  14 -11   4    0.22    0.61
  14  11  -4   -0.40    0.58
  14  11   4   -0.98    0.54
  14   0  -5    0.13    0.16
  14   0  -5    0.01    0.20
  14   0   5   -0.04    0.25
  14  -1   5   13.75    0.94
  14   1  -5   12.67    0.71
  14   1  -5   11.36    0.82
  14  -1  -5   12.55    0.86
  14  -1  -5   12.16    0.65
  14   1   5   11.23    0.87
  14   2  -5   18.08    1.06
  14  -2   5   19.84    1.19
  14   2  -5   21.17    0.99
  14   2   5   19.12    1.19
  14  -2  -5   20.08    0.89
  14  -2  -5   17.40    1.06
  14   3  -5    9.06    0.86
  14   3  -5    8.85    0.71
  14  -3   5    8.64    0.90
  14   3   5    8.77    0.92
  14  -3  -5    7.68    0.79
  14  -3  -5    8.26    0.57
  14  -4   5   16.20    1.07
 -14  -4  -5   16.44    1.06
  14   4  -5   16.43    1.01
  14   4  -5   16.44    1.04
  14  -4  -5   14.32    0.82
  14  -4  -5   16.32    1.05
  14   4   5   15.94    1.12
  14   5  -5   43.42    1.96
  14  -5   5   45.10    2.01
 -14  -5  -5   46.15    2.00
  14   5   5   46.60    2.14
  14  -5  -5   43.58    1.72
  14  -5  -5   44.62    1.95
 -14  -6  -5    5.24    0.74
  14   6  -5    6.61    0.86
  14  -6   5    4.80    0.78
  14   6  -5    6.21    0.80
  14  -6  -5    4.43    0.64
  14  -6  -5    5.12    0.60
  14   6   5    5.76    0.88
  14   7  -5   16.71    1.17
  14   7  -5   15.98    1.30
 -14  -7  -5   18.41    1.25
  14  -7   5   20.67    1.32
  14  -7  -5   17.38    1.19
  14  -7  -5   18.85    1.07
  14   7   5   17.24    1.35
  14   8  -5   13.12    1.35
  14  -8   5   15.69    1.26
 -14  -8  -5   14.29    1.31
  14   8   5   12.67    1.41
  14  -8  -5   13.34    1.08
  14  -8  -5   16.86    1.08
  14  -9   5    2.45    0.72
 -14  -9  -5    1.25    0.58
  14   9  -5    1.96    0.68
  14   9   5    1.44    0.65
  14  -9  -5    1.45    0.54
  14 -10   5    0.87    0.60
 -14 -10  -5    1.06    0.56
  14  10  -5    1.89    0.78
  14 -10  -5    0.36    0.52
  14 -10  -5    0.96    0.54
  14  10   5    1.28    0.76
  14  11  -5    4.20    1.03
 -14 -11  -5    5.06    0.93
  14 -11   5    2.65    0.79
  14  11   5    2.67    0.99
  14   0   6   31.17    1.57
  14   0  -6   30.28    1.17
  14   0  -6   29.44    1.46
  14   1  -6    1.01    0.27
  14  -1   6    0.99    0.39
  14   1  -6    0.73    0.32
  14   1   6    0.19    0.32
  14  -1  -6    0.89    0.32
  14  -1  -6    0.85    0.22
  14   2  -6   11.23    0.74
  14   2  -6   12.04    0.89
  14  -2   6   12.69    0.95
  14  -2  -6   13.35    0.67
  14   2   6   12.48    0.97
  14  -2  -6   11.48    0.88
  14   3  -6   20.85    1.11
 -14  -3  -6   20.08    1.17
  14  -3   6   24.06    1.33
  14   3  -6   22.39    1.24
  14  -3  -6   19.09    1.15
  14  -3  -6   21.57    0.93
  14   3   6   18.98    1.26
  14   4  -6    0.21    0.29
  14  -4   6    0.00    0.30
 -14  -4  -6    0.43    0.35
  14   4  -6    0.46    0.35
  14   4   6    0.63    0.43
  14  -4  -6    0.22    0.32
  14  -4  -6    0.49    0.24
  14   5  -6    3.93    0.65
  14  -5   6    3.42    0.65
  14   5  -6    2.62    0.56
 -14  -5  -6    2.90    0.59
  14  -5  -6    3.72    0.63
  14  -5  -6    2.87    0.43
  14   5   6    4.66    0.81
  14   6  -6    9.30    0.99
 -14  -6  -6    8.51    0.96
  14  -6   6    6.61    0.92
  14  -6  -6    9.89    0.94
  14   6   6    8.42    1.04
  14  -6  -6   10.15    0.74
 -14  -7  -6    2.04    0.56
  14   7  -6    4.01    0.71
  14  -7   6    2.08    0.61
  14   7  -6    3.84    0.78
  14   7   6    2.90    0.74
  14  -7  -6    1.72    0.54
  14   8  -6   -0.03    0.48
  14  -8   6    0.64    0.51
 -14  -8  -6    0.58    0.42
  14   8   6    0.07    0.47
  14  -8  -6   -0.50    0.35
 -14  -9  -6    8.27    1.06
  14  -9   6   10.70    1.24
  14   9   6    9.02    1.34
  14  -9  -6    7.79    0.96
  14  10  -6    8.76    1.31
 -14 -10  -6    8.98    1.17
  14 -10   6   10.98    1.31
  14  10   6    7.65    1.29
  14 -10  -6    9.11    1.25
 -14 -11  -6   -0.32    0.48
  14 -11   6    0.36    0.58
  14  11  -6    0.70    0.69
  14  11   6   -0.30    0.52
  14 -11  -6    0.60    0.57
  14   0  -7    0.24    0.18
  14   0   7   -0.04    0.30
  14   0  -7    0.81    0.36
  14   1  -7   11.60    0.68
  14   1  -7   11.73    0.88
  14  -1   7   12.67    0.97
  14   1   7   10.89    1.05
  14  -1  -7   11.56    0.90
  14  -1  -7   12.09    0.60
  14  -2   7   60.01    2.49
  14   2  -7   58.62    2.42
  14   2  -7   61.67    2.18
  14   2   7   60.13    2.54
  14  -2  -7   64.01    1.99
  14  -2  -7   63.09    2.43
 -14  -3  -7    3.81    0.64
  14   3  -7    3.75    0.54
  14  -3   7    3.37    0.62
  14   3  -7    3.97    0.65
  14  -3  -7    4.52    0.43
  14   3   7    3.62    0.64
  14  -3  -7    4.18    0.62
  14   4  -7   15.90    1.04
  14  -4   7   18.07    1.23
  14   4  -7   16.47    1.13
 -14  -4  -7   16.69    1.11
  14   4   7   16.04    1.18
  14  -4  -7   18.22    1.14
  14   5  -7   25.49    1.39
  14  -5   7   23.28    1.42
  14   5  -7   24.59    1.44
 -14  -5  -7   23.75    1.43
  14  -5  -7   23.95    1.38
  14   5   7   22.14    1.48
 -14  -6  -7    3.76    0.72
  14   6  -7    4.73    0.75
  14   6  -7    3.26    0.66
  14  -6   7    4.54    0.81
  14   6   7    4.33    0.82
  14  -6  -7    3.92    0.66
  14   7  -7    2.16    0.60
 -14  -7  -7    1.72    0.62
  14  -7   7    2.85    0.67
  14  -7  -7    3.37    0.64
  14   7   7    2.47    0.76
  14  -8   7   11.12    1.26
  14   8  -7    9.82    1.21
 -14  -8  -7    8.85    1.09
  14   8  -7   12.88    1.28
  14   8   7   11.05    1.39
  14  -8  -7    9.96    1.07
 -14  -9  -7    1.37    0.62
  14  -9   7    1.66    0.69
  14   9  -7    1.66    0.73
  14   9   7    2.72    0.82
  14  -9  -7    1.08    0.59
  14  10  -7    0.66    0.60
 -14 -10  -7    0.41    0.57
  14 -10   7    2.44    0.76
  14 -10  -7    1.80    0.74
  14  10   7    1.45    0.79
  14   0   8   39.69    1.88
  14   0  -8   38.06    1.37
  14   0  -8   39.05    1.80
  14   1  -8    6.32    0.55
  14   1  -8    6.98    0.80
  14  -1   8    7.10    0.86
  14  -1  -8    6.63    0.82
  14   1   8    7.28    0.89
  14   2  -8    9.96    0.97
  14   2  -8   10.92    0.72
 -14  -2  -8   10.44    0.98
  14  -2   8   11.24    1.09
  14   2   8   10.64    1.07
  14  -2  -8    9.32    0.97
  14   3  -8   13.77    0.88
 -14  -3  -8   15.05    1.04
  14   3  -8   14.56    1.06
  14  -3   8   15.23    1.15
  14   3   8   14.47    1.15
  14  -3  -8   13.57    1.03
  14  -4   8    8.66    1.01
  14   4  -8    8.96    0.85
 -14  -4  -8   10.50    1.03
  14   4  -8    7.99    0.94
  14  -4  -8    8.96    0.95
  14   4   8    9.17    1.07
  14  -5   8    0.49    0.43
 -14  -5  -8    1.08    0.48
  14   5  -8    0.84    0.43
  14   5  -8    0.66    0.44
  14   5   8    0.85    0.47
  14  -5  -8    0.51    0.40
  14   6  -8    9.89    1.12
  14  -6   8    7.76    0.99
 -14  -6  -8    7.62    1.00
  14   6  -8    8.70    0.98
  14   6   8    6.39    1.01
  14  -6  -8    9.24    0.96
  14  -7   8    8.66    1.11
  14   7  -8    8.67    1.06
  14   7  -8    9.16    1.06
 -14  -7  -8    8.03    1.04
  14   7   8   10.31    1.28
  14  -7  -8   10.35    1.05
 -14  -8  -8   -0.16    0.43
  14  -8   8   -0.25    0.41
  14   8  -8   -0.12    0.47
  14  -8  -8    0.07    0.40
  14   8   8    0.78    0.59
 -14  -9  -8    7.20    1.08
  14   9  -8    8.57    1.19
  14  -9   8    7.34    1.11
  14  -9  -8    7.75    0.99
  14   9   8    9.59    1.38
  14 -10   8    9.44    1.33
  14  10  -8    6.09    1.12
 -14 -10  -8    7.95    1.15
  14  10   8    8.77    1.46
  14 -10  -8    6.14    1.12
  14   0   9    0.31    0.40
  14   0  -9    0.24    0.32
  14   1  -9   14.96    1.12
  14  -1   9   18.12    1.20
 -14  -1  -9   14.97    1.03
  14   1   9   15.92    1.21
  14  -1  -9   16.24    1.11
  14  -2   9    6.32    0.84
  14   2  -9    5.32    0.75
 -14  -2  -9    5.99    0.76
  14   2  -9    5.24    0.55
  14   2   9    5.75    0.83
  14  -2  -9    7.22    0.88
  14  -3   9   -0.31    0.37
 -14  -3  -9    0.34    0.41
  14   3  -9   -0.11    0.26
  14   3  -9    0.73    0.41
  14  -3  -9   -0.40    0.31
  14   3   9    0.27    0.43
  14   4  -9    0.79    0.35
  14  -4   9    1.32    0.51
  14   4  -9    0.87    0.47
 -14  -4  -9    0.34    0.37
  14   4   9    0.15    0.38
  14  -4  -9    0.53    0.41
 -14  -5  -9   22.67    1.47
  14   5  -9   19.09    1.40
  14  -5   9   21.01    1.44
  14   5  -9   22.27    1.29
  14  -5  -9   20.86    1.31
  14   5   9   20.55    1.47
  14   6  -9    5.88    0.83
  14  -6   9    5.68    0.96
 -14  -6  -9    6.43    0.91
  14   6  -9    6.61    0.93
  14   6   9    8.04    1.14
  14  -6  -9    5.13    0.77
  14  -7   9    7.66    1.06
 -14  -7  -9    9.39    1.16
  14   7  -9    7.76    1.09
  14   7  -9    8.71    1.04
  14  -7  -9    7.09    0.93
  14   7   9    7.88    1.18
  14  -8   9   11.59    1.34
 -14  -8  -9   10.00    1.23
  14   8  -9   12.33    1.32
  14   8  -9    9.13    1.17
  14  -8  -9   11.53    1.21
  14   8   9   13.17    1.59
  14  -9   9    0.92    0.67
  14   9  -9    0.01    0.55
 -14  -9  -9    0.50    0.52
  14   9   9    0.45    0.57
 -14 -10  -9    1.61    0.76
  14 -10   9    1.51    0.72
  14  10  -9    3.17    0.94
  14 -10  -9    1.04    0.74
  14  10   9    2.62    0.93
  14   0 -10   38.97    1.94
  14   0  10   41.68    2.01
  14  -1  10    1.52    0.55
  14   1 -10    1.90    0.57
 -14  -1 -10    2.40    0.54
  14   1  10    1.72    0.58
  14  -1 -10    0.88    0.45
 -14  -2 -10   19.65    1.24
  14  -2  10   21.56    1.38
  14   2 -10   20.41    1.37
  14  -2 -10   19.68    1.29
  14   2  10   21.19    1.46
  14  -3  10    5.09    0.80
  14   3 -10    4.33    0.75
 -14  -3 -10    6.06    0.82
  14   3  10    5.97    0.91
  14  -3 -10    6.95    0.87
  14   4 -10    0.43    0.42
  14  -4  10   -0.01    0.41
  14   4 -10   -0.22    0.29
 -14  -4 -10   -0.22    0.39
  14   4  10    0.32    0.48
  14  -4 -10    0.33    0.37
  14  -5  10    0.10    0.44
  14   5 -10   -0.21    0.33
 -14  -5 -10   -0.20    0.42
  14   5 -10    0.54    0.45
  14  -5 -10   -0.12    0.34
  14   5  10   -0.45    0.34
 -14  -6 -10    9.79    1.15
  14   6 -10   11.16    1.27
  14  -6  10   11.83    1.30
  14   6 -10   10.32    1.06
  14  -6 -10   10.50    1.11
  14   6  10   10.67    1.31
  14   7 -10    8.16    1.02
  14   7 -10    7.37    1.10
 -14  -7 -10    9.13    1.17
  14  -7  10    7.60    1.08
  14  -7 -10    8.28    1.03
  14   7  10    7.79    1.20
 -14  -8 -10    1.22    0.57
  14   8 -10   -0.02    0.49
  14  -8  10    0.92    0.71
  14   8 -10    0.54    0.54
  14   8  10   -0.19    0.46
  14  -8 -10    0.24    0.44
 -14  -9 -10    3.89    0.88
  14   9 -10    5.50    1.00
  14  -9  10    7.15    1.16
  14   9  10    6.50    1.21
  14  -9 -10    5.15    1.06
  14   0 -11   -0.32    0.30
  14   0  11   -0.10    0.40
  14  -1  11   13.81    1.13
 -14  -1 -11   15.11    1.05
  14   1 -11   12.18    1.21
  14   1  11   13.89    1.14
  14  -1 -11   13.97    1.11
  14   2 -11   12.39    1.21
  14  -2  11    9.66    1.10
 -14  -2 -11   11.85    1.11
  14  -2 -11    9.67    1.04
  14   2  11    9.25    1.08
  14   3 -11    4.15    0.78
  14  -3  11    3.77    0.78
 -14  -3 -11    4.08    0.72
  14  -3 -11    4.34    0.72
  14   3  11    4.14    0.78
  14  -4  11    8.97    1.07
  14   4 -11    7.67    1.06
 -14  -4 -11    9.16    1.06
  14   4  11    7.80    1.07
  14  -4 -11    9.29    1.04
  14  -5  11   18.91    1.40
 -14  -5 -11   19.04    1.44
  14   5 -11   19.42    1.48
  14  -5 -11   17.63    1.28
  14   5  11   18.68    1.42
  14   6 -11    0.99    0.57
 -14  -6 -11    0.51    0.55
  14  -6  11    0.83    0.56
  14  -6 -11    1.63    0.56
  14   6  11    0.54    0.59
  14  -7  11    5.74    1.02
  14   7 -11    5.06    1.01
 -14  -7 -11    3.90    0.84
  14   7 -11    3.31    0.75
  14   7  11    4.21    0.95
  14  -7 -11    4.04    0.80
  14  -8  11    4.82    1.00
  14   8 -11    4.90    0.91
  14   8 -11    5.33    1.01
 -14  -8 -11    7.38    1.17
  14  -8 -11    5.85    0.91
  14   8  11    7.70    1.29
  14   9 -11    0.29    0.63
 -14  -9 -11    0.78    0.72
  14   9 -11    0.19    0.59
  14  -9  11    0.23    0.61
  14  -9 -11    0.61    0.69
  14   9  11    0.46    0.66
  14   0  12    2.88    0.68
  14   0 -12    3.56    0.68
 -14   0 -12    2.99    0.60
  14  -1  12    1.68    0.63
 -14  -1 -12    2.33    0.57
  14   1 -12    3.68    0.69
  14  -1 -12    2.22    0.60
  14   1  12    1.98    0.63
  14  -2  12    0.00    0.47
  14   2 -12    1.04    0.53
 -14  -2 -12    0.84    0.44
  14  -2 -12    0.71    0.46
  14   2  12    0.83    0.49
  14  -3  12   10.43    1.20
  14   3 -12   13.27    1.32
 -14  -3 -12   16.22    1.25
  14  -3 -12   12.60    1.21
  14   3  12   12.54    1.32
  14  -4  12    4.90    0.86
 -14  -4 -12    5.39    0.89
  14   4 -12    3.61    0.82
  14   4  12    4.55    0.87
  14  -4 -12    4.75    0.81
  14  -5  12    2.43    0.66
 -14  -5 -12    2.31    0.73
  14   5 -12    0.72    0.60
  14   5  12    2.41    0.73
  14  -5 -12    3.60    0.77
  14  -6  12    2.85    0.78
  14   6 -12    3.78    0.82
 -14  -6 -12    3.10    0.80
  14  -6 -12    2.76    0.71
  14   6  12    2.24    0.77
  14  -7  12    1.80    0.71
  14   7 -12    2.55    0.84
 -14  -7 -12    1.57    0.71
  14  -7 -12    3.05    0.75
  14   7  12    2.13    0.78
  14   8 -12   -0.87    0.49
  14  -8  12   -0.48    0.55
 -14  -8 -12   -0.71    0.54
  14  -8 -12   -0.11    0.56
  14   8  12   -0.62    0.53
 -14  -9 -12    2.63    0.91
  14   9 -12    2.65    0.89
  14  -9  12    0.60    0.63
  14  -9 -12    1.61    0.79
  14   9  12    3.16    0.96
  14   0 -13   -0.47    0.33
  14   0  13    0.20    0.43
 -14   0 -13   -0.24    0.34
 -14  -1 -13    5.66    0.83
  14   1 -13    4.44    0.87
  14  -1  13    5.73    0.96
 -14   1 -13    5.35    0.84
  14  -1 -13    3.95    0.75
  14   1  13    5.69    0.89
 -14  -2 -13   11.77    1.19
  14   2 -13    9.44    1.18
  14  -2  13    9.38    1.13
  14   2  13   10.14    1.23
  14  -2 -13   10.49    1.18
 -14   2 -13   10.09    1.17
 -14  -3 -13    3.35    0.73
  14   3 -13    2.13    0.67
  14  -3  13    1.11    0.57
 -14   3 -13    1.80    0.61
  14  -3 -13    1.52    0.58
  14   3  13    1.34    0.64
  14   4 -13    2.51    0.78
  14  -4  13    3.63    0.79
 -14  -4 -13    4.97    0.89
  14   4  13    2.81    0.74
 -14   4 -13    3.64    0.79
  14  -4 -13    2.94    0.69
  14   5 -13    8.56    1.20
  14  -5  13   12.78    1.36
 -14  -5 -13   10.46    1.28
  14  -5 -13   10.03    1.12
  14   5  13   12.07    1.35
 -14  -6 -13    0.49    0.69
  14   6 -13    1.45    0.72
  14  -6  13    1.18    0.71
  14   6  13    0.88    0.65
  14  -6 -13    1.39    0.57
  14   7 -13    1.50    0.73
 -14  -7 -13    3.87    0.93
  14  -7  13    2.54    0.79
  14   7  13    2.30    0.76
  14  -7 -13    2.77    0.74
  14   8 -13    3.05    0.92
  14  -8  13    2.54    0.90
 -14  -8 -13    2.25    0.87
  14  -8 -13    1.56    0.82
  14   8  13    2.64    0.89
  14   0 -14   16.61    1.55
 -14   0 -14   19.63    1.33
  14   0  14   17.17    1.41
 -14   0 -14   17.90    1.25
  14   1 -14    0.37    0.55
  14  -1  14   -0.02    0.49
 -14  -1 -14    0.76    0.50
  14   1  14    1.02    0.57
 -14   1 -14    1.00    0.55
  14  -1 -14   -0.10    0.42
  14  -2  14    4.71    0.83
 -14  -2 -14    4.33    0.82
  14   2 -14    5.89    0.96
 -14   2 -14    6.49    1.00
  14  -2 -14    4.86    0.87
  14   2  14    3.97    0.82
 -14  -3 -14    4.93    0.91
  14   3 -14    4.71    0.95
  14  -3  14    2.71    0.72
  14  -3 -14    6.01    0.94
 -14   3 -14    5.41    0.92
  14   3  14    5.06    0.91
  14   4 -14    0.89    0.59
 -14  -4 -14    1.07    0.64
  14  -4  14    1.22    0.61
  14  -4 -14    1.68    0.60
 -14   4 -14    2.75    0.72
  14   4  14    1.02    0.62
  14  -5  14    0.64    0.60
  14   5 -14    0.04    0.53
 -14  -5 -14   -0.04    0.58
 -14   5 -14   -0.34    0.46
  14   5  14    0.03    0.51
  14  -5 -14    0.08    0.49
  14   6 -14    5.25    1.08
  14  -6  14    6.13    1.09
 -14  -6 -14    6.34    1.11
  14   6  14    4.72    0.97
  14  -6 -14    7.31    1.03
  14  -7  14    0.53    0.70
  14   7 -14    0.70    0.63
 -14  -7 -14    1.63    0.78
  14   7  14    1.46    0.73
  14  -7 -14    1.58    0.79
  14  -7 -14    1.18    0.65
  14   0 -15   -0.52    0.40
 -14   0 -15   -0.23    0.46
  14   0  15    0.55    0.56
  14  -1  15    4.43    0.82
  14   1 -15    5.66    1.00
 -14  -1 -15    3.19    0.69
 -14   1 -15    5.31    0.88
  14   1  15    3.79    0.82
  14  -1 -15    3.24    0.81
  14  -2  15    3.81    0.80
  14   2 -15    5.09    0.97
 -14  -2 -15    6.00    0.92
  14  -2 -15    4.80    0.90
  14   2  15    5.36    0.92
 -14   2 -15    5.42    0.93
 -14  -3 -15   -0.52    0.46
  14  -3  15    0.33    0.54
  14   3 -15   -0.08    0.58
 -14   3 -15   -0.12    0.58
  14   3  15   -0.57    0.45
  14  -3 -15   -0.26    0.48
  14   4 -15    2.58    0.84
 -14  -4 -15    1.67    0.71
  14  -4  15    1.43    0.71
  14   4  15    0.94    0.65
  14  -4 -15    1.25    0.65
 -14   4 -15    0.73    0.67
  14  -5  15    4.95    1.03
 -14  -5 -15    6.33    1.10
  14   5 -15    7.78    1.23
 -14   5 -15    7.85    1.24
  14   5  15    4.88    0.93
  14  -5 -15    6.22    0.97
  14   6 -15    0.76    0.74
  14  -6  15   -0.11    0.65
 -14  -6 -15    1.14    0.76
  14  -6 -15    0.89    0.58
  14   6  15    0.50    0.59
  14   7 -15    0.45    0.76
  14  -7  15    2.43    0.80
 -14  -7 -15    2.42    0.90
  14  -7 -15    2.38    0.94
  14   0 -16    4.16    0.89
 -14   0 -16    4.19    0.81
  14   0  16    5.71    0.97
  14   1 -16    0.63    0.67
 -14  -1 -16    1.04    0.54
  14  -1  16    2.22    0.67
  14   1  16    0.77    0.62
  14  -1 -16    0.31    0.53
 -14   1 -16    0.57    0.59
  14  -2  16    2.40    0.79
  14   2 -16    1.04    0.70
 -14  -2 -16    1.44    0.65
  14   2  16   -0.04    0.51
  14  -2 -16    1.75    0.71
 -14   2 -16    0.42    0.59
  14  -3  16    3.48    0.90
  14   3 -16    4.12    0.97
 -14  -3 -16    3.28    0.79
  14   3  16    3.27    0.81
 -14   3 -16    4.86    1.00
  14  -3 -16    3.23    0.76
 -14  -4 -16    0.56    0.66
  14  -4  16    1.56    0.67
  14   4 -16    2.10    0.83
 -14   4 -16    1.30    0.74
  14   4  16    0.78    0.63
  14  -4 -16    1.49    0.67
  14   5 -16    0.67    0.67
 -14  -5 -16   -0.38    0.64
  14  -5  16    0.15    0.61
  14  -5 -16    0.84    0.66
 -14   5 -16    0.74    0.72
 -14  -6 -16    1.14    0.78
  14   6 -16   -0.02    0.60
  14  -6  16    0.55    0.63
  14  -6 -16    1.24    0.68
  14  -6 -16    0.49    0.72
 -14   6 -16    0.67    0.69
  14   0  17    0.40    0.58
  14   0 -17    0.34    0.54
 -14   0 -17    0.50    0.57
  14  -1  17    2.13    0.72
 -14  -1 -17    2.22    0.71
  14   1 -17    3.21    0.86
 -14   1 -17    2.71    0.78
  14  -1 -17    4.52    0.96
  14   1  17    2.93    0.82
  14   2 -17    1.88    0.79
  14  -2  17    2.45    0.79
 -14  -2 -17    2.01    0.76
  14   2  17    2.02    0.76
  14  -2 -17    1.72    0.76
 -14   2 -17    3.34    0.87
 -14  -3 -17   -0.21    0.59
  14  -3  17    0.21    0.55
  14   3 -17    0.50    0.70
  14  -3 -17   -0.39    0.44
 -14   3 -17   -0.01    0.54
 -14  -4 -17    1.71    0.84
  14   4 -17    1.55    0.75
  14  -4  17    1.42    0.74
 -14   4 -17    0.65    0.68
  14  -4 -17    1.67    0.74
 -14  -5 -17    1.42    0.81
  14   5 -17    2.87    0.95
  14  -5  17    3.82    0.97
 -14   5 -17    3.45    0.94
  14  -5 -17    3.10    0.97
  14  -5 -17    1.46    0.69
  14   0 -18    5.71    1.09
  14   1 -18    1.51    0.81
  14  -1  18    0.30    0.65
  14  -1 -18    1.89    0.83
 -14   1 -18    1.15    0.72
  14   2 -18    0.82    0.65
  14  -2  18    1.00    0.67
 -14  -2 -18    0.42    0.65
  14  -2 -18    1.05    0.65
 -14   2 -18    0.53    0.66
  14  -3  18    3.28    0.85
 -14  -3 -18    1.12    0.73
  14   3 -18    1.52    0.80
 -14   3 -18    2.42    0.87
  14  -3 -18    1.97    0.80
  15   0   0    0.19    0.22
  15   0   0   -0.27    0.20
  15   1   0    1.44    0.38
  15   1   0    1.65    0.34
  15  -1   0    1.42    0.35
  15  -2   0   35.75    1.50
  15   2   0   34.94    1.48
  15   2   0   27.49    1.29
  15   3   0    8.76    0.83
  15  -3   0    9.64    0.87
  15   3   0   10.07    0.67
  15   4   0   29.64    1.50
  15  -4   0   32.31    1.48
  15   4   0   31.88    1.34
  15  -5   0   25.07    1.27
  15   5   0   21.52    1.09
  15   5   0   24.14    1.34
  15   6   0    0.77    0.39
  15  -6   0   -0.13    0.32
  15  -7   0   14.61    1.11
  15   7   0   19.33    1.37
  15   8   0   14.32    1.46
  15  -8   0   14.11    1.12
  15  -9   0    1.00    0.51
  15   9   0    1.02    0.64
  15 -10   0    3.85    0.78
  15  10   0    4.09    1.04
  15  11   0    5.92    1.25
  15 -11   0    4.35    0.89
  15   0   1   75.83    2.72
  15   0  -1   75.21    2.62
  15   0  -1   77.22    2.65
  15   1  -1   45.66    1.74
  15   1  -1   43.93    1.72
  15  -1   1   44.44    1.81
  15  -1  -1   43.31    1.72
  15   1   1   46.27    1.83
  15  -1  -1   42.40    1.75
  15   1   1   41.74    1.66
  15   2  -1   14.04    0.88
  15  -2   1   15.98    0.95
  15   2  -1   12.92    0.81
  15  -2  -1   14.50    0.88
  15   2   1   17.12    0.99
  15  -3   1   44.15    1.85
  15   3  -1   41.07    1.73
  15   3  -1   48.05    1.87
  15   3   1   44.90    1.89
  15   3   1   46.25    1.68
  15  -3  -1   42.69    1.79
  15  -4   1   10.31    0.92
  15   4  -1    9.79    0.79
  15   4  -1    8.11    0.64
  15   4   1    7.69    0.59
  15   4   1    8.68    0.89
  15  -4  -1    9.62    0.85
  15   5  -1    0.72    0.37
  15  -5   1    0.72    0.31
  15   5  -1    1.00    0.30
  15  -5  -1    0.44    0.32
  15   5   1    0.69    0.39
  15  -6   1   19.64    1.19
  15   6  -1   17.83    1.24
  15   6   1   16.20    1.19
  15  -6  -1   17.15    1.08
  15  -7   1   21.45    1.30
  15   7  -1   20.32    1.43
  15   7   1   20.63    1.44
  15  -7  -1   20.81    1.27
  15   8  -1    6.25    0.97
  15  -8   1    5.20    0.78
  15   8   1    5.03    0.93
  15  -8  -1    6.15    0.83
  15   9  -1    7.51    1.15
  15  -9   1    7.31    1.00
  15   9   1    9.39    1.24
  15  -9  -1    6.68    0.92
  15  10  -1   13.91    1.60
  15 -10   1   13.76    1.40
  15  10   1   12.13    1.53
  15 -10  -1   16.32    1.48
  15 -11   1    0.34    0.59
  15  11  -1    0.99    0.79
  15  11   1    0.32    0.63
  15 -11  -1    0.31    0.59
  15   0  -2    0.64    0.25
  15   0   2    0.40    0.29
  15   0  -2    0.13    0.24
  15  -1   2   14.99    0.96
  15   1  -2   14.93    0.85
  15   1  -2   13.61    0.86
  15  -1  -2   14.82    0.84
  15  -1  -2   13.61    0.87
  15   1   2   15.75    0.95
  15   2  -2    4.67    0.56
  15   2  -2    5.49    0.60
  15  -2   2    5.69    0.70
  15  -2  -2    4.98    0.57
  15  -2  -2    4.86    0.63
  15   2   2    5.46    0.66
  15   2   2    5.67    0.54
  15   3  -2    0.72    0.32
  15  -3   2    0.79    0.37
  15  -3  -2    0.84    0.31
  15   3   2    0.98    0.27
  15   3   2    0.61    0.33
  15   4  -2    3.26    0.49
  15  -4   2    4.34    0.62
  15   4  -2    4.05    0.58
  15   4   2    3.95    0.45
  15  -4  -2    3.93    0.55
  15   4   2    3.96    0.64
  15   5  -2   15.41    0.93
  15   5  -2   13.55    0.99
  15  -5   2   14.93    1.01
  15   5   2   15.28    1.07
  15  -5  -2   13.39    0.90
  15   6  -2    0.47    0.36
  15   6  -2    0.72    0.31
  15  -6   2   -0.17    0.31
  15  -6  -2    0.45    0.33
  15   6   2    0.32    0.38
  15  -7   2   10.14    1.08
  15   7  -2   10.43    1.15
  15  -7  -2   12.43    0.97
  15   7   2   14.99    1.43
  15   8  -2   16.00    1.53
  15  -8   2   17.87    1.27
  15  -8  -2   18.47    1.23
  15   8   2   22.46    1.60
  15   9  -2   -0.20    0.52
  15  -9   2    0.27    0.49
  15   9   2   -0.18    0.45
  15  -9  -2   -0.17    0.38
  15  10  -2    5.67    1.12
  15 -10   2    3.81    0.85
  15  10   2    4.50    0.98
  15 -10  -2    4.34    0.83
  15 -11   2    2.56    0.78
  15  11  -2    3.49    0.98
  15 -11  -2    4.81    0.93
  15  11   2    6.57    1.30
  15   0   3   80.91    2.94
  15   0  -3   81.87    2.87
  15   0  -3   82.97    2.73
  15   1  -3   10.09    0.67
  15  -1   3    9.90    0.78
  15   1  -3    8.46    0.70
  15  -1  -3   10.83    0.77
  15   1   3    9.40    0.76
  15  -1  -3    9.93    0.66
  15   2  -3    7.17    0.68
  15   2  -3    7.52    0.71
  15  -2   3    8.44    0.85
  15  -2  -3    8.59    0.70
  15  -2  -3    7.61    0.59
  15   2   3    7.34    0.81
  15  -3   3   46.87    1.98
  15   3  -3   47.00    1.87
  15   3  -3   46.26    1.87
  15   3   3   44.66    1.66
  15   3   3   47.78    2.01
  15  -3  -3   47.56    1.93
  15  -3  -3   45.12    1.77
  15  -4   3   10.40    0.98
  15   4  -3    7.20    0.79
  15   4   3    8.17    0.87
  15  -4  -3    8.28    0.66
  15  -4  -3    8.63    0.83
  15   5  -3    2.03    0.48
  15   5  -3    2.08    0.45
  15  -5   3    2.14    0.53
  15   5   3    5.19    0.79
  15  -5  -3    1.83    0.42
  15  -6   3   13.32    1.02
  15   6  -3   13.57    0.94
  15   6  -3   13.94    1.10
  15   6   3   11.40    1.16
  15  -6  -3   12.54    0.90
  15   7  -3   23.33    1.51
  15  -7   3   22.82    1.42
  15   7   3   23.59    1.59
  15  -7  -3   24.62    1.35
  15   8  -3   -0.32    0.44
  15  -8   3    0.41    0.43
  15  -8  -3    0.10    0.35
  15   8   3    0.56    0.45
  15   9  -3   13.05    1.49
  15  -9   3   11.15    1.22
  15   9   3   12.65    1.55
  15  -9  -3   11.37    1.13
  15  10  -3    9.04    1.32
  15 -10   3   10.08    1.25
  15  10   3   11.77    1.59
  15 -10  -3   11.91    1.22
  15 -11   3   -0.15    0.56
  15  11  -3   -0.63    0.59
  15  11   3    0.05    0.68
  15 -11  -3    0.53    0.55
  15   0  -4   -0.22    0.23
  15   0   4   -0.22    0.22
  15   0  -4   -0.12    0.16
  15   1  -4    5.49    0.66
  15   1  -4    5.87    0.57
  15  -1   4    5.61    0.69
  15   1   4    4.56    0.64
  15  -1  -4    4.85    0.61
  15  -1  -4    6.39    0.57
  15   2  -4   36.90    1.48
  15  -2   4   35.94    1.66
  15   2  -4   33.93    1.54
  15  -2  -4   31.64    1.53
  15   2   4   33.68    1.63
  15  -2  -4   34.66    1.38
  15  -3   4   10.51    0.86
  15   3  -4    9.78    0.78
  15   3  -4   11.19    0.78
  15   3   4    9.41    0.60
  15  -3  -4   10.43    0.81
  15  -3  -4    9.73    0.68
  15   3   4   10.84    1.03
  15   4  -4   21.45    1.17
  15   4  -4   19.48    1.13
  15  -4   4   18.88    1.18
  15   4   4   19.29    1.22
  15  -4  -4   18.38    1.00
  15  -4  -4   19.29    1.14
  15   5  -4   34.46    1.67
  15  -5   4   32.91    1.69
  15   5   4   32.81    1.77
  15  -5  -4   32.54    1.45
  15  -5  -4   34.99    1.66
  15   6  -4    3.78    0.72
  15   6  -4    3.73    0.62
  15  -6   4    3.46    0.65
  15   6   4    3.59    0.71
  15  -6  -4    3.69    0.63
  15  -6  -4    2.94    0.53
  15   7  -4   15.44    1.26
  15  -7   4   16.69    1.21
  15  -7  -4   16.95    1.06
  15  -7  -4   13.91    1.06
  15   7   4   16.15    1.52
  15  -8   4   12.91    1.28
  15   8  -4   13.67    1.45
  15  -8  -4   14.16    1.25
  15   8   4   10.01    1.32
  15  -8  -4   11.28    1.05
  15   9  -4    0.17    0.50
  15  -9   4    1.48    0.61
  15  -9  -4    0.84    0.47
  15  -9  -4    1.81    0.56
  15   9   4    1.64    0.72
  15  10  -4    1.39    0.73
  15 -10   4    1.67    0.66
  15 -10  -4    0.50    0.53
  15  10   4    0.66    0.69
  15  11  -4    5.01    1.10
  15 -11   4    5.47    1.06
  15  11   4    3.23    1.04
  15   0  -5   27.26    1.14
  15   0  -5   26.68    1.35
  15   0   5   28.02    1.46
  15   1  -5    1.75    0.34
  15  -1   5    2.38    0.53
  15   1  -5    1.45    0.40
  15   1   5    1.45    0.43
  15  -1  -5    2.09    0.44
  15  -1  -5    1.90    0.33
  15   2  -5   13.26    0.81
  15  -2   5   12.43    0.95
  15   2  -5   13.36    0.92
  15  -2  -5   12.66    0.71
  15   2   5   12.39    0.96
  15  -2  -5   12.88    0.91
  15  -3   5   12.29    0.97
  15   3  -5   15.58    1.01
  15   3  -5   13.57    0.90
  15   3   5   12.71    1.00
  15  -3  -5   14.29    0.79
  15  -3  -5   13.50    0.95
  15  -4   5    3.96    0.66
  15   4  -5    4.26    0.62
  15   4  -5    5.59    0.72
  15  -4  -5    4.76    0.66
  15   4   5    4.34    0.74
  15  -4  -5    4.74    0.55
  15  -5   5    3.18    0.62
  15   5  -5    4.35    0.70
  15   5   5    2.23    0.60
  15  -5  -5    3.28    0.61
  15  -5  -5    4.27    0.55
  15   6  -5   10.72    1.12
 -15  -6  -5    7.25    0.88
  15   6  -5    9.67    1.06
  15  -6   5    9.95    1.08
  15  -6  -5    9.43    0.76
  15   6   5    8.30    1.05
  15  -6  -5    9.09    0.95
  15   7  -5    2.47    0.59
  15   7  -5    2.87    0.66
 -15  -7  -5    1.47    0.54
  15  -7   5    3.10    0.71
  15  -7  -5    2.21    0.59
  15  -7  -5    2.88    0.53
  15   7   5    3.01    0.79
  15   8  -5   -0.01    0.46
  15  -8   5    0.16    0.42
 -15  -8  -5    0.11    0.45
  15   8   5    0.76    0.53
  15  -8  -5    0.53    0.44
  15  -9   5    7.68    1.05
 -15  -9  -5    5.27    0.89
  15   9  -5    4.85    1.00
  15  -9  -5    7.27    0.98
  15   9   5    5.45    1.09
  15  10  -5   10.24    1.40
  15 -10   5   12.54    1.43
 -15 -10  -5    7.83    1.08
  15 -10  -5   13.14    1.29
  15  10   5   10.19    1.50
  15  11  -5   -0.54    0.54
  15 -11   5   -0.38    0.57
  15  11   5    0.03    0.67
  15   0  -6    0.05    0.17
  15   0  -6   -0.05    0.23
  15   0   6   -0.07    0.29
  15   1  -6   10.13    0.65
  15  -1   6   10.60    1.02
  15   1  -6    7.35    0.79
  15  -1  -6    9.85    0.93
  15  -1  -6    9.59    0.59
  15   1   6    9.21    0.95
  15   2  -6   59.39    2.40
  15   2  -6   60.53    2.19
  15  -2   6   60.80    2.51
  15  -2  -6   60.36    2.40
  15  -2  -6   65.37    2.08
  15   2   6   62.49    2.57
  15   3  -6    5.76    0.67
  15  -3   6    5.62    0.79
  15   3  -6    6.44    0.79
  15  -3  -6    5.96    0.73
  15   3   6    7.28    0.91
  15  -3  -6    5.08    0.50
  15   4  -6   14.42    1.00
  15   4  -6   14.43    1.06
 -15  -4  -6   17.80    1.16
  15  -4   6   17.57    1.17
  15  -4  -6   14.06    0.81
  15   4   6   15.39    1.18
  15  -4  -6   17.56    1.11
 -15  -5  -6   33.01    1.70
  15   5  -6   35.84    1.71
  15  -5   6   33.56    1.77
  15   5  -6   33.75    1.71
  15  -5  -6   34.18    1.68
  15   5   6   33.45    1.82
  15  -6   6    4.36    0.73
 -15  -6  -6    5.10    0.76
  15   6  -6    5.74    0.83
  15  -6  -6    4.77    0.72
  15   6   6    3.70    0.79
  15   7  -6    6.38    0.90
 -15  -7  -6    5.13    0.84
  15  -7   6    6.62    0.94
  15   7  -6    7.35    0.92
  15   7   6    9.78    1.29
  15  -7  -6    6.59    0.89
  15  -8   6    7.44    1.02
 -15  -8  -6    8.00    1.05
  15   8  -6    9.96    1.18
  15  -8  -6    9.06    1.01
  15   8   6   10.48    1.37
  15  -9   6    1.50    0.66
  15   9  -6    2.00    0.74
 -15  -9  -6    0.67    0.56
  15  -9  -6    1.42    0.60
  15   9   6    2.85    0.91
  15  10  -6    0.37    0.60
 -15 -10  -6    1.08    0.61
  15 -10   6    0.61    0.63
  15  10   6    1.37    0.78
  15 -10  -6    0.03    0.50
  15   0   7   12.39    0.98
  15   0  -7   11.67    0.65
  15   0  -7   10.75    0.87
  15  -1   7    8.98    0.98
  15   1  -7    8.58    0.60
  15   1  -7    7.89    0.87
  15  -1  -7    8.45    0.54
  15   1   7    9.64    1.03
  15  -1  -7    8.36    0.90
  15   2  -7    4.98    0.56
  15  -2   7    6.10    0.83
  15   2  -7    5.71    0.76
  15  -2  -7    4.78    0.69
  15  -2  -7    4.54    0.44
  15   2   7    3.81    0.72
  15   3  -7   29.58    1.37
  15   3  -7   28.62    1.51
  15  -3   7   28.99    1.58
 -15  -3  -7   27.69    1.47
  15  -3  -7   28.57    1.50
  15   3   7   24.13    1.51
 -15  -4  -7   10.20    1.04
  15  -4   7   10.06    1.04
  15   4  -7   10.14    0.92
  15   4  -7    7.92    0.89
  15  -4  -7    9.69    0.98
  15   4   7    6.43    0.92
  15  -5   7    3.30    0.67
  15   5  -7    2.01    0.56
  15   5  -7    2.98    0.60
 -15  -5  -7    3.09    0.67
  15  -5  -7    3.38    0.64
  15   5   7    4.08    0.79
  15  -6   7   11.38    1.17
  15   6  -7   11.00    1.15
  15   6  -7   11.94    1.16
 -15  -6  -7   10.57    1.14
  15   6   7    8.92    1.12
  15  -6  -7    9.50    1.04
  15  -7   7    3.43    0.80
 -15  -7  -7    2.51    0.69
  15   7  -7    3.21    0.72
  15   7   7    2.37    0.67
  15  -7  -7    2.87    0.65
  15  -8   7    0.20    0.48
 -15  -8  -7   -0.07    0.45
  15   8  -7   -0.12    0.46
  15  -8  -7   -0.03    0.44
  15   8   7    0.27    0.51
  15   9  -7    6.63    1.07
 -15  -9  -7    6.70    1.04
  15  -9   7    8.33    1.16
  15   9   7    7.65    1.23
  15  -9  -7   10.04    1.15
  15 -10   7   10.20    1.35
 -15 -10  -7   11.02    1.32
  15  10  -7    7.82    1.24
  15  10   7    8.66    1.43
  15 -10  -7   10.57    1.37
  15   0   8    0.16    0.33
  15   0  -8   -0.36    0.24
  15   1  -8    7.15    0.55
  15   1  -8    7.00    0.81
  15  -1   8    8.98    1.01
  15   1   8    7.62    0.96
  15  -1  -8    7.08    0.82
  15  -2   8   13.24    1.05
  15   2  -8    9.08    0.96
  15   2  -8   12.48    0.79
  15   2   8   11.99    1.18
  15  -2  -8   13.22    1.03
 -15  -3  -8    4.69    0.69
  15  -3   8    5.85    0.88
  15   3  -8    4.55    0.71
  15   3  -8    5.36    0.63
  15   3   8    3.83    0.72
  15  -3  -8    5.53    0.79
 -15  -4  -8    7.82    0.89
  15   4  -8    9.61    1.04
  15  -4   8    7.33    0.97
  15   4  -8    8.65    0.85
  15  -4  -8    8.41    0.95
  15   4   8    8.83    1.06
  15   5  -8   20.79    1.41
  15  -5   8   18.29    1.35
  15   5  -8   23.69    1.34
 -15  -5  -8   26.02    1.52
  15  -5  -8   23.95    1.39
  15   5   8   22.60    1.55
  15  -6   8    0.11    0.48
  15   6  -8    0.47    0.41
 -15  -6  -8    0.18    0.46
  15   6  -8    0.45    0.46
  15   6   8    0.36    0.47
  15  -6  -8    1.07    0.46
 -15  -7  -8    3.08    0.77
  15   7  -8    1.83    0.59
  15   7  -8    3.13    0.70
  15  -7   8    2.67    0.73
  15  -7  -8    3.03    0.65
  15   7   8    3.10    0.83
 -15  -8  -8    8.85    1.14
  15  -8   8    7.17    1.10
  15   8  -8    6.44    1.00
  15   8   8    7.81    1.27
  15  -8  -8    6.85    0.95
  15  -9   8    2.46    0.77
  15   9  -8    2.05    0.77
 -15  -9  -8    1.34    0.68
  15  -9  -8    1.96    0.62
  15   9   8    1.94    0.75
  15 -10   8    1.86    0.80
 -15 -10  -8    1.31    0.63
  15  10  -8    2.00    0.78
  15  10   8    2.56    0.99
  15 -10  -8    0.99    0.69
  15   0  -9   21.44    1.33
  15   0   9   24.36    1.49
  15  -1   9    2.25    0.62
  15   1  -9    2.05    0.55
  15  -1  -9    3.29    0.64
  15   1   9    1.95    0.62
  15   2  -9   13.45    1.08
 -15  -2  -9   14.15    1.07
  15  -2   9   12.13    1.18
  15  -2  -9   10.82    1.05
  15   2   9   15.10    1.39
  15   3  -9   14.19    1.14
  15   3  -9   12.97    0.88
  15  -3   9   17.30    1.23
 -15  -3  -9   12.48    1.03
  15  -3  -9   13.65    1.10
  15   3   9   15.78    1.22
  15   4  -9    0.04    0.30
  15   4  -9    0.39    0.39
 -15  -4  -9   -0.31    0.35
  15  -4   9   -0.14    0.44
  15  -4  -9   -0.12    0.32
  15   4   9    0.25    0.44
  15   5  -9    1.24    0.47
 -15  -5  -9    0.92    0.55
  15   5  -9    0.87    0.50
  15  -5   9   -0.01    0.47
  15   5   9    1.13    0.60
  15  -5  -9    1.52    0.49
 -15  -6  -9    5.25    0.87
  15   6  -9    4.95    0.87
  15   6  -9    5.35    0.82
  15  -6   9    5.62    0.95
  15  -6  -9    6.12    0.89
  15   6   9    5.54    0.96
 -15  -7  -9    7.47    1.07
  15  -7   9    6.54    1.00
  15   7  -9    6.63    0.98
  15   7  -9    8.38    1.03
  15  -7  -9    6.97    0.94
  15   7   9    7.18    1.13
  15   8  -9    0.18    0.55
  15   8  -9    0.50    0.53
 -15  -8  -9    2.01    0.76
  15  -8   9   -0.41    0.48
  15   8   9    0.37    0.61
  15  -8  -9    0.56    0.49
  15  -9   9    4.57    1.00
 -15  -9  -9    6.56    1.10
  15   9  -9    5.38    1.06
  15   9   9    7.92    1.34
  15  -9  -9    5.01    0.91
  15  10  -9    5.87    1.13
 -15 -10  -9    4.97    1.02
  15 -10   9    6.04    1.06
  15  10   9    7.62    1.35
  15 -10  -9    7.07    1.20
  15   0 -10    0.11    0.38
  15   0  10   -0.08    0.41
  15   1 -10   20.43    1.41
  15  -1  10   24.52    1.51
  15  -1 -10   25.22    1.50
  15   1  10   26.10    1.57
  15   2 -10    8.20    0.98
  15  -2  10    9.33    1.08
 -15  -2 -10   10.49    1.06
  15   2  10    9.86    1.12
  15  -2 -10   11.57    1.14
 -15  -3 -10    2.88    0.69
  15  -3  10    3.35    0.73
  15   3 -10    3.98    0.75
  15   3  10    3.92    0.79
  15  -3 -10    2.04    0.56
  15  -4  10    4.16    0.78
  15   4 -10    6.48    0.90
 -15  -4 -10    4.55    0.78
  15  -4 -10    3.38    0.71
  15   4  10    4.61    0.84
  15  -5  10   23.40    1.55
  15   5 -10   21.54    1.32
 -15  -5 -10   26.69    1.64
  15   5 -10   22.00    1.56
  15  -5 -10   21.42    1.40
  15   5  10   22.86    1.60
  15  -6  10    3.59    0.79
  15   6 -10    3.17    0.75
 -15  -6 -10    3.90    0.78
  15   6 -10    4.35    0.73
  15  -6 -10    3.90    0.75
  15   6  10    2.68    0.84
  15  -7  10    6.71    1.11
 -15  -7 -10    7.04    1.08
  15   7 -10    7.03    0.97
  15   7 -10    5.92    0.98
  15   7  10    5.43    1.03
  15  -7 -10    7.83    1.01
  15   8 -10    6.51    1.07
 -15  -8 -10    9.98    1.28
  15  -8  10    6.96    1.09
  15   8 -10    7.36    1.07
  15  -8 -10    5.66    0.94
  15  -9  10    0.10    0.55
  15   9 -10    0.69    0.63
 -15  -9 -10    0.69    0.71
  15   9  10   -0.55    0.56
  15   0 -11    8.75    0.99
  15   0  11    7.54    0.98
  15  -1  11    2.01    0.64
 -15  -1 -11    2.84    0.61
  15   1 -11    2.20    0.62
  15   1  11    2.07    0.61
  15  -1 -11    2.11    0.63
  15   2 -11    1.41    0.60
 -15  -2 -11    1.48    0.51
  15  -2  11    1.11    0.54
  15   2  11    2.91    0.76
  15  -2 -11    2.13    0.59
  15   3 -11    7.98    1.02
  15  -3  11   10.71    1.21
 -15  -3 -11   10.03    1.10
  15   3  11    7.05    1.01
  15  -3 -11    9.20    1.10
  15  -4  11    5.37    0.90
  15   4 -11    4.75    0.84
 -15  -4 -11    5.94    0.90
  15  -4 -11    5.43    0.83
  15   4  11    4.45    0.84
  15  -5  11    1.00    0.58
 -15  -5 -11    0.69    0.57
  15   5 -11    0.58    0.55
  15  -5 -11    1.31    0.58
  15   5  11    0.77    0.56
 -15  -6 -11    5.83    0.96
  15   6 -11    7.28    1.10
  15  -6  11    5.95    1.00
  15  -6 -11    5.14    0.87
  15   6  11    7.14    1.17
  15   7 -11    2.97    0.81
  15  -7  11    4.45    0.98
 -15  -7 -11    3.58    0.87
  15  -7 -11    3.83    0.79
  15   7  11    3.49    0.88
  15  -8  11    0.03    0.54
 -15  -8 -11    0.92    0.60
  15   8 -11    0.85    0.62
  15  -8 -11   -0.12    0.48
  15   8  11   -0.12    0.50
  15   9 -11    2.47    0.81
  15  -9  11    2.52    0.89
 -15  -9 -11    3.50    0.91
  15  -9 -11    2.27    0.88
  15   9  11    3.69    1.04
  15   0  12    0.46    0.48
  15   0 -12   -0.10    0.37
 -15  -1 -12    1.68    0.57
  15   1 -12    1.31    0.52
  15  -1  12    1.90    0.66
  15   1  12    0.85    0.58
  15  -1 -12    1.80    0.59
  15  -2  12   18.44    1.37
 -15  -2 -12   18.58    1.30
  15   2 -12   15.17    1.42
  15   2  12   17.14    1.60
  15  -2 -12   15.08    1.24
  15  -3  12    1.79    0.61
 -15  -3 -12    1.40    0.59
  15   3 -12    1.36    0.62
  15   3  12    1.36    0.63
  15  -3 -12    0.57    0.50
  15   4 -12    5.76    0.95
 -15  -4 -12    7.60    1.05
  15  -4  12    3.14    0.75
  15   4  12    6.85    1.08
  15  -4 -12    8.75    1.06
  15  -5  12    8.90    1.20
 -15  -5 -12    9.92    1.19
  15   5 -12   11.13    1.30
  15   5  12   11.05    1.35
  15  -5 -12   11.04    1.19
  15  -6  12    0.55    0.63
  15   6 -12    1.03    0.70
 -15  -6 -12    0.43    0.54
  15  -6 -12    0.40    0.52
  15   6  12    1.00    0.69
 -15  -7 -12    2.28    0.81
  15   7 -12    3.94    0.94
  15  -7  12    2.74    0.81
  15   7  12    1.19    0.65
  15  -7 -12    2.05    0.69
 -15  -8 -12    2.85    0.89
  15   8 -12    1.63    0.79
  15  -8  12    3.63    0.89
  15   8  12    2.96    0.88
  15  -8 -12    2.70    0.74
  15   0  13   16.52    1.54
  15   0 -13   11.01    1.22
  15   1 -13    1.77    0.66
 -15  -1 -13    1.22    0.53
  15  -1  13    1.27    0.62
  15  -1 -13    0.98    0.54
  15   1  13    0.96    0.55
 -15  -2 -13    2.24    0.63
  15  -2  13    2.65    0.75
  15   2 -13    3.07    0.78
  15   2  13    3.01    0.81
  15  -2 -13    2.60    0.73
 -15  -3 -13    9.39    1.14
  15  -3  13    8.93    1.16
  15   3 -13    7.83    1.10
  15   3  13   12.07    1.34
  15  -3 -13    9.18    1.13
 -15  -4 -13    5.11    0.90
  15   4 -13    3.39    0.79
  15  -4  13    1.93    0.70
  15   4  13    4.13    0.90
  15  -4 -13    3.76    0.81
  15   5 -13    1.42    0.68
  15  -5  13    1.28    0.67
 -15  -5 -13    0.88    0.57
  15   5  13    0.89    0.64
  15  -5 -13    1.09    0.56
  15  -6  13    6.47    1.10
 -15  -6 -13    4.38    0.91
  15   6 -13    6.04    1.14
  15   6  13    5.47    1.08
  15  -6 -13    5.16    0.89
  15  -7  13    0.89    0.70
 -15  -7 -13    0.60    0.70
  15   7 -13    0.83    0.73
  15   7  13    1.27    0.77
  15  -7 -13    2.33    0.70
  15  -8  13   -0.40    0.51
 -15  -8 -13    0.12    0.61
  15   8 -13    0.36    0.71
  15   8  13   -0.61    0.61
  15  -8 -13   -0.29    0.66
  15   0  14    0.36    0.52
  15   0 -14    0.10    0.51
 -15  -1 -14    5.08    0.82
  15   1 -14    5.06    0.93
  15  -1  14    3.86    0.80
  15  -1 -14    5.98    0.93
  15   1  14    4.20    0.84
  15   2 -14    6.88    1.02
 -15  -2 -14    7.51    1.00
  15  -2  14    5.90    1.00
  15   2  14    4.40    0.92
  15  -2 -14    4.57    0.88
  15   3 -14   -0.20    0.44
 -15  -3 -14    0.50    0.59
  15  -3  14    0.41    0.57
  15   3  14    0.59    0.53
  15  -3 -14    0.08    0.53
  15  -4  14    0.74    0.60
  15   4 -14    0.68    0.55
 -15  -4 -14    2.01    0.71
  15  -4 -14    1.13    0.59
  15   4  14    0.89    0.64
  15   5 -14    9.27    1.30
 -15  -5 -14    9.16    1.25
  15  -5  14   11.41    1.39
  15  -5 -14    8.29    1.17
  15   5  14   10.45    1.33
  15   6 -14    0.53    0.58
 -15  -6 -14    1.50    0.73
  15  -6  14    0.81    0.64
  15  -6 -14    0.95    0.65
  15   6  14    1.09    0.74
 -15  -7 -14    2.58    0.84
  15   7 -14    1.83    0.78
  15  -7  14    2.64    0.88
  15  -7 -14    2.45    0.77
  15   7  14    1.45    0.72
  15   0 -15    6.42    1.04
  15   0  15    5.17    0.92
  15   1 -15    0.95    0.63
 -15  -1 -15    1.57    0.61
  15  -1  15    1.10    0.61
  15  -1 -15    0.80    0.60
  15   1  15    0.37    0.57
  15  -2  15    1.89    0.70
  15   2 -15    1.38    0.70
 -15  -2 -15    1.24    0.61
  15   2  15    0.64    0.62
  15  -2 -15    1.88    0.71
  15  -3  15    3.79    0.90
 -15  -3 -15    4.16    0.86
  15   3 -15    6.02    1.08
  15  -3 -15    3.59    0.82
  15   3  15    4.35    0.93
 -15  -4 -15    0.57    0.55
  15  -4  15    2.07    0.75
  15   4 -15   -0.18    0.55
  15   4  15    1.75    0.70
  15  -4 -15    1.82    0.72
 -15  -5 -15    0.00    0.55
  15   5 -15    0.17    0.57
  15  -5  15    0.86    0.66
  15   5  15   -0.18    0.53
  15  -5 -15   -0.46    0.48
  15  -6  15    3.02    0.94
 -15  -6 -15    1.02    0.66
  15   6 -15    2.25    0.76
  15  -6 -15    0.68    0.62
  15   6  15    1.24    0.73
  15   0  16   -0.21    0.54
  15   0 -16    0.26    0.53
  15   1 -16    4.35    0.95
 -15  -1 -16    4.99    0.85
  15   1  16    4.06    0.90
  15  -1 -16    3.14    0.83
 -15   1 -16    2.81    0.73
  15   2 -16    3.96    0.92
 -15  -2 -16    3.32    0.80
  15  -2  16    2.45    0.81
  15   2  16    3.07    0.85
  15  -2 -16    3.01    0.82
 -15   2 -16    3.65    0.88
  15   3 -16    0.29    0.64
 -15  -3 -16    0.78    0.62
  15  -3  16    0.25    0.60
  15  -3 -16    0.88    0.58
 -15   3 -16    1.25    0.72
  15   3  16    0.15    0.58
  15  -4  16    4.68    1.00
 -15  -4 -16    1.73    0.71
  15   4 -16    2.47    0.90
  15  -4 -16    1.47    0.67
  15   4  16    2.39    0.85
  15   5 -16    3.31    0.94
  15  -5  16    1.61    0.74
 -15  -5 -16    2.11    0.77
  15  -5 -16    2.41    0.82
  15   5  16    2.24    0.81
  15   0 -17    4.28    0.95
  15  -1  17    1.70    0.78
  15   1 -17    1.84    0.75
 -15  -1 -17    2.02    0.68
 -15   1 -17    2.14    0.76
  15  -1 -17    1.25    0.75
  15   1  17    0.44    0.63
  15  -2  17    0.12    0.61
 -15  -2 -17    1.07    0.64
  15   2 -17    1.24    0.77
  15   2  17    0.88    0.69
 -15   2 -17    1.47    0.72
  15  -2 -17   -0.33    0.59
  15  -3  17    3.00    0.84
 -15  -3 -17    2.50    0.84
  15   3 -17    3.30    0.97
  15   3  17    1.93    0.80
 -15   3 -17    3.02    0.89
  15  -3 -17    1.25    0.64
  15  -4  17    0.83    0.68
  15   4 -17    1.17    0.76
 -15  -4 -17    1.70    0.78
 -15   4 -17    0.61    0.71
  15  -4 -17    0.12    0.56
  15   0 -18    1.00    0.71
  15   0  18    0.81    0.68
  15   1 -18    1.50    0.80
  15  -1  18    2.05    0.79
 -15   1 -18    0.84    0.69
  15  -1 -18    0.61    0.74
  15   2 -18    1.22    0.73
 -15  -2 -18    1.44    0.72
  15  -2  18    1.54    0.69
 -15   2 -18    0.70    0.65
  15  -2 -18    0.55    0.58
  16   0   0  131.52    4.16
  16   0   0  130.71    4.22
  16   1   0   35.83    1.52
  16  -1   0   35.36    1.56
  16   1   0   38.37    1.62
  16   2   0    3.19    0.52
  16   2   0    3.81    0.49
  16  -2   0    3.33    0.53
  16   3   0   71.95    2.69
  16   3   0   73.44    2.53
  16  -3   0   73.03    2.67
  16   4   0   12.65    0.94
  16  -4   0   11.42    0.86
  16   4   0   10.31    0.73
  16   5   0   -0.25    0.18
  16  -5   0    0.34    0.30
  16   5   0   -0.24    0.29
  16  -6   0   14.79    1.07
  16   6   0   16.57    1.18
  16  -7   0   19.45    1.29
  16   7   0   21.34    1.50
  16   8   0    3.84    0.88
  16  -8   0    5.93    0.82
  16   9   0    2.65    0.84
  16  -9   0    3.84    0.78
  16 -10   0    9.30    1.14
  16  10   0   12.32    1.57
  16 -11   0    0.39    0.56
  16  11   0    0.75    0.70
  16   0  -1    0.61    0.33
  16   0  -1    0.38    0.26
  16   0   1    0.56    0.34
  16   1  -1   13.06    0.84
  16  -1   1   14.94    0.92
  16   1  -1   13.11    0.85
  16   1   1   14.03    0.93
  16  -1  -1   13.69    0.90
  16  -1  -1   11.07    0.78
  16   1   1   13.61    0.82
  16  -2   1    8.42    0.83
  16   2  -1    6.90    0.66
  16   2  -1    8.21    0.78
  16   2   1    5.96    0.70
  16  -2  -1    6.51    0.68
  16   3  -1    2.90    0.53
  16  -3   1    2.21    0.46
  16  -3  -1    2.54    0.45
  16   3   1    2.06    0.45
  16   3   1    1.63    0.34
  16  -4   1    4.54    0.63
  16   4  -1    5.10    0.59
  16   4  -1    5.27    0.72
  16   4   1    4.94    0.68
  16   4   1    4.58    0.52
  16  -4  -1    4.34    0.61
  16  -5   1   16.86    1.11
  16   5  -1   16.53    1.11
  16   5  -1   17.66    1.00
  16   5   1   18.68    1.19
  16  -5  -1   17.88    1.07
  16  -6   1   -0.13    0.31
  16   6  -1    0.21    0.41
  16  -6  -1    0.07    0.36
  16   6   1    0.31    0.38
  16  -7   1   13.93    1.26
  16   7  -1   15.70    1.45
  16   7   1   15.48    1.26
  16  -7  -1   13.30    1.07
  16  -8   1   12.92    1.26
  16   8  -1   13.58    1.40
  16   8   1    9.73    1.26
  16  -8  -1   13.18    1.08
  16   9  -1   -0.07    0.48
  16  -9   1    0.33    0.42
  16  -9  -1   -0.61    0.36
  16   9   1   -0.18    0.49
  16 -10   1    2.97    0.80
  16  10  -1    2.01    0.78
  16 -10  -1    2.76    0.73
  16  10   1    1.53    0.70
  16 -11   1    3.66    0.84
  16  11  -1    4.32    1.05
  16  11   1    3.55    0.98
  16 -11  -1    3.85    0.88
  16   0  -2  110.07    3.64
  16   0  -2  110.98    3.55
  16   0   2  106.79    3.71
  16   1  -2   12.93    0.85
  16   1  -2   12.08    0.80
  16  -1   2   11.13    0.87
  16   1   2   11.21    0.84
  16  -1  -2   12.04    0.78
  16  -1  -2   11.68    0.85
  16   2  -2   25.12    1.25
  16   2  -2   25.19    1.24
  16  -2   2   26.80    1.37
  16   2   2   26.49    1.35
  16  -2  -2   27.05    1.32
  16   2   2   25.83    1.20
  16  -2  -2   25.28    1.21
  16   3  -2   12.19    0.86
  16  -3   2   12.22    0.90
  16   3   2   11.64    0.71
  16  -3  -2   12.27    0.83
  16   3   2   11.26    0.87
  16   4  -2   10.61    0.81
  16  -4   2   11.31    0.89
  16   4  -2    9.76    0.74
  16   4   2    9.91    1.02
  16   4   2    9.75    0.65
  16  -4  -2    9.75    0.88
  16   5  -2    0.35    0.28
  16   5  -2    0.25    0.31
  16  -5   2   -0.12    0.31
  16  -5  -2    0.17    0.30
  16   5   2    0.40    0.37
  16   6  -2   24.24    1.46
  16  -6   2   22.54    1.39
  16   6   2   25.10    1.52
  16  -6  -2   23.83    1.31
  16  -7   2   24.91    1.50
  16   7  -2   26.73    1.64
  16   7   2   26.94    1.73
  16  -7  -2   27.36    1.48
  16   8  -2    0.25    0.50
  16  -8   2   -0.34    0.37
  16  -8  -2    0.19    0.41
  16   8   2    0.46    0.47
  16   9  -2    9.36    1.32
  16  -9   2    9.36    1.17
  16  -9  -2    9.71    1.11
  16   9   2    9.95    1.36
  16 -10   2    8.33    1.12
  16  10  -2   10.43    1.47
  16 -10  -2    7.95    1.03
  16  10   2    8.32    1.32
  16  11  -2    0.47    0.66
  16 -11   2    0.71    0.67
  16  11   2    0.16    0.71
  16 -11  -2    1.15    0.60
  16   0  -3    0.07    0.20
  16   0  -3   -0.64    0.22
  16   0   3    0.44    0.33
  16   1  -3    2.72    0.49
  16  -1   3    3.02    0.53
  16   1  -3    3.23    0.48
  16  -1  -3    3.47    0.55
  16   1   3    2.22    0.50
  16  -1  -3    2.79    0.43
  16   2  -3   12.35    0.86
  16   2  -3   13.10    0.84
  16  -2   3   13.26    0.98
  16   2   3   12.61    0.93
  16  -2  -3   12.95    0.90
  16  -2  -3   13.67    0.81
  16   3  -3    1.96    0.40
  16   3  -3    2.21    0.44
  16  -3   3    2.51    0.55
  16   3   3    2.40    0.51
  16   3   3    2.63    0.39
  16  -3  -3    2.03    0.40
  16  -3  -3    2.20    0.48
  16   4  -3    7.53    0.80
  16  -4   3    7.55    0.87
  16   4   3    7.42    0.86
  16  -4  -3    8.53    0.80
  16  -4  -3    8.35    0.90
  16  -5   3   25.98    1.43
  16   5  -3   27.54    1.38
  16   5  -3   25.23    1.41
  16   5   3   23.97    1.47
  16  -5  -3   25.82    1.28
  16   6  -3    4.93    0.67
  16   6  -3    5.18    0.81
  16  -6   3    3.83    0.68
  16   6   3    3.71    0.75
  16  -6  -3    4.17    0.64
  16   7  -3   26.19    1.62
  16  -7   3   26.64    1.55
  16   7   3   24.42    1.67
  16  -7  -3   26.33    1.42
  16  -8   3    9.91    1.11
  16   8  -3   13.16    1.44
  16   8   3   11.09    1.33
  16  -8  -3   12.40    1.01
  16  -9   3   -0.12    0.46
  16   9  -3   -0.36    0.51
  16  -9  -3    0.85    0.46
  16   9   3    0.95    0.64
  16 -10   3    1.09    0.59
  16  10  -3    1.78    0.76
  16 -10  -3    1.63    0.64
  16  10   3    1.15    0.73
  16  11  -3    3.52    1.04
  16 -11   3    2.96    0.82
  16 -11  -3    5.37    0.99
  16  11   3    2.68    1.00
  16   0   4   23.20    1.30
  16   0  -4   21.55    1.19
  16   0  -4   24.16    1.09
  16   1  -4   10.41    0.92
  16  -1   4    8.98    0.90
  16   1  -4    8.56    0.65
  16   1   4    8.95    0.91
  16  -1  -4   10.37    0.67
  16  -1  -4    9.76    0.78
  16   2  -4    7.15    0.69
  16   2  -4    8.80    0.84
  16  -2   4    9.20    0.93
  16   2   4    9.10    0.95
  16  -2  -4    8.60    0.84
  16  -2  -4    7.33    0.60
  16   3  -4   27.02    1.33
  16  -3   4   26.71    1.45
  16   3  -4   25.94    1.27
  16   3   4   22.50    1.35
  16  -3  -4   26.21    1.18
  16   3   4   22.03    1.05
  16  -3  -4   23.70    1.31
  16   4  -4    6.24    0.74
  16  -4   4    6.48    0.84
  16   4  -4    6.96    0.76
  16  -4  -4    7.43    0.72
  16  -4  -4    5.73    0.72
  16   4   4    6.12    0.84
  16   5  -4    3.22    0.60
  16  -5   4    5.58    0.80
  16   5   4    5.23    0.83
  16  -5  -4    2.96    0.51
  16  -5  -4    4.91    0.73
  16  -6   4   13.14    1.08
  16   6  -4   15.38    1.14
  16   6  -4   13.39    1.00
  16  -6  -4   12.96    1.06
  16  -6  -4   13.46    0.92
  16   6   4   14.50    1.17
  16  -7   4    1.16    0.52
  16   7  -4    2.32    0.63
  16   7   4    2.08    0.65
  16  -7  -4    2.00    0.53
  16  -7  -4    1.64    0.51
  16   8  -4    0.86    0.60
  16  -8   4    0.04    0.47
  16  -8  -4    0.52    0.40
  16  -8  -4   -0.33    0.39
  16   8   4    0.74    0.58
  16  -9   4    5.30    0.92
  16   9  -4    4.21    0.91
  16  -9  -4    7.04    0.97
  16   9   4    3.52    0.98
  16  -9  -4    6.97    0.99
  16  10  -4    6.62    1.19
  16 -10   4   10.54    1.30
  16  10   4    8.09    1.37
  16 -10  -4    8.49    1.10
  16   0  -5   -0.03    0.19
  16   0  -5   -0.34    0.23
  16   0   5    0.05    0.28
  16   1  -5   13.36    0.79
  16   1  -5   12.11    0.92
  16  -1   5   12.79    1.00
  16   1   5   12.96    1.02
  16  -1  -5   13.21    0.95
  16  -1  -5   13.51    0.76
  16   2  -5   56.41    2.11
  16   2  -5   55.68    2.27
  16  -2   5   56.16    2.37
  16  -2  -5   58.44    2.32
  16  -2  -5   57.35    2.02
  16   2   5   58.22    2.43
  16  -3   5    6.12    0.81
  16   3  -5    6.73    0.74
  16   3  -5    5.63    0.71
  16  -3  -5    7.40    0.84
  16   3   5    7.20    0.88
  16  -3  -5    6.89    0.63
  16   4  -5   16.92    1.07
  16  -4   5   16.26    1.17
  16   4  -5   15.71    1.07
  16   4   5   16.18    1.18
  16  -4  -5   15.70    0.90
  16  -4  -5   15.62    1.11
  16   5  -5   38.92    1.86
  16  -5   5   38.85    1.92
  16  -5  -5   39.94    1.65
  16   5   5   37.68    1.97
  16  -5  -5   39.48    1.85
  16  -6   5    1.19    0.50
  16   6  -5    0.66    0.41
  16   6  -5    0.32    0.38
  16   6   5    1.21    0.55
  16  -6  -5    0.86    0.37
  16  -6  -5    0.45    0.41
  16   7  -5    2.78    0.73
  16  -7   5    3.15    0.73
  16   7   5    2.36    0.71
  16  -7  -5    2.59    0.52
  16  -7  -5    3.46    0.67
  16   8  -5    8.73    1.16
  16  -8   5    8.12    1.08
  16  -8  -5    7.40    0.98
  16   8   5    9.83    1.35
  16   9  -5    1.37    0.67
  16  -9   5    1.36    0.67
  16  -9  -5    2.48    0.64
  16   9   5    2.66    0.90
  16 -10   5   -0.07    0.51
  16  10  -5    0.69    0.72
  16 -10  -5    0.47    0.54
  16  10   5    0.77    0.68
  16   0  -6   22.25    1.01
  16   0   6   21.68    1.31
  16   0  -6   21.12    1.23
  16   1  -6    4.32    0.66
  16  -1   6    4.24    0.70
  16   1  -6    5.39    0.56
  16   1   6    4.72    0.76
  16  -1  -6    3.82    0.60
  16  -1  -6    4.21    0.46
  16  -2   6    1.78    0.50
  16   2  -6    3.02    0.47
  16   2  -6    4.49    0.67
  16   2   6    3.04    0.61
  16  -2  -6    2.90    0.39
  16  -2  -6    2.41    0.54
  16  -3   6   27.02    1.57
  16   3  -6   27.50    1.35
  16   3  -6   28.84    1.49
  16  -3  -6   28.16    1.49
  16  -3  -6   28.11    1.19
  16   3   6   28.59    1.61
  16   4  -6    7.83    0.84
  16  -4   6    8.06    1.01
  16   4  -6    8.98    0.95
  16  -4  -6    8.36    0.65
  16  -4  -6    9.05    0.94
  16   4   6    8.19    0.99
  16   5  -6    1.37    0.51
  16   5  -6    0.72    0.43
  16  -5   6    1.05    0.49
  16  -5  -6    1.46    0.52
  16   5   6    2.22    0.60
 -16  -6  -6    7.52    0.94
  16   6  -6    5.62    0.87
  16  -6   6    7.72    0.98
  16  -6  -6    5.43    0.79
  16   6   6    9.62    1.22
 -16  -7  -6    8.43    1.05
  16  -7   6    5.96    0.91
  16   7  -6    5.85    0.86
  16   7  -6    6.38    0.97
  16  -7  -6    6.86    0.89
  16   7   6    5.60    0.98
  16  -8   6    0.08    0.54
 -16  -8  -6    0.18    0.41
  16   8  -6   -0.54    0.44
  16  -8  -6    0.30    0.48
  16   8   6    0.05    0.47
  16   9  -6    5.83    1.07
  16  -9   6    4.38    0.88
 -16  -9  -6    6.05    1.00
  16   9   6    4.53    1.01
  16  -9  -6    4.74    0.84
 -16 -10  -6    7.01    1.05
  16 -10   6   10.16    1.35
  16  10  -6    7.29    1.17
  16  10   6    7.56    1.40
  16 -10  -6    8.51    1.09
  16   0   7    0.12    0.32
  16   0  -7    0.21    0.33
  16   0  -7   -0.04    0.19
  16  -1   7    4.76    0.80
  16   1  -7    4.15    0.50
  16   1  -7    3.92    0.64
  16  -1  -7    5.30    0.73
  16  -1  -7    4.23    0.43
  16   1   7    4.71    0.74
  16  -2   7    7.83    0.95
  16   2  -7    9.31    0.95
  16   2  -7    8.92    0.69
  16  -2  -7    8.00    0.89
  16   2   7    8.30    0.98
  16  -3   7   15.54    1.15
  16   3  -7   13.34    1.04
  16   3  -7   12.42    0.87
  16  -3  -7   13.31    1.00
  16   3   7   12.19    1.22
  16   4  -7   13.39    0.97
  16   4  -7   13.69    1.08
  16  -4   7   15.48    1.17
  16  -4  -7   13.09    1.03
  16   4   7   15.51    1.22
  16   5  -7   28.89    1.60
  16   5  -7   27.09    1.50
 -16  -5  -7   27.89    1.62
  16  -5   7   26.00    1.63
  16   5   7   28.01    1.73
  16  -5  -7   26.59    1.54
  16   6  -7    1.59    0.54
  16   6  -7    1.94    0.59
  16  -6   7    1.71    0.63
 -16  -6  -7    2.61    0.68
  16   6   7    1.47    0.60
  16  -6  -7    0.85    0.44
  16   7  -7    7.79    1.01
  16  -7   7    5.57    0.93
 -16  -7  -7    6.84    0.99
  16  -7  -7    7.59    0.98
  16   7   7    5.08    0.99
 -16  -8  -7    5.47    0.91
  16   8  -7    7.97    1.12
  16  -8   7    7.65    1.12
  16  -8  -7    8.56    1.06
  16   8   7    4.32    0.97
  16  -9   7    1.89    0.67
  16   9  -7    2.56    0.82
 -16  -9  -7    2.93    0.77
  16  -9  -7    1.48    0.61
  16   9   7    2.23    0.85
  16 -10   7    1.95    0.80
 -16 -10  -7    0.95    0.65
  16  10  -7    0.78    0.65
  16  10   7    1.13    0.75
  16   0   8    4.48    0.73
  16   0  -8    3.71    0.62
  16   1  -8    5.59    0.80
  16  -1   8    5.21    0.79
  16  -1  -8    5.81    0.79
  16   1   8    6.16    0.88
  16   2  -8    6.53    0.81
  16   2  -8    7.12    0.67
  16  -2   8    6.27    0.88
  16  -2  -8    6.38    0.85
  16   2   8    6.84    0.97
  16   3  -8   23.99    1.42
  16  -3   8   22.82    1.45
  16   3  -8   22.98    1.21
  16   3   8   20.66    1.47
  16  -3  -8   21.97    1.35
 -16  -4  -8    0.49    0.41
  16   4  -8    1.38    0.46
  16   4  -8    1.54    0.46
  16  -4   8    1.44    0.59
  16   4   8    0.65    0.52
  16  -4  -8    1.15    0.50
  16   5  -8    5.01    0.84
 -16  -5  -8    5.75    0.86
  16   5  -8    6.37    0.81
  16  -5   8    4.68    0.86
  16  -5  -8    5.23    0.78
  16   5   8    6.93    1.08
  16   6  -8    5.56    0.84
  16   6  -8    6.48    0.94
  16  -6   8    4.98    0.91
 -16  -6  -8    5.31    0.89
  16   6   8    5.75    1.01
  16  -6  -8    5.04    0.76
  16  -7   8    1.51    0.61
  16   7  -8    2.10    0.63
 -16  -7  -8    1.46    0.62
  16   7  -8    0.97    0.55
  16   7   8    1.61    0.66
  16  -7  -8    2.51    0.64
  16  -8   8    0.01    0.53
  16   8  -8   -0.07    0.49
 -16  -8  -8   -0.18    0.44
  16   8   8    0.78    0.62
  16  -8  -8   -0.07    0.41
 -16  -9  -8    5.60    0.95
  16  -9   8    6.08    1.04
  16   9  -8    5.36    1.04
  16   9   8    8.30    1.34
  16  -9  -8    6.75    1.03
  16  10  -8    7.18    1.23
  16 -10   8    9.49    1.35
 -16 -10  -8    8.83    1.22
  16  10   8    5.74    1.22
  16 -10  -8    9.06    1.31
  16   0  -9   -0.27    0.34
  16   0   9   -0.07    0.39
  16  -1   9    9.37    1.06
  16   1  -9   11.18    1.11
  16  -1  -9    9.99    1.05
  16   1   9   10.61    1.15
  16   2  -9   23.58    1.47
  16  -2   9   24.37    1.51
  16  -2  -9   21.52    1.38
  16   2   9   24.14    1.58
  16   3  -9    1.94    0.57
  16  -3   9    0.51    0.51
 -16  -3  -9    2.01    0.55
  16  -3  -9    1.59    0.56
  16   3   9    1.47    0.53
  16  -4   9   13.08    1.32
  16   4  -9   12.14    1.25
 -16  -4  -9   13.71    1.28
  16   4  -9   13.20    0.96
  16  -4  -9   10.98    1.11
  16   4   9   12.57    1.33
 -16  -5  -9   16.05    1.32
  16   5  -9   18.96    1.38
  16  -5   9   17.23    1.38
  16   5  -9   16.81    1.19
  16   5   9   16.85    1.60
  16  -5  -9   16.33    1.25
  16  -6   9    0.72    0.54
  16   6  -9    1.17    0.52
  16   6  -9    0.52    0.50
 -16  -6  -9    0.77    0.52
  16   6   9   -0.10    0.45
  16  -6  -9    1.24    0.52
  16   7  -9    4.15    0.83
  16  -7   9    2.78    0.74
 -16  -7  -9    1.74    0.62
  16   7  -9    3.66    0.81
  16  -7  -9    3.37    0.76
  16   7   9    3.27    0.87
  16   8  -9    6.89    1.09
  16  -8   9    5.51    1.05
 -16  -8  -9    7.43    1.08
  16   8  -9    7.15    1.06
  16   8   9    6.10    1.16
  16  -8  -9    6.75    0.99
  16   9  -9    1.53    0.75
 -16  -9  -9    0.62    0.65
  16  -9   9   -0.80    0.56
  16  -9  -9    1.09    0.61
  16   9   9    1.64    0.85
  16   0 -10   15.44    1.19
  16   0  10   18.41    1.36
  16   1 -10    2.17    0.57
  16  -1  10    1.46    0.56
  16  -1 -10    0.92    0.46
  16   1  10    2.13    0.67
  16  -2  10    2.13    0.61
  16   2 -10    1.12    0.49
  16   2  10    1.35    0.59
  16  -2 -10    1.50    0.50
  16   3 -10   10.78    1.13
 -16  -3 -10   11.76    1.18
  16  -3  10   11.98    1.29
  16   3  10    9.66    1.18
  16  -3 -10    9.84    1.07
 -16  -4 -10    5.45    0.85
  16   4 -10    5.49    0.86
  16  -4  10    4.07    0.86
  16  -4 -10    4.81    0.83
  16   4  10    5.96    0.99
  16  -5  10    0.17    0.52
 -16  -5 -10    0.14    0.48
  16   5 -10   -0.04    0.42
  16   5  10    0.67    0.59
  16  -5 -10    0.09    0.44
  16   6 -10    5.96    0.97
 -16  -6 -10    5.54    0.97
  16   6 -10    4.49    0.76
  16  -6  10    3.62    0.83
  16   6  10    6.22    1.12
  16  -6 -10    3.92    0.79
  16   7 -10    3.78    0.78
  16  -7  10    6.97    1.10
  16   7 -10    4.00    0.87
 -16  -7 -10    5.56    0.97
  16   7  10    2.98    0.87
  16  -7 -10    3.81    0.76
 -16  -8 -10    0.23    0.52
  16  -8  10   -0.72    0.46
  16   8 -10    0.24    0.55
  16   8 -10   -0.67    0.49
  16   8  10    0.06    0.68
  16  -8 -10   -0.60    0.42
 -16  -9 -10    4.65    1.05
  16   9 -10    4.53    0.94
  16  -9  10    4.74    1.09
  16   9  10    4.07    1.05
  16   0 -11    0.65    0.49
  16   0  11    0.35    0.51
  16   1 -11    0.66    0.49
  16  -1  11    1.83    0.63
  16   1  11    1.47    0.60
  16  -1 -11    1.61    0.51
  16   2 -11   16.81    1.32
 -16  -2 -11   20.04    1.32
  16  -2  11   15.06    1.45
  16  -2 -11   16.17    1.24
  16   2  11   13.76    1.41
 -16  -3 -11    0.98    0.55
  16   3 -11    1.53    0.56
  16  -3  11    1.93    0.69
  16  -3 -11    1.25    0.52
  16   3  11    1.54    0.61
  16   4 -11    4.94    0.85
 -16  -4 -11    3.67    0.74
  16  -4  11    5.27    0.90
  16  -4 -11    3.78    0.77
  16   4  11    4.62    0.86
 -16  -5 -11   15.57    1.47
  16  -5  11   13.15    1.41
  16   5 -11   16.38    1.57
  16  -5 -11   14.62    1.36
  16   5  11   14.23    1.55
  16  -6  11    0.48    0.59
  16   6 -11    1.46    0.68
 -16  -6 -11    0.80    0.55
  16  -6 -11    1.04    0.56
  16   6  11    0.87    0.69
  16   7 -11    3.53    0.89
 -16  -7 -11    3.34    0.85
  16  -7  11    3.31    0.83
  16  -7 -11    3.77    0.82
  16   7  11    4.51    1.04
 -16  -8 -11    5.16    1.01
  16   8 -11    3.08    0.87
  16  -8  11    5.05    1.08
  16  -8 -11    3.41    0.79
  16   8  11    4.18    1.07
  16   0 -12    8.82    1.05
  16   0  12    7.25    1.06
  16   1 -12    2.32    0.64
  16  -1  12    3.97    0.84
  16  -1 -12    3.01    0.71
  16   1  12    2.60    0.77
 -16  -2 -12    2.43    0.65
  16   2 -12    2.06    0.68
  16  -2  12    1.86    0.63
  16  -2 -12    2.49    0.72
  16   2  12    1.81    0.66
 -16  -3 -12   15.13    1.38
  16  -3  12   13.21    1.35
  16   3 -12   12.42    1.36
  16   3  12   13.08    1.40
  16  -3 -12   10.56    1.17
 -16  -4 -12    6.20    0.97
  16   4 -12    4.57    0.88
  16  -4  12    5.86    1.00
  16   4  12    4.94    0.97
  16  -4 -12    7.03    0.98
 -16  -5 -12    1.69    0.65
  16   5 -12    1.38    0.65
  16  -5  12    1.90    0.73
  16   5  12    1.62    0.80
  16  -5 -12    1.52    0.57
  16   6 -12    5.27    0.99
  16  -6  12    5.05    0.92
 -16  -6 -12    4.26    0.93
  16   6  12    5.71    1.13
  16  -6 -12    4.27    0.86
  16  -7  12    1.79    0.77
 -16  -7 -12    2.28    0.74
  16   7 -12    1.07    0.68
  16  -7 -12    1.80    0.68
  16   7  12    1.20    0.76
 -16  -8 -12   -0.22    0.55
  16   8 -12   -0.24    0.54
  16  -8  12   -1.43    0.51
  16  -8 -12   -0.68    0.50
  16   8  12   -0.19    0.65
  16   0 -13   -0.27    0.40
  16   0  13    0.24    0.49
  16   1 -13    1.46    0.62
  16  -1  13    2.98    0.79
  16   1  13    2.91    0.73
  16  -1 -13    3.16    0.73
  16  -2  13    7.34    1.02
 -16  -2 -13    7.14    0.97
  16   2 -13    6.79    1.06
  16   2  13    6.41    1.07
  16  -2 -13    6.89    0.98
  16   3 -13    0.57    0.53
  16  -3  13    0.94    0.61
 -16  -3 -13    0.76    0.56
  16   3  13    0.32    0.59
  16  -3 -13    0.69    0.58
  16   4 -13    3.20    0.80
 -16  -4 -13    5.02    0.88
  16  -4  13    4.41    0.88
  16  -4 -13    4.04    0.83
  16   4  13    2.94    0.81
  16  -5  13    8.27    1.25
 -16  -5 -13    8.20    1.14
  16   5 -13    8.48    1.25
  16  -5 -13    7.49    1.04
  16   5  13    5.98    1.11
  16  -6  13    0.35    0.61
 -16  -6 -13    0.07    0.67
  16   6 -13   -0.15    0.53
  16   6  13   -0.04    0.57
  16  -6 -13    0.07    0.52
  16  -7  13    1.99    0.79
 -16  -7 -13    1.11    0.71
  16   7 -13    1.48    0.78
  16  -7 -13    1.81    0.72
  16   7  13    1.25    0.74
  16   0 -14    6.30    1.03
  16   0  14    5.54    0.98
  16   1 -14    2.22    0.74
 -16  -1 -14    0.91    0.57
  16  -1  14    1.96    0.69
  16   1  14    0.93    0.63
  16  -1 -14    1.65    0.62
  16  -2  14    1.18    0.67
  16   2 -14    0.82    0.58
  16  -2 -14    1.24    0.67
  16   2  14    0.41    0.58
 -16  -3 -14    7.10    1.04
  16   3 -14    5.32    0.97
  16  -3  14    6.53    1.04
  16  -3 -14    5.03    0.93
  16   3  14    4.88    0.93
 -16  -4 -14    1.20    0.65
  16  -4  14    1.53    0.71
  16   4 -14    1.88    0.72
  16  -4 -14    2.04    0.73
  16   4  14    1.47    0.68
 -16  -5 -14   -0.39    0.50
  16   5 -14    0.15    0.60
  16  -5  14    0.73    0.71
  16  -5 -14    1.07    0.63
  16   5  14    0.65    0.63
  16   6 -14    1.73    0.76
  16  -6  14    1.56    0.72
 -16  -6 -14    0.70    0.72
  16  -6 -14    1.08    0.65
  16   6  14    2.12    0.86
  16   7 -14    2.73    0.96
  16  -7  14    3.52    0.94
 -16  -7 -14    2.05    0.89
  16  -7 -14    1.50    0.74
  16   7  14    3.80    0.97
  16   0 -15   -0.33    0.46
  16   0  15   -0.62    0.48
  16   1 -15    1.97    0.77
 -16  -1 -15    3.44    0.78
  16  -1  15    2.72    0.78
  16   1  15    2.85    0.80
  16  -1 -15    3.42    0.84
  16  -2  15    4.27    0.93
 -16  -2 -15    4.78    0.88
  16   2 -15    4.95    1.01
  16   2  15    6.65    1.12
  16  -2 -15    5.32    1.00
 -16  -3 -15    1.86    0.68
  16  -3  15    0.23    0.53
  16   3 -15    0.41    0.65
  16   3  15    1.50    0.73
  16  -3 -15    0.21    0.57
 -16  -4 -15    3.47    0.88
  16  -4  15    2.61    0.83
  16   4 -15    2.01    0.81
  16   4  15    2.96    0.89
  16  -4 -15    2.76    0.79
 -16  -5 -15    4.93    1.05
  16  -5  15    3.84    0.98
  16   5 -15    3.26    0.88
  16   5  15    2.18    0.85
  16  -5 -15    4.90    0.94
 -16  -6 -15    0.25    0.69
  16  -6  15    0.00    0.67
  16   6 -15    0.87    0.68
  16  -6 -15    1.23    0.70
  16   6  15    0.17    0.67
  16   0 -16    5.65    1.02
  16   0  16    4.99    0.99
 -16  -1 -16    1.91    0.66
  16   1 -16    1.95    0.75
  16  -1  16    1.40    0.72
  16   1  16    0.65    0.64
  16  -1 -16    0.98    0.74
  16  -2  16    1.83    0.75
  16   2 -16    1.11    0.72
 -16  -2 -16    0.76    0.65
  16   2  16    1.74    0.77
  16  -2 -16    0.51    0.57
  16  -3  16    3.56    0.88
  16   3 -16    2.42    0.84
 -16  -3 -16    4.38    0.95
  16  -3 -16    3.29    0.87
  16   3  16    3.24    0.91
  16   4 -16    1.43    0.77
 -16  -4 -16    1.49    0.80
  16  -4  16    1.42    0.69
  16  -4 -16    1.44    0.78
  16   4  16    0.15    0.62
  16  -5  16    0.23    0.63
 -16  -5 -16    0.93    0.71
  16   5 -16   -0.05    0.69
  16   5  16   -0.22    0.61
  16  -5 -16   -0.28    0.48
  16   0  17    0.50    0.66
  16   0 -17    0.29    0.58
 -16  -1 -17    2.92    0.78
  16  -1  17    3.53    0.87
  16   1 -17    3.58    0.97
  16   1  17    1.99    0.83
  16  -1 -17    2.94    0.90
  16  -2  17    1.13    0.71
  16   2 -17    0.84    0.72
 -16  -2 -17    1.81    0.72
  16   2  17    0.48    0.65
  16  -2 -17    1.52    0.80
 -16  -3 -17    0.31    0.65
  16   3 -17   -1.39    0.48
  16  -3  17    0.06    0.63
  16  -3 -17   -0.14    0.59
  16   3  17   -0.57    0.53
  16   0  18    3.79    0.97
  16   0 -18    4.37    1.03
  16   1 -18    0.18    0.63
  16  -1 -18    2.33    0.88
  17   0   0    0.58    0.32
  17   0   0    0.85    0.35
  17   1   0    6.28    0.65
  17   1   0    6.39    0.73
  17  -1   0    5.48    0.64
  17  -2   0   16.98    1.02
  17   2   0   15.28    0.91
  17   2   0   14.14    0.96
  17   3   0   -0.15    0.23
  17   3   0    0.10    0.22
  17  -3   0    0.02    0.28
  17   4   0    1.39    0.34
  17  -4   0    1.35    0.41
  17   4   0    0.81    0.40
  17   5   0   16.72    0.99
  17  -5   0   14.93    1.05
  17   5   0   14.24    1.06
  17  -6   0   -0.14    0.37
  17   6   0    0.26    0.43
  17  -7   0    7.05    0.86
  17   7   0    4.74    0.85
  17  -8   0   10.18    1.13
  17   8   0    9.47    1.27
  17  -9   0    0.24    0.47
  17   9   0    0.28    0.56
  17 -10   0    0.87    0.54
  17  10   0    1.88    0.74
  17   0  -1  126.05    4.14
  17   0   1  129.13    4.22
  17   0  -1  128.46    4.13
  17  -1   1   17.83    1.06
  17   1  -1   19.79    1.07
  17   1  -1   18.64    1.05
  17  -1  -1   18.46    1.02
  17   1   1   16.89    0.98
  17  -1  -1   18.54    1.06
  17   1   1   16.35    1.07
  17  -2   1   13.11    0.92
  17   2  -1   10.78    0.78
  17   2  -1   11.41    0.84
  17   2   1   11.28    0.85
  17  -2  -1   12.72    0.85
  17   3  -1   22.81    1.25
  17  -3   1   23.05    1.30
  17   3   1   25.03    1.16
  17   3   1   23.59    1.33
  17  -3  -1   27.32    1.31
  17   4  -1   11.69    0.80
  17   4  -1   11.70    0.92
  17  -4   1    9.47    0.93
  17   4   1   12.23    1.11
  17   4   1   10.89    0.73
  17  -4  -1   12.10    0.89
  17   5  -1    0.27    0.29
  17  -5   1    0.45    0.38
  17   5  -1    0.22    0.37
  17  -5  -1    0.28    0.35
  17   5   1    0.13    0.34
  17   6  -1   18.30    1.31
  17  -6   1   19.40    1.26
  17   6   1   15.62    1.26
  17  -6  -1   17.57    1.17
  17   7  -1   22.79    1.52
  17  -7   1   20.40    1.35
  17   7   1   23.84    1.61
  17  -7  -1   22.58    1.38
  17   8  -1    0.05    0.51
  17  -8   1    0.56    0.48
  17   8   1    0.38    0.51
  17  -8  -1    0.51    0.45
  17  -9   1    5.20    0.87
  17   9  -1    5.06    1.00
  17  -9  -1    6.59    0.92
  17   9   1    5.26    1.07
  17  10  -1   10.49    1.49
  17 -10   1   10.40    1.24
  17 -10  -1    8.08    1.06
  17  10   1    8.79    1.38
  17   0  -2    0.34    0.35
  17   0   2    0.40    0.30
  17   0  -2    0.23    0.25
  17   1  -2   14.12    0.87
  17  -1   2   12.14    0.91
  17   1  -2   13.14    0.88
  17  -1  -2   15.03    0.96
  17  -1  -2   14.30    0.88
  17   1   2   14.14    0.98
  17   2  -2    3.65    0.54
  17   2  -2    3.21    0.50
  17  -2   2    2.58    0.53
  17  -2  -2    3.57    0.59
  17   2   2    4.11    0.65
  17  -2  -2    3.16    0.50
  17   3  -2    3.67    0.54
  17  -3   2    3.84    0.64
  17   3  -2    4.20    0.62
  17   3   2    4.43    0.52
  17  -3  -2    3.77    0.62
  17  -3  -2    1.83    0.44
  17   3   2    3.01    0.57
  17   4  -2    7.33    0.76
  17   4  -2    8.08    0.85
  17  -4   2    5.81    0.76
  17   4   2    6.66    0.63
  17   4   2    7.53    0.91
  17  -4  -2    7.17    0.76
  17  -5   2   23.89    1.40
  17   5  -2   25.00    1.43
  17   5  -2   22.43    1.23
  17  -5  -2   22.44    1.24
  17   5   2   23.63    1.45
  17   6  -2    8.19    1.00
  17  -6   2    6.55    0.88
  17   6   2    6.50    0.92
  17  -6  -2    7.73    0.84
  17   7  -2   30.18    1.78
  17  -7   2   27.52    1.62
  17  -7  -2   30.35    1.59
  17   7   2   28.83    1.79
  17  -8   2   10.86    1.17
  17   8  -2   11.81    1.36
  17   8   2   11.10    1.36
  17  -8  -2   12.96    1.18
  17  -9   2   -0.23    0.45
  17   9  -2   -0.07    0.47
  17   9   2    0.15    0.58
  17  -9  -2    0.38    0.45
  17 -10   2   -0.10    0.47
  17  10  -2    0.51    0.59
  17 -10  -2    0.67    0.53
  17  10   2   -0.06    0.65
  17   0   3   39.98    1.85
  17   0  -3   43.63    1.82
  17   0  -3   39.90    1.64
  17   1  -3    8.35    0.81
  17   1  -3    8.60    0.76
  17  -1   3    8.11    0.87
  17  -1  -3    8.05    0.64
  17   1   3    9.08    0.92
  17  -1  -3    8.51    0.83
  17  -2   3   11.77    0.95
  17   2  -3   12.82    0.90
  17   2  -3   12.15    0.84
  17  -2  -3   12.69    0.81
  17   2   3   13.55    0.80
  17   2   3   11.66    0.95
  17  -2  -3   12.79    0.92
  17  -3   3    7.66    0.87
  17   3  -3    9.05    0.86
  17   3  -3   10.45    0.81
  17   3   3    9.24    0.66
  17  -3  -3    9.75    0.75
  17  -3  -3   12.15    1.05
  17   3   3   10.94    1.03
  17   4  -3    8.65    0.89
  17  -4   3    6.15    0.80
  17  -4  -3    8.80    0.88
  17   4   3    7.27    0.65
  17   4   3    8.58    0.97
  17  -4  -3    7.52    0.76
  17  -5   3    0.85    0.45
  17   5  -3    0.76    0.38
  17   5  -3    0.45    0.37
  17   5   3    0.91    0.45
  17  -5  -3    0.96    0.44
  17  -5  -3    1.18    0.39
  17   6  -3   19.17    1.34
  17  -6   3   19.54    1.30
  17   6  -3   17.88    1.17
  17  -6  -3   17.58    1.12
  17   6   3   20.72    1.40
  17   7  -3    4.41    0.80
  17  -7   3    4.04    0.74
  17   7   3    3.51    0.80
  17  -7  -3    5.34    0.75
  17  -8   3   -0.13    0.40
  17   8  -3   -0.32    0.47
  17   8   3    0.21    0.51
  17  -8  -3   -0.16    0.36
  17   9  -3    4.95    0.96
  17  -9   3    4.88    0.91
  17   9   3    7.46    1.23
  17  -9  -3    3.69    0.74
  17 -10   3    7.64    1.13
  17  10  -3    8.13    1.33
  17 -10  -3    8.03    1.07
  17  10   3    8.05    1.35
  17 -10  -3   10.68    1.23
  17   0   4    0.11    0.28
  17   0  -4    0.05    0.22
  17   0  -4    0.08    0.26
  17   1  -4    3.68    0.58
  17  -1   4    4.91    0.70
  17   1  -4    4.57    0.55
  17   1   4    5.35    0.76
  17  -1  -4    3.98    0.51
  17  -1  -4    4.75    0.66
  17   2  -4   40.66    1.80
  17   2  -4   40.37    1.68
  17  -2   4   42.48    1.91
  17   2   4   36.32    1.82
  17  -2  -4   40.87    1.61
  17  -2  -4   40.28    1.83
  17   3  -4    5.99    0.71
  17  -3   4    5.37    0.74
  17   3  -4    7.43    0.80
  17  -3  -4    4.68    0.68
  17   3   4    6.41    0.85
  17  -3  -4    6.07    0.63
  17   3   4    4.23    0.51
  17   4  -4   14.40    1.01
  17   4  -4   14.24    1.00
  17  -4   4   16.96    1.16
  17   4   4   13.75    1.10
  17  -4  -4   16.29    0.95
  17  -4  -4   15.56    1.06
  17   5  -4   39.59    1.90
  17  -5   4   37.71    1.91
  17  -5  -4   41.11    1.74
  17   5   4   41.33    2.07
  17  -5  -4   40.74    1.90
  17   6  -4    0.22    0.39
  17   6  -4    0.29    0.36
  17  -6   4    0.13    0.40
  17  -6  -4    0.00    0.31
  17   6   4   -0.19    0.39
  17  -6  -4   -0.36    0.36
  17   7  -4    2.84    0.68
  17  -7   4    2.70    0.71
  17  -7  -4    3.90    0.72
  17  -7  -4    4.39    0.66
  17   7   4    2.48    0.68
  17   8  -4    8.04    1.12
  17  -8   4    6.94    0.99
  17  -8  -4    6.60    0.82
  17  -8  -4    6.05    0.89
  17   8   4    9.15    1.28
  17  -9   4    1.24    0.67
  17   9  -4    0.55    0.58
  17   9   4    0.16    0.55
  17  -9  -4    3.16    0.78
  17 -10   4    0.38    0.53
  17  10  -4    0.91    0.67
  17 -10  -4    0.00    0.52
  17  10   4    0.73    0.72
  17   0   5   14.18    1.05
  17   0  -5   12.95    0.78
  17   0  -5   13.36    0.96
  17  -1   5    9.47    0.99
  17   1  -5   10.01    0.96
  17   1  -5   10.82    0.74
  17  -1  -5   10.65    0.97
  17  -1  -5   10.38    0.70
  17   1   5    9.60    1.00
  17  -2   5    0.74    0.46
  17   2  -5    1.13    0.43
  17   2  -5    1.31    0.37
  17  -2  -5    1.17    0.34
  17   2   5    1.47    0.50
  17  -2  -5    1.11    0.43
  17   3  -5   41.19    1.79
  17  -3   5   42.59    2.00
  17   3  -5   44.42    1.94
  17  -3  -5   42.61    1.67
  17  -3  -5   42.83    1.94
  17   3   5   41.75    2.01
  17   4  -5    6.03    0.76
  17  -4   5    4.85    0.77
  17   4  -5    6.85    0.83
  17  -4  -5    7.18    0.70
  17   4   5    7.73    0.99
  17  -4  -5    6.98    0.84
  17  -5   5    3.47    0.68
  17   5  -5    3.35    0.65
  17  -5  -5    3.60    0.66
  17  -5  -5    3.50    0.55
  17   5   5    3.63    0.77
  17   6  -5    6.40    0.88
  17  -6   5    6.50    0.91
  17   6  -5    6.21    0.88
  17  -6  -5    7.08    0.94
  17  -6  -5    6.08    0.71
  17   6   5    7.88    1.08
  17   7  -5    5.27    0.90
  17  -7   5    4.66    0.81
  17  -7  -5    3.04    0.67
  17   7   5    5.76    1.01
  17  -8   5   -0.07    0.54
  17   8  -5    0.80    0.56
  17  -8  -5    0.05    0.42
  17   8   5    0.58    0.54
  17  -9   5    5.00    0.94
  17   9  -5    4.90    0.99
  17   9   5    5.63    1.14
  17  -9  -5    5.38    0.87
  17 -10   5    9.75    1.30
  17  10  -5    6.52    1.19
  17 -10  -5    8.06    1.11
  17  10   5    8.58    1.43
  17   0  -6    0.10    0.33
  17   0   6   -0.36    0.26
  17   0  -6    0.18    0.24
  17   1  -6   13.79    0.83
  17   1  -6   14.37    1.04
  17  -1   6   13.05    1.05
  17  -1  -6   14.54    1.05
  17   1   6   14.16    1.09
  17  -1  -6   12.34    0.75
  17   2  -6    8.13    0.74
  17  -2   6    8.27    0.97
  17   2  -6    5.36    0.72
  17  -2  -6    7.61    0.58
  17  -2  -6    6.92    0.84
  17   2   6    9.14    1.02
  17  -3   6   14.20    1.15
  17   3  -6   14.12    0.95
  17   3  -6   13.17    1.04
  17   3   6   14.92    1.19
  17  -3  -6   13.26    1.02
  17  -3  -6   13.89    0.79
  17   4  -6   12.56    0.98
  17  -4   6   12.77    1.25
  17   4  -6   13.40    1.20
  17   4   6   13.01    1.27
  17  -4  -6   12.98    1.17
  17   5  -6   25.60    1.49
  17   5  -6   25.86    1.47
  17  -5   6   22.36    1.48
  17   5   6   27.06    1.68
  17  -5  -6   24.85    1.47
  17  -6   6    4.37    0.79
  17   6  -6    5.06    0.84
  17  -6  -6    4.22    0.76
  17   6   6    5.77    1.00
  17  -7   6    8.46    1.09
  17   7  -6    7.75    0.99
  17   7  -6    7.46    1.06
  17  -7  -6    7.25    0.94
  17   7   6    6.67    1.07
  17   8  -6    7.74    1.13
  17  -8   6    5.57    0.96
  17   8   6    6.16    1.18
  17  -8  -6    5.50    0.89
  17  -9   6    2.28    0.79
  17   9  -6    2.85    0.85
  17   9   6    1.38    0.78
  17  -9  -6    3.29    0.79
  17  10  -6    0.27    0.61
  17 -10   6    0.93    0.67
  17 -10  -6    0.27    0.61
  17  10   6    0.53    0.71
  17   0  -7   12.83    0.75
  17   0   7   13.75    1.09
  17   0  -7   12.73    0.99
  17   1  -7    3.50    0.47
  17   1  -7    4.93    0.73
  17  -1   7    3.76    0.70
  17   1   7    4.47    0.80
  17  -1  -7    3.55    0.63
  17  -2   7    6.88    0.91
  17   2  -7    8.01    0.74
  17   2  -7    8.06    0.92
  17  -2  -7    7.95    0.92
  17   2   7    6.62    0.92
  17   3  -7   13.74    1.06
  17   3  -7   13.74    0.94
  17  -3   7   15.22    1.22
  17   3   7   16.29    1.46
  17  -3  -7   13.52    1.05
  17   4  -7    2.97    0.57
  17  -4   7    2.23    0.63
  17   4  -7    2.89    0.64
  17   4   7    3.38    0.77
  17  -4  -7    2.61    0.61
  17   5  -7    1.93    0.56
  17   5  -7    2.32    0.58
  17  -5   7    0.63    0.52
  17   5   7    3.10    0.75
  17  -5  -7    1.43    0.50
  17   6  -7    6.72    0.96
  17   6  -7    7.33    0.95
  17  -6   7    6.64    0.99
 -17  -6  -7    5.09    0.82
  17  -6  -7    8.08    0.98
  17   6   7    5.45    0.99
  17  -7   7    1.88    0.65
  17   7  -7    3.38    0.78
 -17  -7  -7    3.64    0.79
  17  -7  -7    2.48    0.65
  17   7   7    3.02    0.83
  17   8  -7    0.45    0.56
 -17  -8  -7   -0.53    0.46
  17  -8   7   -0.02    0.56
  17  -8  -7    0.34    0.46
  17   8   7   -0.07    0.47
 -17  -9  -7    5.64    1.02
  17   9  -7    4.80    1.02
  17  -9   7    4.99    0.99
  17   9   7    8.95    1.37
  17  -9  -7    4.85    0.89
  17  10  -7    6.81    1.19
  17 -10   7    7.29    1.22
 -17 -10  -7    5.91    1.05
  17  10   7    8.55    1.50
  17 -10  -7    6.27    1.07
  17   0  -8   -0.10    0.35
  17   0   8    0.33    0.39
  17  -1   8    1.05    0.54
  17   1  -8    1.44    0.48
  17   1   8    1.75    0.55
  17  -1  -8    1.57    0.54
  17   2  -8   32.64    1.74
  17  -2   8   37.31    1.89
  17   2  -8   33.97    1.50
  17   2   8   36.23    1.95
  17  -2  -8   31.19    1.71
  17  -3   8    0.87    0.52
  17   3  -8    0.72    0.37
  17   3  -8    0.49    0.43
  17   3   8    0.68    0.51
  17  -3  -8    0.14    0.37
  17   4  -8   16.78    1.11
  17   4  -8   14.66    1.15
  17  -4   8   15.33    1.44
  17   4   8   17.37    1.60
  17  -4  -8   15.08    1.16
  17   5  -8   22.95    1.40
  17   5  -8   23.52    1.53
  17  -5   8   24.04    1.56
 -17  -5  -8   23.68    1.51
  17  -5  -8   25.17    1.53
  17   5   8   23.18    1.64
  17   6  -8    0.41    0.45
 -17  -6  -8   -0.40    0.38
  17   6  -8    0.58    0.46
  17  -6   8    0.87    0.58
  17  -6  -8    0.42    0.40
  17   6   8   -0.10    0.43
  17  -7   8    2.40    0.69
  17   7  -8    2.60    0.68
  17   7  -8    2.69    0.69
 -17  -7  -8    3.07    0.75
  17   7   8    4.03    0.90
  17  -7  -8    3.62    0.77
  17   8  -8    4.65    0.94
 -17  -8  -8    6.32    1.04
  17  -8   8    6.04    1.11
  17   8   8    5.35    1.10
  17  -8  -8    7.23    1.03
 -17  -9  -8    1.62    0.67
  17   9  -8    1.57    0.75
  17  -9   8    2.07    0.75
  17  -9  -8    2.81    0.79
  17   9   8    1.07    0.73
  17   0  -9   14.74    1.18
  17   0   9   17.78    1.34
  17   1  -9    1.83    0.57
  17  -1   9    2.34    0.69
  17   1   9    3.38    0.75
  17  -1  -9    1.26    0.53
  17  -2   9    1.05    0.51
  17   2  -9    1.07    0.47
  17  -2  -9    1.03    0.47
  17   2   9    0.31    0.45
  17   3  -9   18.70    1.35
  17  -3   9   17.38    1.34
  17  -3  -9   17.85    1.27
  17   3   9   19.76    1.43
  17   4  -9    8.10    0.91
  17   4  -9    8.13    1.03
 -17  -4  -9    6.29    0.90
  17  -4   9    5.21    0.88
  17  -4  -9    6.56    0.94
  17   4   9    6.09    0.99
  17   5  -9    2.02    0.55
  17   5  -9    1.26    0.50
 -17  -5  -9    1.54    0.61
  17  -5   9    2.09    0.66
  17   5   9    1.32    0.62
  17  -5  -9    1.75    0.57
 -17  -6  -9    2.61    0.75
  17  -6   9    2.14    0.76
  17   6  -9    4.55    0.84
  17   6  -9    3.26    0.69
  17  -6  -9    4.55    0.83
  17   6   9    3.57    0.88
  17   7  -9    2.28    0.66
  17   7  -9    2.06    0.67
  17  -7   9    3.37    0.82
 -17  -7  -9    2.87    0.78
  17   7   9    1.38    0.68
  17  -7  -9    2.71    0.68
 -17  -8  -9    0.06    0.58
  17  -8   9   -0.11    0.58
  17   8  -9    0.00    0.55
  17   8   9    0.09    0.53
  17  -8  -9    0.30    0.52
  17  -9   9    3.36    0.92
 -17  -9  -9    2.50    0.83
  17   9  -9    3.99    0.91
  17   9   9    2.67    0.92
  17  -9  -9    4.42    0.92
  17   0  10   -0.32    0.41
  17   0 -10   -0.07    0.38
  17  -1  10    3.07    0.75
  17   1 -10    2.16    0.59
  17   1  10    2.24    0.67
  17  -1 -10    2.82    0.65
  17  -2  10   15.10    1.45
  17   2 -10   15.14    1.38
  17   2  10   16.48    1.58
  17  -2 -10   13.87    1.30
  17   3 -10    2.11    0.60
  17  -3  10    1.88    0.61
  17   3  10    1.05    0.54
  17  -3 -10    0.97    0.51
 -17  -4 -10    8.96    1.12
  17   4 -10   11.19    1.21
  17  -4  10    6.96    1.03
  17   4  10    8.84    1.25
  17  -4 -10    8.69    1.04
 -17  -5 -10   10.24    1.16
  17  -5  10    9.44    1.19
  17   5 -10    9.00    1.18
  17  -5 -10   10.71    1.17
  17   5  10    7.89    1.19
  17   6 -10    1.19    0.59
  17  -6  10    1.84    0.72
 -17  -6 -10    0.74    0.59
  17   6  10    1.64    0.74
  17  -6 -10    0.67    0.52
  17   7 -10    2.26    0.76
 -17  -7 -10    3.01    0.81
  17  -7  10    2.95    0.87
  17  -7 -10    2.29    0.69
  17   7  10    4.14    0.96
  17   8 -10    5.97    1.13
  17   8 -10    3.38    0.88
  17  -8  10    4.58    0.97
 -17  -8 -10    3.69    0.88
  17  -8 -10    4.59    0.89
  17   8  10    5.43    1.17
  17   9 -10    0.87    0.74
 -17  -9 -10    0.81    0.70
  17   9  10    2.17    0.93
  17  -9 -10    1.60    0.69
  17   0 -11    6.92    0.97
  17   0  11    8.77    1.16
  17   1 -11    4.34    0.79
  17  -1  11    5.74    0.94
  17   1  11    6.36    1.02
  17  -1 -11    5.47    0.91
  17   2 -11    1.68    0.63
  17  -2  11    3.63    0.81
  17   2  11    1.69    0.66
  17  -2 -11    1.93    0.59
 -17  -3 -11   14.02    1.33
  17  -3  11   12.75    1.40
  17   3 -11   12.14    1.27
  17   3  11   13.79    1.48
  17  -3 -11   10.55    1.16
 -17  -4 -11    5.25    0.91
  17   4 -11    4.67    0.86
  17  -4  11    5.69    0.97
  17   4  11    4.42    0.97
  17  -4 -11    6.26    0.92
  17   5 -11    1.82    0.71
  17  -5  11    1.12    0.69
 -17  -5 -11    1.15    0.59
  17   5  11    1.33    0.74
  17  -5 -11    0.58    0.49
 -17  -6 -11    4.70    0.94
  17  -6  11    3.57    0.82
  17   6 -11    3.69    0.84
  17  -6 -11    3.19    0.80
  17   6  11    3.60    0.94
  17  -7  11    1.02    0.74
 -17  -7 -11    3.81    0.88
  17   7 -11    2.79    0.86
  17   7  11    4.24    1.06
  17  -7 -11    2.46    0.72
  17   8 -11    0.04    0.61
 -17  -8 -11    1.19    0.65
  17  -8  11    1.03    0.72
  17  -8 -11    0.93    0.56
  17   8  11   -0.58    0.61
  17   0 -12   -0.36    0.38
  17   0  12   -0.55    0.41
  17  -1  12    2.61    0.68
  17   1 -12    0.54    0.54
  17   1  12    1.54    0.66
  17  -1 -12    2.70    0.74
  17   2 -12    6.60    1.01
  17  -2  12    7.08    1.07
  17  -2 -12    6.25    0.98
  17   2  12    6.51    1.08
  17  -3  12    0.52    0.53
 -17  -3 -12    1.61    0.65
  17   3 -12    0.57    0.55
  17   3  12    1.04    0.58
  17  -3 -12    1.23    0.55
  17  -4  12    7.36    1.15
 -17  -4 -12    6.43    0.97
  17   4 -12    7.18    1.07
  17  -4 -12    6.22    0.98
  17   4  12    5.75    1.04
  17   5 -12   10.55    1.30
 -17  -5 -12   11.49    1.33
  17  -5  12    9.24    1.25
  17   5  12    8.75    1.27
  17  -5 -12   10.57    1.21
  17   6 -12   -0.04    0.50
  17  -6  12   -0.48    0.58
 -17  -6 -12   -0.38    0.45
  17  -6 -12   -0.07    0.53
  17   6  12    0.19    0.62
 -17  -7 -12    3.24    0.88
  17  -7  12    3.11    0.89
  17   7 -12    2.05    0.78
  17   7  12    2.88    0.93
  17  -7 -12    2.75    0.81
 -17  -8 -12    3.79    0.96
  17   8 -12    2.77    0.90
  17  -8 -12    4.89    0.98
  17   8  12    3.53    1.04
  17   0 -13    7.92    1.15
  17   0  13    8.15    1.18
  17  -1  13    2.08    0.74
  17   1 -13    1.78    0.68
  17  -1 -13    1.49    0.64
  17   1  13    0.58    0.53
  17  -2  13    0.64    0.59
 -17  -2 -13   -0.17    0.45
  17   2 -13    0.44    0.55
  17  -2 -13    0.13    0.55
  17   2  13   -0.27    0.51
 -17  -3 -13    7.09    1.03
  17  -3  13    7.82    1.15
  17   3 -13   10.56    1.27
  17  -3 -13   11.86    1.34
  17   3  13   10.08    1.32
  17   4 -13    2.02    0.72
  17  -4  13    1.34    0.63
 -17  -4 -13    1.73    0.70
  17   4  13    1.65    0.73
  17  -4 -13    1.02    0.61
 -17  -5 -13    0.79    0.66
  17  -5  13    0.15    0.64
  17   5 -13    0.40    0.64
  17  -5 -13    0.11    0.54
  17   5  13    0.51    0.66
  17  -6  13    2.38    0.85
  17   6 -13    2.90    0.82
 -17  -6 -13    2.84    0.84
  17   6  13    1.65    0.72
  17  -6 -13    2.57    0.78
 -17  -7 -13    3.13    0.91
  17  -7  13    1.64    0.75
  17   7 -13    4.77    1.04
  17  -7 -13    2.79    0.82
  17   7  13    3.21    0.97
  17   0 -14    0.07    0.48
  17   0  14   -0.01    0.60
  17   1 -14    2.35    0.74
  17  -1  14    2.26    0.72
  17  -1 -14    2.53    0.81
  17   1  14    2.94    0.84
  17   2 -14    5.71    1.04
  17  -2  14    4.79    0.93
 -17  -2 -14    5.50    0.94
  17   2  14    4.31    0.93
  17  -2 -14    6.39    1.03
  17  -3  14    1.42    0.73
 -17  -3 -14    0.68    0.59
  17   3 -14    0.76    0.66
  17   3  14    0.31    0.59
  17  -3 -14    2.28    0.75
 -17  -4 -14    2.89    0.77
  17  -4  14    5.63    1.07
  17   4 -14    2.51    0.78
  17   4  14    3.51    0.91
  17  -4 -14    4.63    0.98
 -17  -5 -14    5.04    1.01
  17  -5  14    3.28    0.96
  17   5 -14    5.88    1.07
  17  -5 -14    4.58    0.98
  17   5  14    4.58    1.08
  17  -6  14    0.90    0.76
 -17  -6 -14    0.37    0.59
  17   6 -14    0.70    0.66
  17   6  14    0.32    0.72
  17  -6 -14    0.37    0.64
  17   0 -15    4.27    0.87
  17   0  15    3.90    0.92
  17   1 -15    2.11    0.72
  17  -1  15    2.40    0.80
  17  -1 -15    1.74    0.70
  17   1  15    2.27    0.80
  17   2 -15    1.03    0.63
  17  -2  15    0.54    0.68
 -17  -2 -15    0.34    0.58
  17  -2 -15    1.03    0.66
  17   2  15    0.82    0.66
  17   3 -15    5.73    1.12
 -17  -3 -15    4.97    0.97
  17  -3  15    5.18    1.05
  17   3  15    4.74    1.05
  17  -3 -15    3.95    0.89
  17  -4  15    1.44    0.79
 -17  -4 -15    1.39    0.69
  17   4 -15    1.36    0.74
  17   4  15    1.24    0.78
  17  -4 -15    0.78    0.73
  17   5 -15    0.72    0.72
 -17  -5 -15    0.11    0.58
  17  -5  15   -0.08    0.65
  17  -5 -15   -0.25    0.53
  17   5  15    0.57    0.66
  17   0  16   -0.03    0.60
  17   0 -16   -0.74    0.58
  17   1 -16    1.96    0.78
  17  -1  16    1.33    0.70
  17   1  16    1.48    0.76
  17  -1 -16    1.26    0.74
  17  -2  16    2.69    0.90
  17   2 -16    1.39    0.79
 -17  -2 -16    2.07    0.79
  17  -2 -16    2.79    0.89
  17   2  16    1.87    0.78
  17   3 -16    0.02    0.55
 -17  -3 -16    0.34    0.56
  17  -3  16    0.96    0.69
  17   3  16   -0.04    0.63
  17  -3 -16   -0.32    0.55
 -17  -4 -16    1.43    0.68
  17  -4  16    1.00    0.74
  17   4 -16    0.25    0.71
  17  -4 -16    0.63    0.65
  17   4  16   -0.31    0.63
  17   0 -17    6.73    1.21
  17   0  17    7.17    1.14
  17  -1  17    0.86    0.70
  17   1 -17    0.73    0.73
  17   1  17    0.33    0.74
  17  -1 -17    0.58    0.67
  17   2 -17    0.12    0.58
 -17  -2 -17   -0.03    0.59
  17  -2  17    1.70    0.74
  17   2  17    0.81    0.73
  17  -2 -17    0.29    0.60
  17   3 -17    1.96    0.80
  17  -3 -17    2.36    0.88
  18   0   0   77.02    2.78
  18   0   0   78.15    2.83
  18   1   0   13.61    0.94
  18  -1   0   11.81    0.88
  18   1   0   12.71    0.86
  18   2   0   13.59    0.95
  18  -2   0   11.79    0.89
  18   2   0   13.19    0.86
  18   3   0   18.68    1.16
  18   3   0   17.49    1.02
  18  -3   0   17.71    1.09
  18   4   0    4.84    0.71
  18   4   0    3.48    0.51
  18  -4   0    2.77    0.54
  18  -5   0    0.87    0.46
  18   5   0    1.21    0.45
  18   6   0   15.41    1.23
  18  -6   0   19.26    1.25
  18   7   0   15.17    1.51
  18  -7   0   12.63    1.23
  18  -8   0    2.19    0.61
  18   8   0    2.52    0.76
  18   9   0   10.28    1.36
  18  -9   0   11.07    1.24
  18 -10   0    8.04    1.11
  18  10   0    8.87    1.42
  18   0  -1    0.20    0.32
  18   0   1    0.35    0.30
  18   0  -1    0.54    0.32
  18   1  -1    6.14    0.70
  18   1  -1    5.52    0.69
  18  -1   1    6.39    0.73
  18  -1  -1    6.17    0.72
  18   1   1    4.83    0.60
  18  -1  -1    6.46    0.71
  18   1   1    5.83    0.73
  18   2  -1   12.25    0.89
  18  -2   1   12.71    0.91
  18   2  -1   12.69    0.86
  18   2   1   13.29    0.96
  18  -2  -1   12.66    0.88
  18  -3   1    1.28    0.40
  18   3  -1    0.56    0.35
  18  -3  -1    0.41    0.35
  18   3   1    0.88    0.31
  18   3   1    0.43    0.38
  18   4  -1    4.72    0.69
  18  -4   1    4.70    0.73
  18   4  -1    4.57    0.61
  18  -4  -1    4.31    0.63
  18   4   1    4.94    0.74
  18   4   1    5.75    0.63
  18   5  -1   15.19    1.14
  18   5  -1   17.16    1.03
  18  -5   1   16.51    1.15
  18   5   1   14.74    1.14
  18  -5  -1   14.97    1.07
  18   6  -1    1.60    0.59
  18  -6   1    2.05    0.59
  18   6   1    2.18    0.64
  18  -6  -1    0.93    0.46
  18   7  -1   13.52    1.39
  18  -7   1   10.99    1.12
  18   7   1   12.18    1.31
  18  -7  -1   14.69    1.14
  18  -8   1   10.68    1.19
  18   8  -1   11.87    1.41
  18   8   1   11.12    1.35
  18  -8  -1   10.40    1.11
  18  -9   1    0.22    0.46
  18   9  -1   -0.09    0.60
  18   9   1    0.44    0.60
  18  -9  -1    0.08    0.48
  18 -10   1    2.37    0.73
  18  10  -1    2.15    0.82
  18  10   1    2.04    0.82
  18 -10  -1    1.71    0.64
  18   0  -2   63.48    2.32
  18   0   2   56.39    2.40
  18   0  -2   64.82    2.43
  18   1  -2   12.86    0.88
  18   1  -2   15.28    0.98
  18  -1   2   12.85    0.95
  18   1   2   12.52    0.95
  18  -1  -2   15.11    0.92
  18  -1  -2   14.34    0.96
  18   2  -2    9.63    0.90
  18   2  -2    8.87    0.84
  18  -2   2    9.93    0.98
  18  -2  -2    8.91    0.84
  18   2   2    8.98    0.92
  18  -2  -2    9.45    0.93
  18  -3   2   14.54    1.06
  18   3  -2   16.88    1.06
  18   3  -2   13.09    0.94
  18  -3  -2   16.70    1.01
  18   3   2   16.51    0.91
  18   3   2   17.09    1.12
  18  -3  -2   17.22    1.10
  18   4  -2   11.52    1.06
  18   4  -2   10.41    0.85
  18  -4   2   11.39    1.06
  18  -4  -2   10.16    0.94
  18   4   2    8.83    0.99
  18   4   2   10.58    0.74
  18  -5   2    1.16    0.49
  18   5  -2    0.49    0.31
  18   5  -2    1.02    0.45
  18   5   2    0.95    0.47
  18  -5  -2    1.27    0.44
  18   6  -2   13.44    1.27
  18  -6   2   11.95    1.19
  18   6   2   11.89    1.25
  18  -6  -2   12.62    1.01
  18  -7   2   10.47    1.14
  18   7  -2   11.72    1.31
  18   7   2   12.76    1.38
  18  -7  -2   11.12    1.08
  18  -8   2   -0.02    0.40
  18   8  -2   -0.17    0.53
  18   8   2    0.76    0.55
  18  -8  -2   -0.03    0.37
  18   9  -2    3.40    0.87
  18  -9   2    3.74    0.82
  18   9   2    3.05    0.94
  18  -9  -2    3.10    0.74
  18  10  -2    7.02    1.24
  18 -10   2    7.43    1.14
  18 -10  -2    5.57    0.96
  18  10   2    9.93    1.43
  18   0   3    0.49    0.33
  18   0  -3    0.06    0.26
  18   0  -3    0.03    0.33
  18  -1   3   13.70    1.00
  18   1  -3   13.90    0.96
  18   1  -3   13.42    0.87
  18  -1  -3   13.62    0.86
  18  -1  -3   12.71    0.94
  18   1   3   12.92    0.98
  18   2  -3   18.94    1.06
  18   2  -3   15.76    1.04
  18  -2   3   16.98    1.14
  18  -2  -3   17.45    1.14
  18   2   3   16.79    0.95
  18   2   3   16.95    1.16
  18  -2  -3   17.28    0.98
  18   3  -3    8.11    0.83
  18   3  -3    8.05    0.84
  18  -3   3    6.04    0.81
  18   3   3    5.16    0.77
  18  -3  -3    7.40    0.75
  18   3   3    8.26    0.65
  18  -3  -3    6.13    0.77
  18  -4   3   14.64    1.16
  18   4  -3   16.41    1.09
  18  -4  -3   17.28    1.17
  18   4   3   14.33    1.13
  18  -4  -3   16.58    1.01
  18   5  -3   36.42    1.80
  18   5  -3   31.94    1.64
  18  -5   3   33.70    1.79
  18  -5  -3   35.07    1.77
  18  -5  -3   34.71    1.63
  18   5   3   35.28    1.89
  18   6  -3    0.05    0.39
  18  -6   3   -0.27    0.33
  18   6   3   -0.13    0.35
  18  -6  -3    0.55    0.51
  18  -6  -3    0.13    0.36
  18   7  -3    7.49    1.04
  18  -7   3    8.26    1.08
  18   7   3    5.86    0.98
  18  -7  -3    9.02    0.97
  18  -8   3    7.09    1.03
  18   8  -3    4.87    0.92
  18   8   3    6.53    1.08
  18  -8  -3    6.52    0.87
  18   9  -3    1.89    0.73
  18  -9   3    1.66    0.64
  18   9   3    1.30    0.70
  18  -9  -3    1.46    0.63
  18  -9  -3    1.06    0.57
  18 -10   3    0.29    0.60
  18  10  -3    0.32    0.57
  18  10   3   -0.21    0.61
  18 -10  -3    0.27    0.58
  18   0  -4    9.29    0.72
  18   0  -4   10.33    0.95
  18   0   4   12.23    1.13
  18   1  -4    6.09    0.65
  18   1  -4    6.07    0.73
  18  -1   4    6.54    0.81
  18   1   4    6.77    0.85
  18  -1  -4    5.74    0.72
  18  -1  -4    7.41    0.69
  18   2  -4    0.25    0.30
  18  -2   4    0.39    0.41
  18   2  -4   -0.21    0.28
  18  -2  -4    0.81    0.41
  18   2   4    0.17    0.34
  18  -2  -4    0.25    0.28
  18  -3   4   39.84    1.97
  18   3  -4   43.11    1.90
  18   3  -4   45.30    1.88
  18   3   4   41.92    2.04
  18   3   4   41.43    1.67
  18  -3  -4   43.72    1.97
  18  -3  -4   43.77    1.76
  18   4  -4    6.63    0.83
  18   4  -4    4.96    0.72
  18  -4   4    7.02    0.91
  18  -4  -4    4.27    0.60
  18  -4  -4    6.63    0.85
  18   4   4    3.14    0.70
  18  -5   4    4.51    0.77
  18   5  -4    5.00    0.78
  18   5   4    4.68    0.83
  18  -5  -4    5.00    0.66
  18  -5  -4    4.64    0.73
  18  -6   4    9.43    1.11
  18   6  -4    7.50    0.98
  18   6  -4    7.65    0.91
  18   6   4    9.12    1.16
  18  -6  -4    6.68    0.89
  18  -6  -4    9.33    0.89
  18  -7   4    2.61    0.74
  18   7  -4    2.85    0.72
  18  -7  -4    2.31    0.60
  18  -7  -4    2.94    0.58
  18   7   4    2.41    0.78
  18  -8   4   -0.32    0.47
  18   8  -4    0.64    0.57
  18   8   4   -0.16    0.49
  18  -8  -4   -0.18    0.49
  18   9  -4    3.35    0.93
  18  -9   4    4.92    0.91
  18  -9  -4    2.61    0.70
  18   9   4    4.54    1.09
  18  10  -4    9.59    1.40
  18 -10   4    8.26    1.20
  18 -10  -4    8.00    1.12
  18  10   4    6.82    1.32
  18   0   5   -0.17    0.32
  18   0  -5    0.25    0.29
  18   0  -5    0.01    0.24
  18  -1   5    2.71    0.60
  18   1  -5    1.99    0.50
  18   1  -5    2.76    0.46
  18  -1  -5    2.19    0.51
  18   1   5    2.55    0.60
  18  -1  -5    2.30    0.42
  18   2  -5   22.30    1.31
  18   2  -5   20.46    1.15
  18  -2   5   21.77    1.36
  18   2   5   21.67    1.36
  18  -2  -5   22.75    1.32
  18  -2  -5   21.79    1.08
  18   3  -5   12.68    0.89
  18  -3   5    8.33    0.98
  18   3  -5    8.88    0.92
  18  -3  -5   11.85    1.10
  18   3   5   12.38    1.22
  18   3   5   10.47    0.72
  18  -3  -5   10.95    0.77
  18  -4   5   15.03    1.18
  18   4  -5   14.81    1.08
  18   4  -5   14.97    1.06
  18  -4  -5   14.20    0.91
  18  -4  -5   15.33    1.12
  18   4   5   15.43    1.25
  18  -5   5   27.23    1.63
  18   5  -5   27.03    1.53
  18  -5  -5   24.78    1.49
  18   5   5   26.27    1.65
  18  -5  -5   26.92    1.46
  18   6  -5    2.56    0.63
  18  -6   5    2.15    0.68
  18   6  -5    1.84    0.57
  18  -6  -5    2.96    0.67
  18   6   5    2.89    0.78
  18  -7   5    5.22    0.93
  18   7  -5    7.60    1.07
  18  -7  -5    6.61    0.92
  18   7   5    9.79    1.32
  18   8  -5    8.08    1.20
  18  -8   5    8.26    1.15
  18  -8  -5    7.22    1.00
  18   8   5    7.20    1.18
  18  -9   5    0.59    0.58
  18   9  -5    1.21    0.67
  18  -9  -5    0.82    0.59
  18   9   5    1.00    0.75
  18 -10   5    1.15    0.71
  18  10  -5   -0.22    0.49
  18 -10  -5    0.71    0.64
  18  10   5    0.16    0.65
  18   0  -6   19.25    1.23
  18   0  -6   20.16    1.01
  18   0   6   19.83    1.36
  18   1  -6    3.15    0.59
  18  -1   6    4.46    0.74
  18   1  -6    2.54    0.46
  18  -1  -6    2.77    0.43
  18  -1  -6    3.25    0.63
  18   1   6    3.02    0.68
  18   2  -6   14.68    1.07
  18  -2   6   18.76    1.26
  18   2  -6   14.45    0.93
  18   2   6   14.80    1.18
  18  -2  -6   14.69    0.83
  18  -2  -6   14.84    1.09
  18   3  -6    4.43    0.70
  18  -3   6    6.49    0.90
  18   3  -6    5.61    0.69
  18   3   6    4.50    0.78
  18  -3  -6    5.75    0.82
  18   4  -6    3.03    0.61
  18   4  -6    2.98    0.60
  18  -4   6    2.52    0.68
  18  -4  -6    2.97    0.62
  18   4   6    2.97    0.70
  18  -5   6    2.10    0.68
  18   5  -6    1.67    0.55
  18   5  -6    0.72    0.47
  18  -5  -6    0.78    0.54
  18   5   6    0.85    0.50
  18   6  -6    5.24    0.86
  18  -6   6    5.73    0.95
  18   6   6    8.40    1.19
  18  -6  -6    4.77    0.78
  18   7  -6    4.23    0.84
  18  -7   6    3.75    0.85
  18  -7  -6    4.54    0.80
  18   7   6    4.25    0.94
  18   8  -6   -0.21    0.49
  18  -8   6   -0.08    0.49
  18   8   6   -0.16    0.52
  18  -8  -6    0.86    0.53
  18  -9   6    5.65    1.12
  18   9  -6    6.51    1.12
  18  -9  -6    8.92    1.15
  18   9   6    4.87    1.08
  18 -10  -6    7.61    1.12
  18   0   7    0.37    0.43
  18   0  -7    0.63    0.41
  18   0  -7   -0.02    0.25
  18  -1   7    9.67    1.07
  18   1  -7    9.35    0.71
  18   1  -7   10.68    1.08
  18   1   7    9.85    1.11
  18  -1  -7   11.18    1.11
  18   2  -7   21.66    1.35
  18   2  -7   22.40    1.18
  18  -2   7   23.43    1.51
  18  -2  -7   21.52    1.36
  18   2   7   21.76    1.47
  18  -3   7    0.41    0.45
  18   3  -7    0.07    0.38
  18   3  -7   -0.03    0.28
  18  -3  -7    0.59    0.39
  18   3   7    0.00    0.36
  18  -4   7    6.71    0.98
  18   4  -7    7.80    0.87
  18   4  -7    6.40    0.89
  18   4   7    9.54    1.21
  18  -4  -7    7.18    0.94
  18   5  -7   18.01    1.29
  18  -5   7   18.55    1.44
  18   5  -7   19.80    1.36
  18   5   7   20.43    1.55
  18  -5  -7   19.25    1.32
  18   6  -7    2.56    0.61
  18   6  -7    1.71    0.58
  18  -6   7    1.56    0.60
  18  -6  -7    1.67    0.60
  18   6   7    1.81    0.67
  18  -7   7    6.56    1.01
  18   7  -7    7.91    1.08
  18   7   7    5.64    1.05
  18  -7  -7    4.83    0.84
  18  -8   7    6.76    1.14
  18   8  -7    6.71    1.10
  18  -8  -7    5.99    0.98
  18   8   7    7.15    1.24
  18   9  -7    1.41    0.62
  18  -9   7    1.49    0.71
  18  -9  -7    1.10    0.71
  18   9   7    0.86    0.75
  18   0   8   20.13    1.40
  18   0  -8   17.47    1.25
  18   1  -8    2.91    0.63
  18  -1   8    2.32    0.64
  18  -1  -8    2.77    0.63
  18   1   8    1.77    0.64
  18  -2   8    0.67    0.47
  18   2  -8    0.67    0.41
  18   2   8    0.30    0.49
  18  -2  -8    0.61    0.48
  18   3  -8   22.24    1.44
  18  -3   8   21.99    1.48
  18   3  -8   23.14    1.25
  18  -3  -8   19.61    1.34
  18   3   8   19.84    1.47
  18  -4   8    6.86    0.97
  18   4  -8    7.86    0.86
  18   4  -8    7.40    0.94
  18  -4  -8    5.81    0.84
  18   4   8    8.66    1.20
  18  -5   8    0.36    0.48
  18   5  -8    1.05    0.56
  18   5  -8    0.86    0.46
  18  -5  -8    1.63    0.59
  18   5   8    0.80    0.61
  18   6  -8    4.43    0.85
  18   6  -8    5.41    0.85
  18  -6   8    5.73    1.02
  18   6   8    4.55    0.93
  18  -6  -8    6.04    0.89
  18   7  -8    2.25    0.68
  18  -7   8    1.54    0.65
  18   7  -8    3.34    0.76
  18   7   8    2.70    0.83
  18  -7  -8    2.99    0.74
 -18  -8  -8    0.51    0.54
  18  -8   8    0.45    0.66
  18   8  -8    0.01    0.51
  18  -8  -8    0.17    0.48
  18   8   8    0.60    0.73
  18   9  -8    4.62    1.04
  18  -9   8    3.66    0.95
  18   9   8    3.54    1.07
  18  -9  -8    4.65    0.89
  18   0  -9   -0.29    0.36
  18   0   9    0.51    0.54
  18  -1   9    2.11    0.59
  18   1  -9    1.57    0.54
  18  -1  -9    1.51    0.57
  18   1   9    1.77    0.60
  18   2  -9   12.48    1.25
  18  -2   9   12.14    1.28
  18  -2  -9   11.68    1.21
  18   2   9   12.44    1.33
  18   3  -9    3.22    0.73
  18  -3   9    3.13    0.78
  18   3   9    2.49    0.77
  18  -3  -9    3.74    0.74
  18   4  -9    7.74    1.03
  18  -4   9    8.03    1.12
  18   4   9    6.73    1.07
  18  -4  -9    8.31    1.05
  18  -5   9   12.21    1.34
  18   5  -9   12.42    1.27
  18   5   9   13.98    1.51
  18  -5  -9   12.88    1.27
  18   6  -9    0.07    0.44
 -18  -6  -9    1.29    0.58
  18   6  -9    0.81    0.50
  18  -6   9    0.38    0.57
  18  -6  -9    0.71    0.57
  18   6   9    0.65    0.64
  18   7  -9    1.66    0.63
  18   7  -9    1.27    0.65
  18  -7   9    3.23    0.85
 -18  -7  -9    3.50    0.84
  18   7   9    2.91    0.91
  18  -7  -9    1.92    0.64
  18  -8   9    6.50    1.15
  18   8  -9    5.48    1.02
 -18  -8  -9    7.46    1.19
  18   8   9    5.99    1.20
  18  -8  -9    5.03    0.94
  18   9  -9    0.25    0.65
 -18  -9  -9    0.27    0.58
  18  -9   9    0.27    0.63
  18  -9  -9   -0.12    0.59
  18   9   9   -0.06    0.61
  18   0 -10   12.09    1.25
  18   0  10   11.91    1.35
  18   1 -10    5.17    0.85
  18  -1  10    4.19    0.83
  18  -1 -10    3.92    0.76
  18   1  10    4.31    0.83
  18   2 -10    3.78    0.72
  18  -2  10    3.43    0.80
  18   2  10    4.51    0.91
  18  -2 -10    4.31    0.83
  18  -3  10   11.30    1.27
  18   3 -10   10.96    1.23
  18  -3 -10   11.73    1.25
  18   3  10   11.72    1.39
  18  -4  10    2.97    0.80
  18   4 -10    2.35    0.65
  18  -4 -10    3.27    0.76
  18   4  10    1.92    0.75
 -18  -5 -10    0.91    0.60
  18  -5  10    1.58    0.66
  18   5 -10    1.01    0.60
  18   5  10    1.12    0.69
  18  -5 -10    1.75    0.65
 -18  -6 -10    2.46    0.77
  18  -6  10    3.78    0.92
  18   6 -10    2.80    0.75
  18  -6 -10    3.97    0.83
  18   6  10    2.04    0.79
  18  -7  10    4.91    1.04
 -18  -7 -10    5.54    1.04
  18   7 -10    3.66    0.87
  18  -7 -10    3.56    0.84
  18   7  10    2.98    0.92
  18  -8  10    0.67    0.70
 -18  -8 -10    0.09    0.57
  18  -8 -10    0.95    0.64
  18   8  10   -0.16    0.63
  18   0 -11    0.18    0.46
  18   0  11    0.04    0.50
  18   1 -11    2.64    0.74
  18  -1  11    3.13    0.81
  18   1  11    3.34    0.78
  18  -1 -11    3.44    0.78
  18  -2  11    5.41    0.93
  18   2 -11    4.38    0.84
  18  -2 -11    4.50    0.82
  18   2  11    6.91    1.07
  18   3 -11    1.90    0.65
  18  -3  11    1.80    0.70
  18   3  11    0.67    0.54
  18  -3 -11    1.10    0.56
  18  -4  11    9.65    1.25
  18   4 -11    8.85    1.14
 -18  -4 -11   11.08    1.26
  18  -4 -11    9.36    1.19
  18   4  11    9.76    1.33
 -18  -5 -11    8.63    1.19
  18   5 -11    8.85    1.21
  18  -5  11    7.38    1.16
  18  -5 -11    7.77    1.11
  18   5  11    7.98    1.29
 -18  -6 -11   -0.44    0.46
  18   6 -11   -0.04    0.50
  18  -6  11    0.26    0.61
  18   6  11    0.40    0.64
  18  -6 -11   -0.30    0.45
  18   7 -11    4.27    0.97
  18  -7  11    5.03    1.01
 -18  -7 -11    4.03    0.90
  18  -7 -11    2.67    0.77
  18   7  11    3.88    1.07
  18  -8  11    3.20    0.93
  18   8 -11    3.29    0.99
 -18  -8 -11    3.30    0.94
  18   8  11    2.74    0.91
  18  -8 -11    2.88    0.80
  18   0 -12    6.28    1.02
  18   0  12    8.05    1.17
  18   1 -12    2.55    0.68
  18  -1  12    2.36    0.72
  18  -1 -12    1.80    0.69
  18   1  12    0.85    0.59
  18   2 -12    0.67    0.52
  18  -2  12    0.94    0.59
  18   2  12    0.64    0.61
  18  -2 -12    1.16    0.61
  18   3 -12    9.45    1.20
  18  -3  12    8.54    1.21
  18  -3 -12    8.53    1.10
  18   3  12    7.68    1.19
  18   4 -12    1.99    0.69
 -18  -4 -12    2.29    0.76
  18  -4  12    1.31    0.71
  18   4  12    2.12    0.75
  18  -4 -12    1.66    0.63
 -18  -5 -12   -0.36    0.45
  18  -5  12    0.27    0.54
  18   5 -12   -0.18    0.48
  18  -5 -12    0.31    0.52
  18   5  12   -0.34    0.64
 -18  -6 -12    5.34    1.02
  18  -6  12    4.13    0.95
  18   6 -12    5.85    1.06
  18   6  12    7.68    1.25
  18  -6 -12    4.21    0.90
  18  -7  12    2.97    0.91
 -18  -7 -12    2.49    0.87
  18   7 -12    1.25    0.70
  18   7  12    1.57    0.85
  18  -7 -12    2.59    0.82
  18   0 -13    0.83    0.53
  18   0  13   -0.12    0.58
  18   1 -13    2.82    0.74
  18  -1  13    3.61    0.88
  18   1  13    4.49    0.95
  18  -1 -13    4.05    0.88
  18   2 -13    5.75    0.97
  18  -2  13    5.09    0.97
  18  -2 -13    5.97    1.05
  18   2  13    4.12    0.99
 -18  -3 -13    0.26    0.53
  18  -3  13    0.03    0.52
  18   3 -13    1.45    0.69
  18   3  13   -0.08    0.62
  18  -3 -13   -0.74    0.48
 -18  -4 -13    1.11    0.68
  18   4 -13    2.13    0.72
  18  -4  13    1.64    0.74
  18   4  13    1.50    0.75
  18  -4 -13    1.74    0.67
  18   5 -13    8.53    1.27
  18  -5  13    8.50    1.32
 -18  -5 -13    9.13    1.23
  18   5  13    6.81    1.22
  18  -5 -13    7.79    1.13
  18   6 -13   -0.58    0.56
 -18  -6 -13    1.48    0.77
  18  -6  13    0.32    0.66
  18   6  13    0.17    0.65
  18  -6 -13    0.28    0.60
  18   7 -13    2.01    0.85
  18  -7 -13    2.06    0.76
  18   0 -14    6.95    1.13
  18   0  14    8.01    1.16
  18   1 -14    3.90    0.90
  18  -1  14    1.95    0.73
  18  -1 -14    3.61    0.83
  18   1  14    0.73    0.64
  18  -2  14    1.05    0.64
  18   2 -14    1.34    0.70
  18  -2 -14    2.24    0.77
  18   2  14    0.89    0.65
 -18  -3 -14    6.95    1.08
  18  -3  14    5.32    1.05
  18   3 -14    6.20    1.07
  18  -3 -14    4.47    0.96
  18   3  14    8.10    1.26
 -18  -4 -14    3.20    0.84
  18  -4  14    2.35    0.87
  18   4 -14    2.50    0.80
  18  -4 -14    2.51    0.77
  18   4  14    1.92    0.82
  18  -5  14    0.63    0.68
 -18  -5 -14    0.41    0.60
  18   5 -14    0.44    0.58
  18  -5 -14    0.24    0.58
  18   5  14    0.47    0.67
  18  -6  14    2.53    0.89
 -18  -6 -14    1.49    0.80
  18   6 -14    0.88    0.80
  18  -6 -14    3.39    0.86
  18   6  14    1.06    0.79
  18   0 -15   -0.25    0.55
  18   0  15    0.04    0.59
  18  -1  15    2.07    0.77
  18   1 -15    0.72    0.68
  18  -1 -15    3.09    0.86
  18   1  15    2.17    0.82
  18  -2  15    2.61    0.88
  18   2 -15    4.78    1.03
  18  -2 -15    2.47    0.81
  18   2  15    4.05    0.99
 -18  -3 -15   -0.31    0.49
  18  -3  15    0.81    0.64
  18   3 -15   -0.24    0.53
  18   3  15   -0.31    0.61
  18  -3 -15    0.38    0.65
  18  -4  15    1.32    0.76
  18   4 -15    2.80    0.85
 -18  -4 -15    3.04    0.89
  18   4  15    0.98    0.72
  18  -4 -15    1.88    0.77
 -18  -5 -15    4.45    1.00
  18  -5  15    4.24    0.99
  18   5 -15    3.53    1.00
  18  -5 -15    2.60    0.78
  18   5  15    3.44    0.99
  18   0  16    5.09    1.08
  18   0 -16    3.55    0.89
  18  -1  16    1.23    0.78
  18   1 -16    0.61    0.65
  18   1  16    0.62    0.68
  18  -1 -16    1.42    0.70
  18   2 -16   -0.10    0.57
  18  -2  16    1.14    0.72
  18   2  16    0.85    0.79
  18  -2 -16    0.04    0.56
 -18  -3 -16    2.87    0.87
  18   3 -16    2.24    0.87
  18  -3  16    3.12    0.91
  18  -3 -16    2.23    0.89
  18   3  16    2.01    0.88
  18   0 -17    0.19    0.61
  18   0  17    0.19    0.62
  18  -1  17    2.14    0.85
  18   1 -17    2.25    0.79
  18   1  17    0.53    0.76
  18  -1 -17    1.43    0.83
  19   0   0    0.07    0.27
  19   0   0    0.49    0.33
  19   1   0    6.19    0.74
  19   1   0    8.79    0.83
  19  -1   0    8.64    0.86
  19  -1   0    7.61    0.80
  19   2   0   13.15    0.94
  19  -2   0   13.17    0.97
  19   2   0   14.71    0.93
  19  -3   0    4.74    0.69
  19   3   0    3.41    0.63
  19   4   0    8.62    0.96
  19   4   0    8.69    0.81
  19  -4   0    7.18    0.86
  19   5   0   18.23    1.25
  19  -5   0   17.84    1.22
  19  -6   0    2.66    0.62
  19   6   0    2.99    0.70
  19   7   0    6.15    1.02
  19  -7   0    9.13    1.06
  19  -8   0   20.31    1.45
  19   8   0   19.06    1.82
  19   9   0    0.43    0.61
  19  -9   0    0.55    0.55
  19  10   0    2.34    0.91
  19 -10   0    1.17    0.66
  19   0  -1   38.19    1.70
  19   0   1   34.61    1.67
  19   0   1   37.00    1.65
  19   0  -1   36.41    1.64
  19  -1   1    8.74    0.88
  19   1  -1   10.88    0.95
  19   1  -1    9.36    0.89
  19   1   1    8.30    0.80
  19  -1  -1    8.95    0.87
  19  -1  -1    7.95    0.83
  19   1   1    7.82    0.86
  19   2  -1    5.93    0.75
  19   2  -1    5.33    0.65
  19  -2   1    5.81    0.75
  19  -2  -1    4.82    0.65
  19  -2  -1    7.52    0.85
  19   2   1    4.62    0.67
  19   3  -1   18.24    1.15
  19  -3   1   20.61    1.25
  19   3   1   18.13    1.21
  19   3   1   18.48    1.04
  19  -3  -1   18.07    1.12
  19   4  -1    2.71    0.50
  19   4  -1    3.69    0.67
  19  -4   1    2.38    0.57
  19   4   1    2.27    0.45
  19  -4  -1    2.07    0.51
  19   4   1    2.73    0.61
  19   5  -1    2.16    0.59
  19  -5   1    0.39    0.42
  19   5  -1    1.64    0.43
  19  -5  -1    1.97    0.55
  19   5   1    1.75    0.55
  19  -6   1    8.91    1.06
  19   6  -1    9.83    1.13
  19  -6  -1   11.37    1.11
  19   6   1   12.38    1.32
  19   7  -1   11.02    1.27
  19  -7   1   11.12    1.15
  19  -7  -1   11.91    1.15
  19   7   1   11.87    1.34
  19  -8   1    0.42    0.52
  19   8  -1   -0.17    0.54
  19   8   1    0.83    0.62
  19  -8  -1    0.97    0.54
  19  -9   1    7.97    1.12
  19   9  -1    6.61    1.14
  19   9   1    6.92    1.22
  19  -9  -1    7.36    1.04
  19  10  -1    9.69    1.43
  19 -10   1    7.34    1.14
  19 -10  -1    8.97    1.18
  19  10   1    9.73    1.56
  19   0   2    0.26    0.35
  19   0  -2    0.30    0.30
  19   0  -2   -0.13    0.32
  19  -1   2    9.55    0.95
  19   1  -2   12.04    0.84
  19   1  -2    8.57    0.87
  19  -1  -2   10.58    0.99
  19   1   2    8.86    0.71
  19  -1  -2    8.27    0.79
  19   1   2    8.88    0.93
  19  -2   2   22.72    1.33
  19   2  -2   22.28    1.26
  19   2  -2   23.41    1.28
  19   2   2   25.37    1.39
  19  -2  -2   24.08    1.35
  19  -2  -2   24.66    1.26
  19  -3   2    5.22    0.74
  19   3  -2    3.95    0.59
  19   3  -2    2.69    0.53
  19  -3  -2    4.05    0.67
  19   3   2    1.40    0.47
  19   3   2    2.08    0.43
  19  -3  -2    2.85    0.51
  19  -4   2   13.51    1.09
  19   4  -2   12.67    1.02
  19   4   2   13.06    1.06
  19  -4  -2   13.13    0.97
  19  -4  -2   12.44    1.14
  19  -5   2   16.97    1.22
  19   5  -2   18.97    1.25
  19   5  -2   17.22    1.13
  19   5   2   16.30    1.25
  19  -5  -2   19.40    1.20
  19  -6   2    0.48    0.49
  19   6  -2   -0.09    0.38
  19   6   2    0.19    0.42
  19  -6  -2   -0.05    0.38
  19   7  -2    5.65    0.95
  19  -7   2    4.61    0.81
  19   7   2    4.76    0.87
  19  -7  -2    4.98    0.78
  19   8  -2    4.81    0.96
  19  -8   2    4.54    0.82
  19   8   2    4.30    0.95
  19  -8  -2    4.98    0.84
  19   9  -2    1.63    0.76
  19  -9   2    2.26    0.71
  19   9   2    1.69    0.75
  19  -9  -2    2.58    0.68
  19  10  -2    0.90    0.81
  19 -10   2    0.62    0.62
  19  10   2    0.89    0.71
  19 -10  -2    1.38    0.67
  19   0  -3   15.32    0.94
  19   0   3   15.74    1.10
  19   0  -3   15.14    1.03
  19  -1   3   16.67    1.13
  19   1  -3   17.35    1.09
  19   1  -3   15.27    0.96
  19   1   3   14.39    1.07
  19  -1  -3   15.10    1.06
  19  -1  -3   15.75    0.95
  19   2  -3    1.79    0.45
  19   2  -3    1.33    0.44
  19  -2   3    1.10    0.46
  19  -2  -3    1.29    0.39
  19  -2  -3    1.82    0.51
  19   2   3    1.57    0.48
  19  -3   3   36.53    1.81
  19   3  -3   36.05    1.70
  19   3  -3   34.67    1.67
  19   3   3   33.67    1.51
  19  -3  -3   36.45    1.79
  19  -3  -3   37.36    1.63
  19   3   3   35.70    1.84
  19   4  -3    6.37    0.81
  19  -4   3    7.44    0.92
  19   4   3    7.89    0.96
  19  -4  -3    8.47    0.96
  19  -4  -3    9.70    0.90
  19  -5   3    4.49    0.77
  19   5  -3    5.97    0.77
  19   5  -3    5.33    0.81
  19  -5  -3    5.39    0.73
  19   5   3    4.32    0.77
  19  -5  -3    5.29    0.81
  19  -6   3    6.36    0.96
  19   6  -3    8.33    1.06
  19  -6  -3    5.65    0.78
  19  -6  -3    5.95    0.88
  19   6   3    6.12    0.99
  19   7  -3    3.37    0.81
  19  -7   3    5.60    0.92
  19  -7  -3    3.41    0.67
  19   7   3    3.48    0.83
  19  -7  -3    3.79    0.75
  19   8  -3   -0.21    0.49
  19  -8   3    0.87    0.61
  19  -8  -3    1.06    0.51
  19  -8  -3    0.44    0.49
  19   8   3    0.44    0.54
  19  -9   3    3.32    0.88
  19   9  -3    1.13    0.76
  19   9   3    2.44    0.87
  19  -9  -3    4.63    0.93
  19 -10   3    7.52    1.20
  19  10  -3    9.09    1.41
  19  10   3    8.54    1.48
  19 -10  -3    8.44    1.15
  19   0  -4   -0.08    0.30
  19   0  -4   -0.17    0.22
  19   0   4   -0.53    0.29
  19  -1   4    0.47    0.41
  19   1  -4    1.19    0.43
  19   1  -4    0.69    0.33
  19  -1  -4    0.88    0.34
  19  -1  -4    0.44    0.35
  19   1   4    0.35    0.34
  19   2  -4   38.28    1.64
  19  -2   4   34.41    1.81
  19   2  -4   33.59    1.70
  19  -2  -4   35.55    1.76
  19   2   4   34.06    1.79
  19  -2  -4   37.04    1.58
  19  -3   4   12.98    1.24
  19   3  -4   13.94    0.99
  19   3  -4   11.88    0.93
  19  -3  -4   11.10    1.07
  19   3   4   11.53    0.80
  19  -3  -4   12.99    0.89
  19   3   4   10.75    1.11
  19   4  -4   18.20    1.19
  19   4  -4   16.27    1.15
  19  -4   4   18.55    1.30
  19   4   4   18.73    1.37
  19  -4  -4   18.42    1.24
  19  -4  -4   19.08    1.10
  19  -5   4   27.67    1.67
  19   5  -4   30.66    1.68
  19  -5  -4   29.10    1.66
  19  -5  -4   29.81    1.47
  19   5   4   35.13    1.92
  19   6  -4    0.16    0.48
  19   6  -4    0.08    0.40
  19  -6   4    0.81    0.51
  19   6   4    0.54    0.50
  19  -6  -4   -0.12    0.42
  19  -6  -4    0.48    0.39
  19  -7   4    4.67    0.83
  19   7  -4    5.50    0.97
  19  -7  -4    6.37    0.95
  19   7   4    5.94    1.09
  19  -8   4    5.62    0.96
  19   8  -4    7.19    1.10
  19   8   4    8.49    1.27
  19  -8  -4    7.22    1.00
  19  -9   4    3.23    0.90
  19   9  -4    2.83    0.83
  19   9   4    2.62    0.98
  19  -9  -4    2.78    0.76
  19  10  -4    0.50    0.70
  19  10   4   -0.21    0.77
  19 -10  -4    0.43    0.64
  19   0  -5    9.91    0.98
  19   0  -5    9.16    0.72
  19   0   5   11.21    1.16
  19   1  -5   -0.28    0.30
  19  -1   5    0.40    0.40
  19   1  -5    0.18    0.29
  19  -1  -5    0.40    0.29
  19   1   5    0.30    0.37
  19  -1  -5    0.30    0.35
  19   2  -5    3.80    0.67
  19  -2   5    3.58    0.71
  19   2  -5    3.86    0.58
  19  -2  -5    4.39    0.55
  19   2   5    4.39    0.76
  19  -2  -5    3.74    0.67
  19  -3   5    8.68    1.05
  19   3  -5    7.91    0.84
  19   3  -5    7.74    0.88
  19   3   5    6.70    0.94
  19   3   5    8.34    0.76
  19  -3  -5   10.30    1.07
  19  -3  -5    7.98    0.76
  19   4  -5    2.54    0.59
  19  -4   5    1.85    0.62
  19   4  -5    2.36    0.55
  19  -4  -5    1.92    0.56
  19  -4  -5    1.62    0.42
  19   4   5    1.39    0.59
  19   5  -5    3.21    0.66
  19  -5   5    2.30    0.65
  19   5   5    2.23    0.69
  19  -5  -5    2.38    0.59
  19  -6   5    8.56    1.10
  19   6  -5    6.53    0.96
  19   6  -5    7.78    1.05
  19  -6  -5    8.29    1.03
  19   6   5    5.18    0.94
  19   7  -5    2.45    0.69
  19  -7   5    2.57    0.70
  19   7   5    3.59    0.91
  19  -7  -5    3.84    0.78
  19  -8   5    0.29    0.53
  19   8  -5    0.49    0.53
  19   8   5   -0.51    0.49
  19  -8  -5    0.04    0.43
  19  -9   5    5.75    1.06
  19   9  -5    7.65    1.23
  19   9   5    6.55    1.29
  19   0   6    0.02    0.41
  19   0  -6   -0.26    0.31
  19   0  -6    0.01    0.26
  19   1  -6   16.75    1.21
  19   1  -6   19.80    1.05
  19  -1   6   19.67    1.36
  19  -1  -6   19.02    1.28
  19  -1  -6   15.86    0.93
  19   1   6   16.33    1.24
  19   2  -6   16.88    1.01
  19   2  -6   16.96    1.17
  19  -2   6   14.49    1.18
  19   2   6   16.66    1.27
  19  -2  -6   17.25    1.20
  19  -3   6    0.84    0.46
  19   3  -6    0.41    0.38
  19   3  -6    0.30    0.40
  19  -3  -6    0.45    0.41
  19   3   6    0.18    0.47
  19  -4   6    5.48    0.94
  19   4  -6    5.28    0.74
  19   4  -6    4.16    0.71
  19   4   6    5.32    0.90
  19  -4  -6    4.37    0.78
  19  -5   6   17.46    1.39
  19   5  -6   17.58    1.28
  19   5  -6   17.77    1.27
  19  -5  -6   17.48    1.31
  19   5   6   18.43    1.47
  19  -6   6    4.89    0.91
  19   6  -6    4.14    0.82
  19  -6  -6    3.90    0.74
  19   6   6    3.39    0.79
  19   7  -6    4.47    0.90
  19  -7   6    5.85    0.97
  19  -7  -6    6.78    0.99
  19   7   6    8.32    1.21
  19   8  -6   10.16    1.29
  19  -8   6   10.23    1.30
  19   8   6   11.37    1.51
  19  -8  -6   10.50    1.19
  19  -9   6    0.97    0.67
  19   9  -6    0.42    0.63
  19  -9  -6    0.49    0.57
  19   9   6    0.63    0.72
  19   0  -7   36.33    1.87
  19   0   7   34.53    1.94
  19  -1   7    5.63    0.91
  19   1  -7    3.88    0.69
  19   1  -7    3.33    0.52
  19  -1  -7    4.64    0.80
  19   1   7    6.56    0.98
  19   2  -7    7.24    0.91
  19  -2   7    8.72    1.11
  19   2  -7    8.29    0.80
  19   2   7    6.99    0.99
  19  -2  -7    8.93    1.00
  19   3  -7   13.80    0.97
  19  -3   7   12.45    1.30
  19   3  -7   11.60    1.14
  19   3   7   11.61    1.30
  19  -3  -7   12.74    1.19
  19   4  -7    5.48    0.75
  19  -4   7    5.93    0.95
  19   4  -7    5.62    0.83
  19   4   7    4.84    0.93
  19  -4  -7    3.64    0.71
  19   5  -7   -0.31    0.34
  19   5  -7   -0.45    0.37
  19  -5   7    0.53    0.53
  19   5   7   -0.08    0.50
  19  -5  -7    0.34    0.49
  19   6  -7    4.26    0.81
  19   6  -7    5.20    0.85
  19  -6   7    1.93    0.64
  19  -6  -7    4.43    0.81
  19   6   7    6.13    1.10
  19   7  -7    7.19    1.05
  19  -7   7    6.34    1.07
  19   7   7    6.80    1.20
  19  -7  -7    7.91    1.09
  19   8  -7    0.27    0.58
  19  -8   7    0.02    0.57
  19  -8  -7   -0.46    0.48
  19   8   7   -0.17    0.55
  19   9  -7    5.07    1.03
  19  -9   7    2.33    0.82
  19  -9  -7    4.75    0.95
  19   9   7    4.79    1.20
  19   0  -8    0.07    0.37
  19   0   8   -0.72    0.39
  19   1  -8    2.93    0.66
  19  -1   8    4.76    0.83
  19  -1  -8    4.18    0.75
  19   1   8    5.52    0.90
  19   2  -8    7.82    1.00
  19  -2   8    7.52    1.01
  19   2   8    6.99    1.04
  19  -2  -8    6.49    0.91
  19   3  -8    4.38    0.79
  19  -3   8    4.02    0.85
  19   3   8    4.01    0.90
  19  -3  -8    5.21    0.79
  19  -4   8    8.36    1.14
  19   4  -8    7.40    0.88
  19   4  -8    6.41    0.95
  19   4   8    6.79    1.11
  19  -4  -8    5.46    0.87
  19   5  -8   12.68    1.19
  19  -5   8   11.70    1.32
  19   5  -8   10.36    1.21
  19   5   8   12.58    1.47
  19  -5  -8   11.04    1.18
  19  -6   8    1.75    0.75
  19   6  -8    0.99    0.53
  19   6  -8    1.66    0.59
  19  -6  -8    1.20    0.55
  19   6   8    3.09    0.91
  19   7  -8    3.28    0.80
  19  -7   8    2.95    0.78
  19   7  -8    2.63    0.75
  19  -7  -8    2.74    0.69
  19   7   8    3.02    0.94
  19   8  -8    5.64    1.02
  19  -8   8    7.16    1.16
  19   8   8    6.75    1.31
  19  -8  -8    5.57    0.94
  19   9  -8    0.52    0.61
  19  -9   8    0.37    0.67
  19   9   8   -0.61    0.68
  19  -9  -8    0.00    0.53
  19   0  -9   13.98    1.33
  19   0   9   14.85    1.49
  19  -1   9    4.03    0.86
  19   1  -9    5.18    0.83
  19  -1  -9    4.00    0.75
  19   1   9    4.37    0.87
  19   2  -9    3.91    0.76
  19  -2   9    2.13    0.66
  19  -2  -9    3.20    0.70
  19   2   9    3.88    0.84
  19   3  -9   11.43    1.23
  19  -3   9   13.99    1.46
  19   3   9   13.78    1.47
  19  -3  -9   11.79    1.22
  19  -4   9    2.10    0.69
  19   4  -9    3.03    0.68
  19  -4  -9    2.42    0.64
  19   4   9    2.63    0.73
  19   5  -9    0.37    0.46
  19  -5   9    0.30    0.56
  19   5   9   -0.80    0.49
  19  -5  -9    0.01    0.41
  19  -6   9    4.55    0.94
  19   6  -9    5.53    0.96
  19  -6  -9    6.10    1.00
  19   6   9    5.99    1.11
  19  -7   9    4.56    0.99
  19   7  -9    5.66    1.00
  19   7  -9    5.11    0.94
  19   7   9    4.60    1.09
  19  -7  -9    6.47    0.98
  19   8  -9   -0.21    0.52
  19  -8   9   -0.20    0.55
  19   8   9   -0.46    0.56
  19  -8  -9    0.29    0.57
  19   0  10   -0.38    0.52
  19   0 -10   -0.29    0.39
  19  -1  10    5.75    0.99
  19   1 -10    6.16    0.97
  19   1  10    5.89    1.01
  19  -1 -10    7.16    0.99
  19   2 -10    4.33    0.84
  19  -2  10    6.75    1.05
  19  -2 -10    6.70    1.00
  19   2  10    5.93    1.06
  19  -3  10    0.27    0.47
  19   3 -10   -0.41    0.34
  19   3  10    1.79    0.70
  19  -3 -10    0.17    0.45
  19   4 -10    3.49    0.78
  19  -4  10    3.44    0.84
  19   4  10    4.57    0.96
  19  -4 -10    4.88    0.85
  19   5 -10    8.07    1.12
  19  -5  10   12.35    1.40
  19  -5 -10   11.71    1.24
  19   5  10   11.85    1.50
  19  -6  10   -0.21    0.48
  19   6 -10   -0.01    0.53
  19   6  10    1.03    0.67
  19  -6 -10   -0.37    0.49
  19   7 -10    4.67    0.97
  19  -7  10    5.40    1.10
 -19  -7 -10    3.30    0.85
  19  -7 -10    3.83    0.86
  19   7  10    4.81    1.08
  19  -8  10    2.55    0.86
 -19  -8 -10    4.34    0.98
  19  -8 -10    2.87    0.83
  19   8  10    4.57    1.15
  19   0  11    8.13    1.15
  19   0 -11   10.07    1.21
  19   1 -11    1.94    0.69
  19  -1  11    2.02    0.74
  19   1  11    3.07    0.87
  19  -1 -11    3.84    0.81
  19   2 -11    1.81    0.68
  19  -2  11    1.27    0.67
  19  -2 -11    1.26    0.56
  19   2  11    1.43    0.65
  19  -3  11   10.48    1.34
  19   3 -11    9.28    1.17
  19   3  11   10.23    1.35
  19  -3 -11    8.90    1.18
  19  -4  11    4.58    0.98
  19   4 -11    3.96    0.88
  19   4  11    3.02    0.83
  19  -4 -11    2.50    0.70
  19  -5  11   -0.34    0.53
  19   5 -11   -0.19    0.51
  19  -5 -11   -0.01    0.53
  19   5  11   -0.23    0.55
  19  -6  11    5.27    1.03
  19   6 -11    7.06    1.15
 -19  -6 -11    4.06    0.93
  19  -6 -11    3.23    0.88
  19   6  11    7.34    1.28
 -19  -7 -11    2.10    0.80
  19   7 -11    2.39    0.85
  19  -7  11    1.62    0.85
  19   7  11    1.50    0.80
  19  -7 -11    0.84    0.62
  19   0  12    0.83    0.68
  19   0 -12    0.56    0.59
  19  -1  12    1.66    0.69
  19   1 -12    1.40    0.66
  19  -1 -12    2.79    0.77
  19   1  12    1.48    0.76
  19  -2  12    3.74    0.94
  19   2 -12    3.11    0.80
  19  -2 -12    4.43    0.88
  19   2  12    5.87    1.13
  19   3 -12   -0.42    0.51
  19  -3  12   -1.19    0.48
  19   3  12    0.86    0.65
  19  -3 -12    0.81    0.54
  19   4 -12    2.79    0.80
  19  -4  12    3.15    0.94
  19   4  12    2.99    0.91
  19  -4 -12    2.59    0.78
  19  -5  12    7.28    1.22
  19   5 -12    5.21    1.01
 -19  -5 -12    9.93    1.29
  19  -5 -12    7.01    1.12
  19   5  12    7.28    1.33
 -19  -6 -12   -0.11    0.60
  19  -6  12   -0.35    0.65
  19   6 -12    0.59    0.63
  19   6  12   -0.50    0.67
  19  -6 -12    0.53    0.66
  19   7 -12    1.28    0.75
 -19  -7 -12    1.87    0.83
  19  -7  12    1.51    0.75
  19  -7 -12    3.08    0.80
  19   7  12    2.58    0.93
  19   0  13   11.71    1.40
  19   0 -13   11.09    1.31
  19   1 -13    0.75    0.60
  19  -1  13    1.12    0.62
  19  -1 -13    2.00    0.76
  19   1  13    1.40    0.74
  19  -2  13    1.84    0.76
  19   2 -13    2.01    0.74
  19   2  13    1.48    0.81
  19  -2 -13    0.86    0.66
  19   3 -13    5.13    0.99
  19  -3  13    4.97    1.04
  19   3  13    5.71    1.15
  19  -3 -13    5.27    0.99
  19   4 -13    4.47    0.96
  19  -4  13    2.77    0.92
  19  -4 -13    3.32    0.81
  19   4  13    4.31    0.99
  19  -5  13    0.41    0.66
 -19  -5 -13    0.32    0.62
  19   5 -13    0.21    0.54
  19  -5 -13   -0.08    0.56
  19   5  13   -0.17    0.59
  19  -6  13    4.00    1.03
 -19  -6 -13    3.80    0.99
  19   6 -13    4.71    1.06
  19  -6 -13    3.22    0.88
  19   6  13    3.10    0.99
  19   0  14    0.63    0.66
  19   0 -14    0.04    0.54
  19   1 -14    2.62    0.76
  19  -1  14    2.56    0.85
  19   1  14    2.05    0.77
  19  -1 -14    2.53    0.79
  19   2 -14    4.27    0.98
  19  -2  14    2.59    0.86
  19  -2 -14    3.45    0.87
  19   2  14    3.91    0.94
  19   3 -14    0.34    0.64
  19  -3  14    0.71    0.62
  19   3  14    0.37    0.62
  19  -3 -14    0.24    0.63
  19  -4  14    1.58    0.79
  19   4 -14    1.51    0.76
 -19  -4 -14    1.49    0.78
  19   4  14    0.26    0.72
  19  -4 -14    0.86    0.68
  19   5 -14    5.04    1.07
  19  -5  14    4.91    1.08
 -19  -5 -14    4.25    1.03
  19   5  14    4.79    1.14
  19  -5 -14    5.21    1.06
  19   0 -15    6.20    1.11
  19   0  15    7.67    1.27
  19  -1  15    0.78    0.64
  19   1 -15    0.52    0.61
  19   1  15    0.70    0.68
  19  -1 -15    1.30    0.79
  19   2 -15    0.81    0.64
  19  -2  15    0.99    0.77
  19  -2 -15    0.87    0.68
  19   2  15    0.75    0.75
  19  -3  15    2.35    0.85
  19   3 -15    3.06    0.88
  19  -3 -15    3.43    0.92
  19   3  15    3.40    0.97
 -19  -4 -15    1.21    0.73
  19  -4  15    0.66    0.74
  19   4 -15    0.51    0.72
  19  -4 -15    2.83    0.86
  19   4  15    2.76    0.96
  19   0 -16   -0.76    0.55
  19   0  16    0.11    0.65
  19   1 -16    2.03    0.80
  19  -1  16    2.20    0.85
  19   1  16    1.07    0.76
  19  -1 -16    2.26    0.81
  19   2 -16    3.29    0.96
  19  -2  16    2.44    0.85
  19  -2 -16    3.74    0.96
  19   2  16    2.97    0.95
  20   0   0   30.49    1.50
  20   0   0   27.87    1.44
  20   1   0    2.48    0.52
  20  -1   0    3.63    0.65
  20  -1   0    2.27    0.50
  20   1   0    3.19    0.59
  20  -2   0    4.74    0.70
  20   2   0    4.31    0.63
  20   2   0    4.09    0.66
  20   3   0   15.23    1.12
  20  -3   0   16.95    1.14
  20  -4   0    1.04    0.48
  20   4   0    1.64    0.51
  20   4   0    2.22    0.47
  20  -5   0    1.18    0.52
  20   5   0    0.76    0.47
  20  -6   0    7.28    0.96
  20   6   0    6.52    0.96
  20   7   0   18.92    1.51
  20  -7   0   15.99    1.30
  20  -8   0   -0.01    0.45
  20   8   0   -0.52    0.50
  20   9   0    7.26    1.27
  20  -9   0    5.82    0.97
  20   0  -1    0.33    0.32
  20   0   1    0.22    0.32
  20   0  -1    0.90    0.41
  20   0   1   -0.09    0.30
  20  -1   1   13.56    0.99
  20   1  -1   13.31    0.96
  20   1  -1   12.59    0.94
  20  -1  -1   12.03    0.97
  20  -1  -1   13.34    0.95
  20   1   1   11.12    1.05
  20   1   1   11.91    0.87
  20  -2   1   18.80    1.21
  20   2  -1   17.29    1.12
  20   2  -1   18.32    1.12
  20  -2  -1   19.53    1.23
  20  -2  -1   17.25    1.11
  20   2   1   19.31    1.21
  20   2   1   20.02    1.14
  20   3  -1    1.63    0.47
  20  -3   1    3.09    0.65
  20   3   1    2.26    0.46
  20  -3  -1    2.91    0.55
  20   3   1    1.80    0.51
  20  -4   1    8.04    0.95
  20   4  -1   10.18    0.93
  20   4  -1    9.17    0.99
  20   4   1    9.86    0.78
  20  -4  -1    8.57    0.93
  20   4   1    9.81    1.04
  20  -5   1   16.79    1.26
  20   5  -1   18.09    1.28
  20  -5  -1   15.44    1.16
  20   5   1   16.85    1.30
  20   6  -1    1.04    0.50
  20  -6   1    1.47    0.57
  20  -6  -1    1.42    0.53
  20   6   1    1.47    0.65
  20   7  -1    4.07    0.84
  20  -7   1    4.78    0.80
  20  -7  -1    4.74    0.83
  20   7   1    5.50    0.97
  20   8  -1   11.04    1.37
  20  -8   1   10.89    1.25
  20   8   1   11.08    1.48
  20  -8  -1   11.02    1.19
  20   9  -1    1.38    0.69
  20  -9   1    1.26    0.68
  20  -9  -1    1.78    0.68
  20   9   1    0.43    0.64
  20   0  -2   12.02    0.89
  20   0   2   14.19    1.06
  20   0  -2   11.61    0.96
  20   1  -2   11.71    0.89
  20  -1   2   12.31    1.01
  20   1  -2   13.68    0.96
  20  -1  -2   12.90    0.98
  20   1   2   10.89    1.10
  20   1   2   13.20    0.91
  20  -1  -2   11.49    0.87
  20   2  -2    3.93    0.63
  20   2  -2    4.30    0.63
  20  -2   2    3.39    0.67
  20   2   2    3.58    0.66
  20  -2  -2    3.84    0.66
  20  -2  -2    4.19    0.61
  20   3  -2   25.88    1.39
  20  -3   2   26.59    1.50
  20   3  -2   25.15    1.39
  20  -3  -2   25.17    1.46
  20   3   2   26.43    1.54
  20   3   2   26.48    1.30
  20  -3  -2   24.67    1.34
  20  -4   2    2.69    0.64
  20   4  -2    3.06    0.62
  20  -4  -2    2.42    0.55
  20  -4  -2    3.43    0.66
  20   4   2    1.99    0.58
  20   5  -2    3.20    0.61
  20   5  -2    4.08    0.73
  20  -5   2    3.69    0.77
  20   5   2    5.16    0.89
  20  -5  -2    4.77    0.75
  20   6  -2    6.15    0.95
  20  -6   2    3.50    0.73
  20  -6  -2    4.75    0.79
  20   6   2    8.30    1.12
  20  -7   2    3.05    0.73
  20   7  -2    3.24    0.76
  20  -7  -2    3.87    0.72
  20   7   2    3.21    0.81
  20   8  -2    2.61    0.75
  20  -8   2    1.56    0.64
  20   8   2    0.79    0.66
  20  -8  -2    1.34    0.56
  20   9  -2    7.52    1.26
  20  -9   2    8.16    1.18
  20   9   2    8.02    1.35
  20  -9  -2    5.44    0.91
  20   0   3   -0.26    0.32
  20   0  -3   -0.25    0.25
  20   0  -3    0.03    0.29
  20   1  -3    0.20    0.28
  20  -1   3    0.45    0.39
  20   1  -3    0.37    0.32
  20   1   3    1.12    0.49
  20  -1  -3    0.83    0.43
  20  -1  -3    0.32    0.33
  20  -2   3   39.85    1.98
  20   2  -3   41.89    1.93
  20   2  -3   42.58    1.87
  20  -2  -3   44.24    2.01
  20  -2  -3   44.59    1.85
  20   2   3   43.03    2.03
  20   3  -3    8.08    0.91
  20   3  -3    7.36    0.86
  20  -3   3    8.83    1.00
  20   3   3    8.22    1.00
  20  -3  -3    6.64    0.77
  20   3   3    7.59    0.74
  20  -3  -3    6.39    0.85
  20  -4   3   17.92    1.28
  20   4  -3   19.16    1.23
  20   4   3   18.34    1.31
  20  -4  -3   16.12    1.09
  20  -4  -3   18.51    1.24
  20   5  -3   19.53    1.35
  20  -5   3   19.84    1.43
  20   5  -3   20.93    1.28
  20  -5  -3   18.88    1.21
  20   5   3   19.26    1.45
  20  -5  -3   19.53    1.33
  20  -6   3   -0.28    0.38
  20   6  -3    0.61    0.51
  20   6   3    0.43    0.45
  20  -6  -3    0.15    0.39
  20  -6  -3   -0.34    0.34
  20  -7   3    3.72    0.77
  20   7  -3    2.61    0.78
  20  -7  -3    4.09    0.69
  20  -7  -3    2.62    0.66
  20   7   3    4.50    0.93
  20   8  -3    5.20    0.95
  20  -8   3    3.64    0.80
  20  -8  -3    3.99    0.85
  20   8   3    6.00    1.11
  20  -9   3    2.48    0.74
  20   9  -3    3.27    0.90
  20  -9  -3    2.42    0.77
  20   9   3    2.07    0.87
  20   0  -4    5.30    0.64
  20   0  -4    6.50    0.79
  20   0   4    5.19    0.79
  20   1  -4    0.39    0.34
  20   1  -4    1.36    0.41
  20  -1   4    0.85    0.49
  20   1   4    0.50    0.45
  20  -1  -4    0.58    0.34
  20  -1  -4    1.20    0.49
  20   2  -4    0.73    0.38
  20   2  -4    0.67    0.34
  20  -2   4    0.21    0.39
  20  -2  -4    0.67    0.49
  20  -2  -4    0.35    0.34
  20   2   4    0.52    0.42
  20   2   4    0.59    0.35
  20  -3   4   15.18    1.37
  20   3  -4   11.86    0.97
  20   3  -4   12.40    1.13
  20  -3  -4   13.18    0.91
  20   3   4   15.97    1.43
  20  -3  -4   14.89    1.11
  20   3   4   12.97    0.87
  20   4  -4    4.23    0.69
  20  -4   4    5.11    0.83
  20   4  -4    5.28    0.75
  20  -4  -4    5.38    0.69
  20  -4  -4    5.17    0.80
  20   4   4    5.08    0.93
  20   5  -4    4.44    0.78
  20  -5   4    5.71    0.96
  20   5   4    6.58    1.00
  20  -5  -4    4.45    0.66
  20  -5  -4    3.99    0.76
  20   6  -4    5.70    0.91
  20  -6   4    5.71    0.94
  20  -6  -4    4.64    0.79
  20   6   4    4.96    0.97
  20   7  -4    2.36    0.73
  20  -7   4    1.61    0.65
  20  -7  -4    3.08    0.72
  20   7   4    1.46    0.67
  20   8  -4    0.07    0.55
  20  -8   4   -0.48    0.52
  20   8   4    0.29    0.60
  20  -8  -4    0.18    0.53
  20   9  -4    5.32    1.09
  20  -9   4    3.23    0.89
  20  -9  -4    4.32    0.88
  20   9   4    4.03    1.10
  20   0  -5    0.29    0.36
  20   0  -5   -0.18    0.26
  20   0   5   -0.02    0.40
  20  -1   5   15.40    1.20
  20   1  -5   18.96    1.07
  20   1  -5   17.21    1.20
  20  -1  -5   16.28    0.97
  20  -1  -5   19.08    1.26
  20   1   5   14.35    1.17
  20  -2   5   18.31    1.35
  20   2  -5   17.24    1.09
  20   2  -5   17.43    1.22
  20  -2  -5   18.29    1.29
  20  -2  -5   18.37    1.03
  20   2   5   19.80    1.39
  20   3  -5    0.31    0.36
  20   3  -5    0.30    0.35
  20  -3   5    0.24    0.43
  20  -3  -5    0.97    0.36
  20   3   5    0.55    0.50
  20  -3  -5    0.09    0.43
  20   4  -5    7.67    0.90
  20  -4   5    6.07    0.91
  20   4  -5    7.98    0.94
  20  -4  -5    6.74    0.90
  20   4   5    7.12    1.05
  20  -5   5   18.80    1.40
  20   5  -5   15.21    1.24
  20   5   5   20.69    1.49
  20  -5  -5   19.91    1.36
  20  -6   5    3.30    0.75
  20   6  -5    1.98    0.64
  20   6  -5    2.92    0.75
  20   6   5    3.32    0.85
  20  -6  -5    2.38    0.61
  20  -7   5    6.20    1.00
  20   7  -5    5.12    0.95
  20  -7  -5    7.65    1.04
  20   7   5    4.40    0.96
  20  -8   5   10.38    1.32
  20   8  -5    8.86    1.22
  20  -8  -5   10.12    1.22
  20   8   5    9.84    1.44
  20   9  -5    1.00    0.63
  20  -9   5    1.70    0.80
  20   9   5    0.69    0.78
  20  -9  -5    0.26    0.56
  20   0  -6   34.00    1.79
  20   0   6   32.59    1.86
  20   0  -6   36.32    1.53
  20  -1   6    2.64    0.66
  20   1  -6    3.83    0.69
  20   1  -6    3.82    0.57
  20  -1  -6    3.66    0.71
  20   1   6    3.97    0.76
  20  -2   6   17.20    1.33
  20   2  -6   16.11    1.19
  20   2  -6   15.03    0.99
  20   2   6   15.57    1.26
  20  -2  -6   14.57    1.19
  20  -3   6    8.75    1.11
  20   3  -6    8.67    1.01
  20   3  -6    8.49    0.90
  20  -3  -6   10.16    1.13
  20   3   6    8.54    1.08
  20  -4   6    1.48    0.61
  20   4  -6    2.20    0.58
  20   4  -6    2.16    0.56
  20  -4  -6    0.71    0.54
  20   4   6    2.00    0.64
  20   5  -6    0.72    0.44
  20   5  -6    0.45    0.44
  20  -5   6    0.33    0.54
  20   5   6    1.58    0.68
  20  -5  -6    1.61    0.57
  20   6  -6    6.37    0.95
  20  -6   6    5.97    1.01
  20   6   6    5.79    1.06
  20  -6  -6    4.16    0.79
  20  -7   6   10.26    1.25
  20   7  -6    8.74    1.16
  20  -7  -6   11.58    1.29
  20   7   6   11.80    1.47
  20   8  -6    0.37    0.61
  20  -8   6    0.51    0.61
  20  -8  -6   -0.15    0.48
  20   8   6    0.69    0.70
  20  -9   6    6.05    1.11
  20   9  -6    6.86    1.22
  20   9   6    7.49    1.40
  20  -9  -6    4.40    0.95
  20   0  -7    0.44    0.49
  20   0   7    0.33    0.53
  20   1  -7   11.59    1.19
  20  -1   7    9.85    1.14
  20   1   7   10.17    1.16
  20  -1  -7    9.70    1.11
  20   2  -7    4.50    0.75
  20   2  -7    4.61    0.64
  20  -2   7    5.13    0.89
  20  -2  -7    5.82    0.89
  20   2   7    3.94    0.78
  20   3  -7    1.24    0.45
  20  -3   7    1.44    0.58
  20   3  -7    1.55    0.53
  20   3   7    0.30    0.49
  20  -3  -7    1.70    0.61
  20   4  -7    3.11    0.62
  20  -4   7    2.21    0.65
  20   4  -7    2.96    0.68
  20  -4  -7    2.18    0.66
  20   4   7    3.93    0.84
  20   5  -7   11.35    1.16
  20  -5   7   12.34    1.39
  20   5  -7    9.05    1.08
  20  -5  -7   10.03    1.13
  20   5   7   11.95    1.42
  20  -6   7    1.62    0.65
  20   6  -7    2.14    0.65
  20   6  -7    2.77    0.72
  20   6   7    3.01    0.83
  20  -6  -7    2.22    0.64
  20   7  -7    5.08    0.97
  20  -7   7    4.56    0.94
  20  -7  -7    3.73    0.85
  20   7   7    4.80    1.05
  20   8  -7    8.45    1.19
  20  -8   7    8.93    1.31
  20  -8  -7    9.31    1.21
  20   8   7    7.86    1.35
  20  -9  -7    0.17    0.55
  20   0  -8   17.72    1.35
  20   0   8   19.56    1.49
  20   1  -8    2.82    0.71
  20  -1   8    2.28    0.72
  20  -1  -8    2.93    0.65
  20   1   8    2.10    0.66
  20   2  -8    3.37    0.72
  20  -2   8    4.74    0.83
  20   2   8    2.76    0.78
  20  -2  -8    2.74    0.66
  20   3  -8   14.77    1.18
  20  -3   8   13.27    1.42
  20  -3  -8   12.67    1.29
  20   3   8   13.12    1.45
  20  -4   8    2.14    0.66
  20   4  -8    1.66    0.57
  20   4   8    2.74    0.77
  20  -4  -8    1.67    0.62
  20   5  -8   -0.43    0.37
  20  -5   8    0.15    0.55
  20   5  -8   -0.06    0.39
  20  -5  -8    0.17    0.46
  20   5   8   -0.52    0.46
  20   6  -8    4.27    0.79
  20   6  -8    5.77    0.98
  20  -6   8    4.56    0.91
  20   6   8    4.61    0.98
  20  -6  -8    3.50    0.74
  20  -7   8    4.16    0.97
  20   7  -8    4.61    0.94
  20  -7  -8    6.31    1.00
  20   7   8    6.57    1.19
  20   8  -8   -0.09    0.59
  20  -8   8    0.17    0.63
  20  -8  -8   -0.16    0.51
  20   8   8    0.35    0.67
  20   0   9    0.15    0.55
  20   0  -9    0.13    0.41
  20   1  -9   10.10    1.16
  20  -1   9    9.60    1.20
  20  -1  -9   11.85    1.28
  20   1   9    9.55    1.21
  20   2  -9    4.94    0.87
  20  -2   9    6.25    0.98
  20   2   9    7.06    1.11
  20  -2  -9    4.96    0.85
  20  -3   9    0.47    0.58
  20   3  -9    0.23    0.41
  20  -3  -9    0.17    0.43
  20   3   9   -0.37    0.46
  20   4  -9    1.98    0.63
  20  -4   9    4.04    0.91
  20   4   9    2.44    0.84
  20  -4  -9    2.31    0.66
  20   5  -9   10.87    1.26
  20  -5   9    9.03    1.19
  20  -5  -9    7.34    1.02
  20   5   9   10.48    1.44
  20  -6   9    0.12    0.60
  20   6  -9    0.58    0.54
  20   6   9    1.77    0.78
  20  -6  -9    0.91    0.61
  20  -7   9    7.10    1.16
  20   7  -9    5.40    1.02
  20   7   9    5.77    1.16
  20  -7  -9    6.55    1.06
  20  -8   9    4.18    0.99
  20   8   9    3.37    1.03
  20  -8  -9    5.50    1.08
  20   0 -10   12.51    1.29
  20   0  10   15.09    1.53
  20  -1  10    2.83    0.78
  20   1 -10    1.76    0.63
  20  -1 -10    2.74    0.72
  20   1  10    3.41    0.87
  20   2 -10    3.01    0.75
  20  -2  10    4.20    0.86
  20   2  10    2.98    0.87
  20  -2 -10    3.63    0.82
  20  -3  10    4.76    0.93
  20   3 -10    5.28    0.93
  20  -3 -10    4.01    0.85
  20   3  10    4.49    0.96
  20  -4  10    6.39    1.04
  20   4 -10    3.84    0.79
  20  -4 -10    3.76    0.80
  20   4  10    2.34    0.79
  20  -5  10    0.24    0.61
  20   5 -10    0.47    0.56
  20  -5 -10   -0.72    0.36
  20   5  10   -0.35    0.50
  20   6 -10    8.47    1.24
  20  -6  10    6.45    1.17
  20   6  10    6.10    1.18
  20  -6 -10    7.74    1.17
  20  -7  10    3.23    0.95
  20   7 -10    4.39    0.98
  20   7  10    4.16    1.09
  20  -7 -10    3.52    0.86
  20   0  11   -0.19    0.47
  20   0 -11    0.40    0.56
  20  -1  11    2.49    0.77
  20   1 -11    2.16    0.72
  20   1  11    1.97    0.70
  20  -1 -11    2.08    0.67
  20  -2  11    8.04    1.20
  20   2 -11    6.23    1.05
  20   2  11    4.75    0.97
  20  -2 -11    5.09    0.94
  20   3 -11    0.29    0.54
  20  -3  11    0.89    0.64
  20  -3 -11    0.30    0.51
  20   3  11    0.35    0.60
  20  -4  11    3.62    0.93
  20   4 -11    2.41    0.73
  20  -4 -11    3.58    0.83
  20   4  11    2.93    0.89
  20   5 -11    7.80    1.14
  20  -5  11    8.67    1.27
  20   5  11    6.20    1.18
  20  -5 -11    6.72    1.12
  20  -6  11    0.36    0.71
  20   6 -11   -0.18    0.54
  20   6  11   -0.47    0.54
  20  -6 -11   -0.22    0.56
  20   7 -11    3.65    0.95
  20  -7  11    1.67    0.75
  20  -7 -11    2.89    0.79
  20   7  11    2.12    0.90
  20   0  12   15.35    1.62
  20   0 -12   13.31    1.49
  20   1 -12    1.93    0.74
  20  -1  12    2.60    0.83
  20   1  12    2.16    0.81
  20  -1 -12    1.01    0.64
  20  -2  12    0.31    0.59
  20   2 -12    1.40    0.65
  20   2  12    0.85    0.71
  20  -2 -12    0.90    0.61
  20  -3  12    9.49    1.29
  20   3 -12    5.35    0.98
  20  -3 -12    8.58    1.18
  20   3  12    7.35    1.26
  20   4 -12    3.59    0.87
  20  -4  12    4.17    1.04
  20  -4 -12    3.10    0.83
  20   4  12    3.73    1.02
  20   5 -12    0.68    0.66
  20  -5  12    2.71    0.90
  20   5  12   -0.26    0.72
  20  -5 -12    1.45    0.66
  20   6 -12    3.29    0.87
  20  -6  12    3.63    1.03
  20   6  12    2.67    0.89
  20  -6 -12    1.10    0.65
  20   0  13    0.82    0.69
  20   0 -13    0.77    0.60
  20   1 -13    3.52    0.84
  20  -1  13    1.94    0.74
  20  -1 -13    2.72    0.84
  20   1  13    2.62    0.83
  20  -2  13    3.00    0.90
  20   2 -13    3.55    0.91
  20  -2 -13    4.16    0.90
  20   2  13    2.59    0.88
  20   3 -13    0.10    0.61
  20  -3  13   -0.04    0.61
  20   3  13    1.37    0.74
  20  -3 -13   -0.66    0.55
  20  -4  13    0.77    0.73
  20   4 -13    1.77    0.75
  20  -4 -13    0.65    0.67
  20   4  13    2.37    0.91
  20  -5  13    5.47    1.09
  20   5 -13    3.38    0.97
  20  -5 -13    5.22    1.03
  20   5  13    3.50    0.99
  20   0  14    4.44    1.05
  20   0 -14    4.06    0.89
  20  -1  14    0.92    0.73
  20   1 -14    0.29    0.53
  20  -1 -14    1.19    0.66
  20   1  14    0.64    0.76
  20  -2  14    0.27    0.63
  20   2 -14    1.00    0.68
  20  -2 -14    0.90    0.74
  20   2  14    0.14    0.66
  20  -3  14    1.79    0.83
  20   3 -14    0.90    0.61
  20   3  14    2.26    0.92
  20  -3 -14    2.20    0.77
  20  -4  14    1.16    0.73
  20   4 -14    2.00    0.87
  20   4  14    1.46    0.74
  20  -4 -14    1.78    0.79
  20   0  15    0.32    0.66
  20   0 -15    0.12    0.62
  20  -1  15    2.83    0.92
  20   1 -15    2.30    0.80
  20  -1 -15    1.17    0.73
  20   1  15    2.11    0.85
  20   2 -15    3.74    1.00
  20  -2  15    3.31    0.89
  20   2  15    3.74    1.03
  20  -2 -15    4.66    1.04
  20   3 -15   -0.34    0.60
  20  -3  15    1.22    0.81
  20   3  15    0.37    0.71
  20  -3 -15    0.14    0.65
  20   0  16    1.34    0.84
  20   0 -16    1.60    0.83
  20   1 -16    0.82    0.77
  20  -1 -16    1.39    0.75
  21   0   0    0.38    0.36
  21   0   0    0.34    0.36
  21   1   0   27.88    1.48
  21   1   0   23.01    1.33
  21  -1   0   26.91    1.46
  21  -1   0   26.91    1.46
  21  -2   0   11.10    0.92
  21   2   0   12.46    1.02
  21   2   0   12.57    0.94
  21  -3   0    1.30    0.49
  21   3   0    0.87    0.42
  21   4   0    5.73    0.85
  21   4   0    4.38    0.63
  21  -4   0    3.70    0.70
  21   5   0   11.27    1.20
  21  -5   0   11.52    1.16
  21  -6   0    5.60    0.88
  21   6   0    7.20    1.07
  21  -7   0    6.82    0.98
  21   7   0    6.79    1.10
  21  -8   0    5.15    0.89
  21   8   0    6.60    1.13
  21   9   0    1.06    0.77
  21  -9   0    1.25    0.67
  21   0  -1   24.11    1.34
  21   0   1   23.13    1.31
  21   0  -1   22.11    1.32
  21   0   1   25.34    1.42
  21  -1   1    5.61    0.80
  21   1  -1    5.10    0.72
  21   1  -1    4.13    0.63
  21  -1  -1    4.87    0.74
  21   1   1    4.72    0.64
  21   1   1    5.66    0.77
  21  -1  -1    5.57    0.71
  21  -2   1    8.71    0.97
  21   2  -1    8.20    0.85
  21   2  -1    8.28    0.91
  21   2   1    6.38    0.83
  21  -2  -1    6.61    0.78
  21  -2  -1   10.24    1.05
  21   2   1    6.46    0.76
  21  -3   1   13.75    1.09
  21   3  -1   13.33    1.04
  21  -3  -1   12.82    1.01
  21  -3  -1   13.75    1.07
  21   3   1   14.76    0.98
  21   3   1   14.31    1.14
  21  -4   1    1.11    0.48
  21   4  -1    2.08    0.56
  21   4  -1    3.27    0.58
  21  -4  -1    3.08    0.62
  21   4   1    1.69    0.53
  21  -5   1    0.89    0.46
  21   5  -1    0.58    0.45
  21  -5  -1    0.46    0.41
  21   5   1    1.07    0.55
  21   6  -1    5.80    0.98
  21  -6   1    5.12    0.88
  21  -6  -1    6.14    0.91
  21   6   1    6.05    0.95
  21  -7   1    7.87    1.08
  21   7  -1    6.78    1.05
  21   7   1    8.73    1.20
  21  -7  -1    7.43    0.99
  21  -8   1   -0.22    0.48
  21   8  -1    0.07    0.57
  21   8   1    1.90    0.75
  21  -8  -1   -0.14    0.45
  21  -9   1    6.30    1.06
  21   9  -1    6.06    1.16
  21   9   1    6.76    1.24
  21  -9  -1    6.50    1.03
  21   0   2    0.03    0.37
  21   0  -2   -0.14    0.28
  21   0  -2   -0.07    0.30
  21   1  -2    2.65    0.53
  21  -1   2    2.63    0.61
  21   1  -2    2.83    0.57
  21  -1  -2    3.17    0.57
  21  -1  -2    2.36    0.61
  21   1   2    2.70    0.52
  21   1   2    1.87    0.56
  21  -2   2   31.14    1.67
  21   2  -2   30.15    1.55
  21   2  -2   29.58    1.56
  21   2   2   28.91    1.60
  21  -2  -2   28.67    1.49
  21  -2  -2   32.15    1.68
  21   3  -2    2.47    0.60
  21   3  -2    2.21    0.52
  21  -3   2    2.85    0.64
  21  -3  -2    1.93    0.50
  21   3   2    1.95    0.46
  21   3   2    2.78    0.62
  21  -3  -2    2.58    0.63
  21   4  -2   10.33    1.09
  21  -4   2    7.83    0.96
  21   4   2    6.15    0.90
  21  -4  -2    8.25    0.92
  21  -4  -2   10.20    1.05
  21  -5   2   22.43    1.48
  21   5  -2   24.51    1.52
  21  -5  -2   24.72    1.42
  21  -5  -2   21.14    1.41
  21   5   2   21.08    1.53
  21   6  -2    0.24    0.48
  21  -6   2    0.65    0.54
  21  -6  -2    0.87    0.50
  21   6   2    0.07    0.48
  21   7  -2    1.88    0.66
  21  -7   2    2.70    0.76
  21  -7  -2    2.02    0.60
  21   7   2    1.55    0.65
  21   8  -2   11.15    1.38
  21  -8   2    9.64    1.24
  21  -8  -2    9.30    1.10
  21   8   2   10.42    1.41
  21   9  -2    0.87    0.77
  21  -9   2    1.24    0.68
  21   9   2    0.72    0.71
  21   0  -3    5.10    0.73
  21   0  -3    7.81    0.80
  21   0   3    7.23    0.96
  21   1  -3    0.05    0.33
  21   1  -3    0.63    0.36
  21  -1   3    0.22    0.41
  21  -1  -3    0.41    0.33
  21   1   3    0.22    0.37
  21  -1  -3    0.05    0.40
  21   1   3    0.57    0.36
  21   2  -3    0.00    0.36
  21  -2   3    0.48    0.43
  21   2  -3    0.28    0.34
  21   2   3    0.71    0.46
  21  -2  -3    0.81    0.53
  21  -2  -3    0.29    0.36
  21  -3   3   14.68    1.36
  21   3  -3   13.69    1.05
  21   3  -3   14.86    1.09
  21  -3  -3   12.47    0.96
  21  -3  -3   14.90    1.17
  21   3   3   14.87    0.95
  21   3   3   14.70    1.21
  21  -4   3    1.48    0.56
  21   4  -3    2.67    0.61
  21   4   3    3.11    0.71
  21  -4  -3    2.14    0.55
  21  -4  -3    2.84    0.68
  21  -5   3    3.27    0.78
  21   5  -3    5.08    0.84
  21   5  -3    4.33    0.71
  21  -5  -3    5.08    0.75
  21  -5  -3    4.43    0.79
  21   5   3    4.09    0.88
  21   6  -3    4.95    0.90
  21  -6   3    5.38    0.94
  21  -6  -3    5.33    0.86
  21  -6  -3    4.63    0.75
  21   6   3    4.27    0.87
  21  -7   3    2.56    0.72
  21   7  -3    2.44    0.78
  21  -7  -3    1.04    0.56
  21   7   3    3.11    0.87
  21  -7  -3    2.10    0.64
  21  -8   3    0.04    0.54
  21   8  -3    0.29    0.53
  21  -8  -3    0.00    0.55
  21   8   3    0.53    0.64
  21   9  -3    3.74    1.00
  21  -9   3    5.49    1.06
  21   9   3    7.48    1.34
  21  -9  -3    2.53    0.76
  21   0   4   -0.57    0.28
  21   0  -4   -0.12    0.27
  21   0  -4    0.14    0.35
  21   1  -4   10.38    1.05
  21  -1   4   13.33    1.27
  21   1  -4   11.95    0.89
  21   1   4   10.55    1.13
  21  -1  -4   10.94    1.12
  21  -1  -4   10.86    0.84
  21   2  -4   17.38    1.17
  21  -2   4   17.16    1.26
  21   2  -4   14.63    1.03
  21  -2  -4   15.53    1.02
  21  -2  -4   17.25    1.26
  21   2   4   15.50    1.22
  21   2   4   15.96    1.11
  21   3  -4    3.00    0.60
  21   3  -4    4.88    0.73
  21  -3   4    2.57    0.66
  21  -3  -4    3.36    0.57
  21   3   4    4.64    0.67
  21  -3  -4    3.81    0.76
  21   3   4    3.93    0.79
  21   4  -4   15.95    1.15
  21   4  -4   15.81    1.17
  21  -4   4   14.05    1.35
  21   4   4   16.88    1.31
  21  -4  -4   13.64    0.99
  21  -4  -4   15.95    1.25
  21  -5   4   16.76    1.35
  21   5  -4   14.67    1.37
  21  -5  -4   14.37    1.36
  21   5   4   15.19    1.51
  21  -5  -4   13.76    1.09
  21  -6   4    0.57    0.55
  21   6  -4    0.77    0.53
  21   6   4    0.61    0.57
  21  -6  -4    1.46    0.62
  21  -7   4    4.81    0.92
  21   7  -4    5.22    0.94
  21   7   4    7.17    1.18
  21  -7  -4    4.18    0.85
  21   8  -4    6.13    1.16
  21  -8   4    4.28    0.90
  21   8   4    5.36    1.08
  21  -8  -4    5.16    0.91
  21   9  -4    2.13    0.86
  21  -9   4    0.88    0.63
  21  -9  -4    0.84    0.68
  21   9   4    1.38    0.84
  21   0  -5   21.38    1.39
  21   0   5   21.25    1.43
  21   0  -5   20.36    1.15
  21   1  -5    6.12    0.86
  21  -1   5    5.99    0.92
  21   1  -5    6.07    0.72
  21  -1  -5    4.87    0.63
  21   1   5    6.74    0.99
  21  -1  -5    6.82    0.90
  21   2  -5    9.64    1.05
  21  -2   5   12.58    1.29
  21   2  -5   11.54    0.94
  21  -2  -5   10.13    1.11
  21   2   5   15.80    1.47
  21  -2  -5   11.94    0.85
  21   3  -5    9.65    1.05
  21   3  -5   10.54    1.00
  21  -3   5   10.97    1.24
  21  -3  -5   10.06    1.11
  21   3   5   10.64    1.26
  21   4  -5    2.50    0.61
  21   4  -5    3.03    0.66
  21  -4   5    2.68    0.73
  21   4   5    1.99    0.65
  21  -4  -5    3.79    0.77
  21   5  -5    0.26    0.44
  21  -5   5   -0.07    0.44
  21  -5  -5   -0.23    0.45
  21   5   5    0.35    0.49
  21   6  -5    5.50    0.94
  21  -6   5    4.80    0.88
  21  -6  -5    4.12    0.81
  21   6   5    6.74    1.09
  21   7  -5    5.18    0.93
  21  -7   5    6.60    1.06
  21  -7  -5    5.09    0.88
  21   7   5    7.90    1.26
  21   8  -5    0.08    0.58
  21  -8   5   -0.21    0.58
  21   8   5   -1.07    0.55
  21  -8  -5    0.02    0.54
  21  -9   5    5.00    1.02
  21   9  -5    3.03    0.93
  21  -9  -5    3.01    0.90
  21   9   5    3.56    1.07
  21   0   6    0.59    0.48
  21   0  -6    0.05    0.38
  21   1  -6   16.03    1.02
  21  -1   6   17.46    1.32
  21   1  -6   16.15    1.22
  21  -1  -6   17.06    1.25
  21   1   6   18.16    1.39
  21   2  -6    5.43    0.80
  21  -2   6    7.01    1.02
  21   2  -6    3.94    0.64
  21   2   6    4.69    0.87
  21  -2  -6    5.82    0.84
  21  -3   6   -0.10    0.39
  21   3  -6   -0.14    0.33
  21   3  -6   -0.17    0.31
  21   3   6    0.17    0.44
  21  -3  -6    0.11    0.41
  21   4  -6    0.06    0.39
  21  -4   6   -0.10    0.42
  21   4  -6    0.42    0.40
  21  -4  -6    0.43    0.46
  21   4   6   -0.28    0.47
  21   5  -6   12.92    1.26
  21   5  -6   14.04    1.34
  21  -5   6   13.68    1.46
  21  -5  -6   13.53    1.30
  21   5   6   13.38    1.49
  21  -6   6    6.42    1.07
  21   6  -6    5.37    0.91
  21   6   6    5.82    1.12
  21  -6  -6    4.43    0.83
  21  -7   6    4.98    0.97
  21   7  -6    4.17    0.92
  21  -7  -6    3.70    0.85
  21   7   6    6.22    1.18
  21   8  -6    9.49    1.31
  21  -8   6   12.26    1.51
  21  -8  -6    8.85    1.20
  21   8   6    8.53    1.43
  21   0  -7   20.89    1.46
  21   0   7   23.22    1.60
  21   1  -7    2.11    0.61
  21  -1   7    1.44    0.56
  21   1   7    2.11    0.66
  21  -1  -7    2.43    0.68
  21  -2   7    5.61    0.97
  21   2  -7    4.83    0.82
  21   2   7    4.19    0.85
  21  -2  -7    4.30    0.76
  21  -3   7    9.95    1.20
  21   3  -7    9.47    0.94
  21   3  -7    9.07    1.06
  21  -3  -7   10.15    1.11
  21   3   7    8.19    1.16
  21  -4   7    1.80    0.69
  21   4  -7    1.27    0.53
  21   4  -7    0.69    0.46
  21   4   7    0.46    0.52
  21  -4  -7    1.60    0.58
  21   5  -7    0.39    0.45
  21  -5   7    0.46    0.51
  21   5  -7   -0.01    0.43
  21  -5  -7   -0.44    0.38
  21   5   7    0.06    0.52
  21   6  -7    4.20    0.83
  21  -6   7    4.96    1.01
  21   6  -7    4.34    0.85
  21   6   7    3.59    0.91
  21  -6  -7    4.50    0.89
  21   7  -7    8.29    1.18
  21  -7   7    7.46    1.16
  21  -7  -7    8.97    1.18
  21   7   7    8.40    1.39
  21   8  -7   -0.41    0.51
  21  -8   7    0.33    0.62
  21  -8  -7   -1.15    0.46
  21   8   7   -0.21    0.74
  21   0  -8    0.08    0.51
  21   0   8    0.88    0.60
  21  -1   8    5.27    0.91
  21   1  -8    5.89    0.92
  21  -1  -8    5.63    0.89
  21   1   8    6.60    1.05
  21  -2   8    6.52    1.02
  21   2  -8   10.11    1.13
  21  -2  -8    9.02    1.14
  21   2   8    8.16    1.17
  21   3  -8    0.22    0.38
  21  -3   8   -0.42    0.40
  21  -3  -8   -0.15    0.41
  21   3   8   -0.07    0.47
  21   4  -8    4.09    0.76
  21  -4   8    4.96    0.98
  21  -4  -8    5.39    0.94
  21   4   8    4.84    0.99
  21  -5   8    7.67    1.12
  21   5  -8    6.69    1.04
  21   5   8    7.89    1.29
  21  -5  -8    6.91    1.03
  21   6  -8    0.85    0.58
  21  -6   8    0.56    0.60
  21   6  -8    0.51    0.50
  21  -6  -8    0.65    0.55
  21   6   8   -0.78    0.47
  21   7  -8    4.73    0.93
  21  -7   8    3.92    0.99
  21  -7  -8    3.87    0.85
  21   7   8    4.37    1.07
  21   8  -8    7.95    1.21
  21  -8   8    6.30    1.12
  21   8   8    9.36    1.53
  21  -8  -8    7.35    1.14
  21   0  -9   23.00    1.60
  21   0   9   23.52    1.71
  21  -1   9    1.20    0.63
  21   1  -9    0.64    0.52
  21  -1  -9    2.32    0.67
  21   1   9    1.65    0.72
  21  -2   9    5.72    1.04
  21   2  -9    5.68    0.95
  21   2   9    5.25    1.06
  21  -2  -9    5.22    0.89
  21  -3   9    4.78    0.90
  21   3  -9    5.15    0.87
  21   3   9    4.32    0.98
  21  -3  -9    4.69    0.86
  21   4  -9    3.28    0.79
  21  -4   9    3.43    0.83
  21  -4  -9    1.69    0.70
  21   4   9    3.65    0.95
  21   5  -9   -0.68    0.44
  21  -5   9    0.59    0.67
  21   5   9   -0.18    0.60
  21  -5  -9   -0.14    0.51
  21  -6   9    5.61    1.12
  21   6  -9    4.19    0.93
  21  -6  -9    4.86    0.92
  21   6   9    4.62    1.10
  21  -7   9    3.16    0.91
  21   7   9    6.03    1.29
  21  -7  -9    3.48    0.87
  21   0 -10   -0.17    0.46
  21   0  10   -0.69    0.46
  21   1 -10    3.18    0.78
  21  -1  10    2.88    0.81
  21   1  10    3.92    0.92
  21  -1 -10    5.03    0.94
  21  -2  10    5.49    1.02
  21   2 -10    3.08    0.80
  21  -2 -10    4.32    0.85
  21   2  10    4.02    0.99
  21   3 -10   -0.37    0.46
  21  -3  10    0.67    0.55
  21  -3 -10    0.15    0.52
  21   3  10   -0.33    0.58
  21  -4  10    1.42    0.68
  21   4 -10    1.00    0.56
  21  -4 -10    1.83    0.66
  21   4  10    2.29    0.89
  21  -5  10    5.18    1.03
  21   5 -10    4.24    0.90
  21   5  10    4.06    1.08
  21  -5 -10    5.35    0.96
  21   6 -10    0.62    0.63
  21  -6  10    0.39    0.62
  21   6  10   -0.43    0.58
  21  -6 -10    0.71    0.64
  21  -7  10    3.54    1.01
  21   7 -10    3.80    0.91
  21  -7 -10    2.35    0.83
  21   7  10    3.00    0.98
  21   0  11   12.00    1.45
  21   0 -11   13.30    1.40
  21  -1  11    3.10    0.82
  21   1 -11    3.00    0.83
  21   1  11    3.40    0.91
  21  -1 -11    3.77    0.84
  21   2 -11    0.35    0.56
  21  -2  11    0.84    0.62
  21  -2 -11    1.78    0.65
  21   2  11   -0.03    0.56
  21  -3  11   10.56    1.37
  21   3 -11    9.82    1.26
  21  -3 -11    9.66    1.20
  21   3  11    9.53    1.39
  21  -4  11    3.57    0.98
  21   4 -11    1.85    0.73
  21  -4 -11    3.34    0.85
  21   4  11    4.39    1.08
  21  -5  11    0.41    0.66
  21   5 -11    1.01    0.61
  21  -5 -11    0.26    0.62
  21   5  11    1.50    0.82
  21   6 -11    2.76    0.85
  21  -6  11    3.07    0.97
  21  -6 -11    3.02    0.89
  21   6  11    4.21    1.11
  21   0  12    0.35    0.56
  21   0 -12   -0.03    0.54
  21  -1  12    3.30    0.94
  21   1 -12    1.20    0.69
  21   1  12    2.34    0.84
  21  -1 -12    3.40    0.82
  21  -2  12    3.98    0.98
  21   2 -12    3.47    0.87
  21  -2 -12    3.38    0.82
  21   2  12    2.93    0.94
  21  -3  12    0.84    0.63
  21   3 -12    0.00    0.52
  21  -3 -12    0.55    0.57
  21   3  12    0.39    0.69
  21  -4  12    3.67    1.00
  21   4 -12    2.67    0.77
  21   4  12    3.92    1.02
  21  -4 -12    2.74    0.82
  21  -5  12    4.22    1.06
  21   5 -12    2.04    0.83
  21   5  12    2.19    1.01
  21  -5 -12    2.57    0.81
  21   6 -12    1.25    0.73
  21  -6 -12    0.28    0.63
  21   0 -13    5.70    1.01
  21   0  13    4.76    1.06
  21  -1  13    0.99    0.69
  21   1 -13    1.52    0.70
  21   1  13    1.00    0.71
  21  -1 -13    1.43    0.72
  21   2 -13    0.75    0.69
  21  -2  13    1.19    0.69
  21   2  13    1.32    0.83
  21  -2 -13    0.57    0.59
  21  -3  13    2.74    0.87
  21   3 -13    3.59    0.96
  21   3  13    2.93    0.91
  21  -3 -13    2.50    0.77
  21  -4  13   -0.09    0.69
  21   4 -13    1.42    0.71
  21  -4 -13   -0.62    0.58
  21   4  13    0.99    0.83
  21   5 -13   -0.20    0.64
  21  -5  13    0.53    0.63
  21   5  13    0.16    0.68
  21  -5 -13    0.96    0.64
  21   0 -14    0.37    0.65
  21   0  14    0.11    0.61
  21   1 -14    2.65    0.80
  21  -1  14    2.95    0.95
  21  -1 -14    1.61    0.82
  21   1  14    3.05    0.95
  21  -2  14    3.74    0.93
  21   2 -14    3.77    0.95
  21   2  14    0.93    0.74
  21  -2 -14    2.64    0.77
  21  -3  14   -0.61    0.57
  21   3 -14    0.81    0.68
  21  -3 -14    0.20    0.56
  21   3  14   -0.51    0.59
  21   4 -14    3.25    0.89
  21  -4 -14    2.79    0.86
  21   0 -15    1.71    0.78
  21   0  15    3.19    0.97
  21   1 -15    2.20    0.85
  21  -1  15    1.90    0.93
  21  -1 -15    2.48    0.92
  21   1  15    0.90    0.84
  21   2 -15    0.71    0.73
  21  -2  15    0.53    0.62
  21   2  15    1.37    0.84
  21  -2 -15   -0.35    0.66
  22   0   0   46.17    2.09
  22   0   0   49.94    2.16
  22  -1   0    3.84    0.68
  22   1   0    4.60    0.71
  22   1   0    5.45    0.77
  22  -1   0    4.10    0.69
  22   2   0   16.14    1.13
  22  -2   0   18.62    1.24
  22   2   0   19.73    1.29
  22  -2   0   19.75    1.26
  22  -3   0    6.00    0.82
  22   3   0    5.14    0.81
  22   4   0    2.67    0.56
  22  -4   0    1.94    0.58
  22   4   0    2.20    0.60
  22   5   0    0.14    0.46
  22  -5   0   -0.12    0.42
  22  -6   0    5.04    0.83
  22   6   0    5.90    0.96
  22   7   0    4.69    0.93
  22  -7   0    3.96    0.80
  22   8   0    0.70    0.58
  22  -8   0    0.05    0.51
  22  -9   0    7.79    1.17
  22   9   0    4.31    1.10
  22   0  -1   -0.09    0.34
  22   0   1    1.03    0.47
  22   0  -1   -0.04    0.38
  22   0   1    0.17    0.39
  22   1  -1   11.01    1.05
  22  -1   1   12.32    1.14
  22   1  -1   14.95    1.09
  22  -1   1   13.76    1.26
  22  -1  -1   13.45    1.22
  22  -1  -1   12.28    0.99
  22   1   1   12.58    0.98
  22   1   1   12.76    1.05
  22   2  -1   14.30    1.06
  22   2  -1   14.36    1.10
  22  -2   1   15.91    1.14
  22   2   1   15.65    1.06
  22  -2  -1   16.28    1.20
  22  -2  -1   14.84    1.09
  22   2   1   16.17    1.15
  22   3  -1    0.18    0.42
  22  -3   1    0.33    0.38
  22   3   1    0.38    0.40
  22   3   1    0.57    0.36
  22  -3  -1    1.00    0.47
  22  -3  -1    1.00    0.45
  22   4  -1    2.73    0.66
  22   4  -1    3.54    0.62
  22  -4   1    4.26    0.76
  22  -4  -1    3.47    0.66
  22   4   1    4.13    0.80
  22  -5   1   15.04    1.39
  22   5  -1   15.10    1.43
  22  -5  -1   15.58    1.19
  22   5   1   14.24    1.40
  22   6  -1    4.34    0.89
  22  -6   1    5.70    0.92
  22  -6  -1    5.41    0.86
  22   6   1    3.18    0.80
  22   7  -1    3.93    0.91
  22  -7   1    5.18    0.94
  22  -7  -1    3.97    0.80
  22   7   1    6.08    1.12
  22  -8   1    5.98    1.00
  22   8  -1    7.43    1.21
  22  -8  -1    7.91    1.07
  22   8   1    8.77    1.31
  22  -9   1    0.47    0.62
  22   9  -1    0.20    0.63
  22   9   1    0.75    0.67
  22  -9  -1    0.31    0.56
  22   0  -2   11.27    0.91
  22   0   2    9.80    1.05
  22   0  -2   13.03    1.17
  22   0   2   10.12    1.01
  22   1  -2    0.81    0.42
  22   1  -2    0.05    0.33
  22  -1   2    0.67    0.42
  22   1   2    0.22    0.39
  22  -1  -2    0.88    0.39
  22  -1  -2    0.60    0.47
  22   1   2    0.58    0.41
  22   2  -2    1.57    0.48
  22   2  -2    1.05    0.46
  22  -2   2    1.60    0.53
  22   2   2    1.28    0.48
  22  -2  -2    2.11    0.50
  22  -2  -2    1.88    0.59
  22   3  -2    9.63    0.99
  22  -3   2    9.33    1.10
  22   3  -2   10.41    1.03
  22  -3  -2   11.46    1.15
  22   3   2    8.61    1.07
  22  -3  -2    9.75    0.96
  22   3   2    7.98    0.84
  22   4  -2    2.09    0.59
  22  -4   2    2.33    0.63
  22  -4  -2    1.77    0.53
  22  -4  -2    2.26    0.60
  22   4   2    2.52    0.67
  22   5  -2    0.55    0.45
  22  -5   2    1.24    0.59
  22  -5  -2    0.45    0.47
  22  -5  -2    0.62    0.44
  22   5   2    1.41    0.57
  22   6  -2    6.37    0.97
  22  -6   2    7.16    1.01
  22  -6  -2    6.86    0.93
  22   6   2    6.77    1.09
  22  -6  -2    6.66    1.00
  22  -7   2    4.77    0.91
  22   7  -2    5.66    1.02
  22  -7  -2    4.70    0.83
  22  -7  -2    5.43    0.98
  22   7   2    4.32    0.97
  22  -8   2    0.66    0.57
  22   8  -2    0.23    0.52
  22  -8  -2    0.42    0.64
  22   8   2    1.46    0.69
  22  -8  -2   -0.21    0.45
  22  -9   2    3.77    0.93
  22   9  -2    6.00    1.19
  22   9   2    6.31    1.28
  22  -9  -2    5.70    1.05
  22   0  -3    0.22    0.36
  22   0   3   -0.04    0.36
  22   0  -3   -0.12    0.29
  22  -1   3   15.01    1.36
  22   1  -3   13.11    1.20
  22   1  -3   11.45    0.92
  22  -1  -3   11.33    1.10
  22  -1  -3   10.11    0.96
  22   1   3   15.04    1.19
  22   1   3   11.45    0.92
  22  -2   3    9.78    1.14
  22   2  -3    9.72    1.00
  22   2  -3   11.03    1.04
  22   2   3    8.14    1.06
  22  -2  -3   10.88    1.10
  22  -2  -3    9.40    0.93
  22   3  -3    1.18    0.46
  22  -3   3    2.25    0.65
  22   3  -3    1.35    0.50
  22  -3  -3    1.79    0.50
  22  -3  -3    2.16    0.59
  22   3   3    1.97    0.47
  22   3   3    2.19    0.63
  22  -4   3    7.50    1.02
  22   4  -3    9.06    1.01
  22  -4  -3   10.10    0.99
  22  -4  -3    8.77    1.07
  22   4   3   10.21    1.23
  22   5  -3   23.01    1.49
  22  -5   3   18.41    1.38
  22   5  -3   16.80    1.27
  22   5   3   18.14    1.69
  22  -5  -3   18.49    1.26
  22  -5  -3   18.04    1.39
  22  -6   3    0.40    0.54
  22   6  -3    0.29    0.51
  22   6   3    0.94    0.58
  22  -6  -3    0.95    0.53
  22  -6  -3    1.07    0.60
  22  -7   3    4.46    0.93
  22   7  -3    3.25    0.85
  22  -7  -3    5.10    0.93
  22   7   3    4.12    0.94
  22  -8   3    5.10    0.96
  22   8  -3    5.30    1.03
  22  -8  -3    4.28    0.92
  22   8   3    7.16    1.27
  22   0  -4   13.97    0.99
  22   0  -4   13.89    1.13
  22   0   4   14.99    1.19
  22   1  -4    5.65    0.72
  22   1  -4    5.82    0.82
  22  -1   4    6.33    0.91
  22   1   4    5.54    0.86
  22  -1  -4    6.05    0.73
  22  -1  -4    5.56    0.88
  22  -2   4    6.39    0.97
  22   2  -4    7.03    0.88
  22   2  -4    8.97    0.90
  22   2   4    7.34    1.04
  22  -2  -4    8.20    1.00
  22  -2  -4    6.40    0.74
  22  -3   4   16.12    1.46
  22   3  -4   12.11    1.11
  22   3  -4   11.79    1.15
  22   3   4   11.52    1.25
  22  -3  -4   11.84    0.95
  22  -3  -4   10.41    1.13
  22  -4   4    2.06    0.66
  22   4  -4    1.88    0.56
  22   4  -4    1.35    0.51
  22  -4  -4    2.51    0.56
  22   4   4    2.79    0.76
  22  -4  -4    1.44    0.55
  22  -5   4    2.05    0.68
  22   5  -4    0.81    0.50
  22  -5  -4    0.62    0.49
  22   5   4    0.80    0.52
  22  -6   4    5.71    0.99
  22   6  -4    4.51    0.89
  22   6   4    4.37    0.98
  22  -6  -4    4.21    0.82
  22   7  -4    2.10    0.74
  22  -7   4    2.63    0.75
  22  -7  -4    2.84    0.77
  22   7   4    4.26    0.97
  22   8  -4   -0.03    0.59
  22  -8   4   -0.42    0.45
  22   8   4    0.05    0.67
  22  -8  -4   -0.78    0.43
  22   0  -5    0.11    0.33
  22   0   5    0.14    0.44
  22   0  -5    0.14    0.37
  22   1  -5    9.23    0.91
  22  -1   5   10.16    1.15
  22   1  -5    9.19    1.02
  22  -1  -5    8.86    1.02
  22  -1  -5    9.37    0.87
  22   1   5   10.46    1.22
  22   2  -5    8.37    0.90
  22  -2   5    8.88    1.11
  22   2  -5    7.94    0.96
  22  -2  -5    9.24    1.05
  22   2   5   10.57    1.24
  22   2   5    9.44    0.91
  22   3  -5    1.35    0.52
  22   3  -5    0.97    0.44
  22  -3   5    1.25    0.53
  22  -3  -5    0.99    0.54
  22   3   5    0.46    0.48
  22   4  -5    2.00    0.59
  22   4  -5    2.64    0.64
  22  -4   5    2.95    0.79
  22  -4  -5    3.21    0.74
  22   4   5    2.37    0.74
  22   5  -5   15.48    1.25
  22  -5   5   11.99    1.36
  22   5   5   17.48    1.68
  22  -5  -5   12.26    1.33
  22   6  -5    0.79    0.58
  22  -6   5    1.79    0.67
  22  -6  -5    0.91    0.64
  22   6   5    3.18    0.86
  22   7  -5    3.45    0.86
  22  -7   5    5.72    1.09
  22  -7  -5    3.94    0.86
  22   7   5    4.87    1.04
  22  -8   5    6.55    1.14
  22   8  -5    5.49    1.09
  22   8   5    4.15    1.14
  22  -8  -5    5.60    1.03
  22   0   6   30.00    1.80
  22   0  -6   29.26    1.71
  22   1  -6    0.53    0.45
  22  -1   6    2.11    0.66
  22   1  -6    0.94    0.42
  22  -1  -6    1.41    0.59
  22   1   6    1.25    0.57
  22   2  -6    4.31    0.67
  22  -2   6    4.92    0.88
  22   2  -6    6.37    0.89
  22  -2  -6    4.85    0.82
  22   2   6    4.99    0.96
  22   3  -6    6.92    0.93
  22  -3   6    7.32    1.02
  22   3  -6    6.24    0.81
  22  -3  -6    5.13    0.84
  22   3   6    5.23    0.93
  22   4  -6    0.95    0.49
  22   4  -6    1.62    0.56
  22  -4   6    2.36    0.78
  22   4   6    0.88    0.59
  22  -4  -6    1.53    0.56
  22   5  -6    0.23    0.49
  22  -5   6    0.11    0.49
  22   5  -6   -0.32    0.39
  22  -5  -6    0.46    0.48
  22   5   6    0.29    0.58
  22   6  -6    5.94    0.99
  22  -6   6    6.30    1.15
  22   6   6    5.36    1.08
  22  -6  -6    3.11    0.75
  22  -7   6    5.71    1.07
  22   7  -6    5.66    1.04
  22   7   6    8.62    1.40
  22  -7  -6    8.92    1.20
  22   8  -6    0.01    0.58
  22  -8   6    0.28    0.66
  22   8   6    0.04    0.62
  22  -8  -6   -0.30    0.57
  22   0   7   -0.19    0.45
  22   0  -7    0.27    0.51
  22  -1   7    6.03    1.00
  22   1  -7    5.73    0.88
  22  -1  -7    6.36    0.92
  22   1   7    9.54    1.22
  22   2  -7    8.39    1.08
  22  -2   7   11.22    1.34
  22  -2  -7    9.18    1.08
  22   2   7    9.26    1.24
  22  -3   7    0.25    0.55
  22   3  -7   -0.24    0.42
  22   3   7    0.03    0.49
  22  -3  -7    0.05    0.50
  22   4  -7    2.71    0.65
  22   4  -7    3.99    0.80
  22  -4   7    2.92    0.77
  22  -4  -7    3.09    0.74
  22   4   7    4.51    1.01
  22  -5   7    7.45    1.12
  22   5  -7    6.72    0.99
  22   5  -7    7.21    0.98
  22   5   7    7.59    1.26
  22  -5  -7    7.27    1.09
  22   6  -7    1.01    0.59
  22  -6   7    2.04    0.80
  22   6  -7    0.15    0.48
  22  -6  -7    0.78    0.60
  22   6   7    1.78    0.76
  22  -7   7    2.84    0.85
  22   7  -7    3.23    0.86
  22  -7  -7    4.18    0.89
  22   7   7    2.19    0.86
  22   8  -7    9.56    1.33
  22  -8   7   10.94    1.56
  22   8   7    9.45    1.55
  22  -8  -7    9.84    1.35
  22   0   8   13.41    1.48
  22   0  -8   14.22    1.43
  22  -1   8    4.21    0.93
  22   1  -8    4.15    0.83
  22   1   8    3.55    0.84
  22  -1  -8    3.90    0.79
  22  -2   8    2.98    0.77
  22   2  -8    3.22    0.76
  22  -2  -8    1.96    0.68
  22   2   8    3.12    0.79
  22   3  -8    6.17    1.00
  22  -3   8    7.08    1.06
  22   3   8    6.24    1.05
  22  -3  -8    8.66    1.10
  22   4  -8    2.85    0.71
  22  -4   8    2.38    0.78
  22  -4  -8    3.85    0.79
  22   4   8    2.75    0.81
  22  -5   8   -0.04    0.50
  22   5  -8    1.12    0.62
  22  -5  -8    1.52    0.67
  22   5   8    0.60    0.68
  22   6  -8    3.91    0.90
  22  -6   8    3.41    0.93
  22  -6  -8    3.22    0.78
  22   6   8    2.40    0.86
  22  -7   8    5.19    1.11
  22   7   8    4.62    1.13
  22  -7  -8    5.57    1.03
  22   0  -9   -0.19    0.40
  22   0   9   -0.43    0.45
  22   1  -9    4.60    0.84
  22  -1   9    3.37    0.84
  22   1   9    3.77    0.90
  22  -1  -9    2.27    0.67
  22   2  -9    3.30    0.75
  22  -2   9    3.24    0.86
  22   2   9    3.57    0.89
  22  -2  -9    2.74    0.72
  22   3  -9    0.06    0.47
  22  -3   9    0.40    0.53
  22   3   9    0.81    0.72
  22  -3  -9    0.34    0.55
  22   4  -9    2.85    0.77
  22  -4   9    3.55    0.88
  22  -4  -9    3.28    0.84
  22   4   9    2.47    0.90
  22   5  -9    3.92    0.88
  22  -5   9    4.61    0.95
  22  -5  -9    2.90    0.77
  22   5   9    3.08    0.94
  22  -6   9   -0.10    0.57
  22   6  -9   -0.35    0.46
  22  -6  -9    0.21    0.59
  22   6   9    0.56    0.68
  22  -7   9    3.75    1.02
  22   7   9    5.29    1.20
  22  -7  -9    3.47    0.89
  22   0 -10   19.46    1.50
  22   0  10   17.38    1.72
  22   1 -10    4.27    0.89
  22  -1  10    6.44    1.13
  22   1  10    4.07    1.02
  22  -1 -10    3.65    0.86
  22   2 -10    0.34    0.53
  22  -2  10    1.14    0.73
  22   2  10    0.57    0.67
  22  -2 -10    0.49    0.52
  22   3 -10    9.35    1.21
  22  -3  10   10.13    1.32
  22  -3 -10   11.36    1.37
  22   3  10   10.39    1.46
  22   4 -10    2.85    0.76
  22  -4  10    2.53    0.80
  22  -4 -10    2.17    0.70
  22   4  10    2.78    0.89
  22  -5  10   -0.58    0.58
  22   5 -10    0.30    0.49
  22  -5 -10    0.51    0.59
  22   5  10   -0.51    0.65
  22   6 -10    3.41    0.87
  22  -6  10    3.84    1.05
  22  -6 -10    4.07    0.90
  22   6  10    2.41    0.93
  22   0  11    1.26    0.72
  22   0 -11   -0.36    0.52
  22  -1  11    2.05    0.83
  22   1 -11    2.18    0.72
  22   1  11    1.78    0.78
  22  -1 -11    2.42    0.73
  22  -2  11    4.98    1.08
  22   2 -11    3.09    0.81
  22  -2 -11    4.98    0.93
  22   2  11    4.46    1.01
  22  -3  11    0.12    0.56
  22   3 -11    0.85    0.62
  22  -3 -11    1.24    0.67
  22   3  11   -0.22    0.67
  22  -4  11    2.09    0.85
  22   4 -11    2.68    0.83
  22   4  11    1.56    0.79
  22  -4 -11    3.79    0.92
  22  -5  11    3.10    0.90
  22   5 -11    3.06    0.85
  22  -5 -11    2.45    0.83
  22   5  11    3.87    1.08
  22   6 -11   -0.42    0.56
  22  -6  11    1.06    0.70
  22  -6 -11    0.21    0.63
  22   6  11    0.47    0.75
  22   0  12    4.60    1.00
  22   0 -12    3.26    0.86
  22  -1  12    1.97    0.83
  22   1 -12    2.78    0.80
  22   1  12    2.71    0.95
  22  -1 -12    3.45    0.88
  22   2 -12    0.66    0.65
  22  -2  12    1.58    0.75
  22   2  12    0.73    0.65
  22  -2 -12    0.67    0.60
  22   3 -12    3.78    0.87
  22  -3  12    4.50    1.03
  22  -3 -12    2.80    0.85
  22   3  12    3.06    0.94
  22  -4  12    0.54    0.71
  22   4 -12    0.75    0.59
  22  -4 -12    1.67    0.76
  22   4  12   -0.11    0.70
  22   5 -12    0.01    0.60
  22  -5  12    1.00    0.81
  22  -5 -12    0.41    0.68
  22   5  12   -1.41    0.64
  22   0 -13    0.06    0.66
  22   0  13   -0.18    0.64
  22   1 -13    5.11    1.03
  22  -1  13    2.82    0.91
  22  -1 -13    3.69    0.88
  22   1  13    2.54    0.92
  22  -2  13    3.49    0.97
  22   2 -13    6.72    1.21
  22   2  13    3.27    1.01
  22  -2 -13    3.06    0.93
  22   3 -13    0.33    0.66
  22  -3  13    0.71    0.75
  22   3  13    0.72    0.68
  22  -3 -13   -0.62    0.52
  22  -4  13    2.97    0.92
  22   4 -13    2.55    0.86
  22  -4 -13    3.95    0.98
  22   4  13    2.36    0.90
  22   0 -14    2.80    0.96
  22   0  14    1.53    0.86
  22   1 -14    0.23    0.61
  22  -1  14    1.40    0.87
  22  -1 -14    1.16    0.74
  22   1  14    2.54    0.92
  22  -2  14    0.82    0.72
  22   2 -14    0.03    0.61
  22  -2 -14    0.26    0.67
  22   2  14   -0.76    0.57
  23   0   0   -0.22    0.35
  23   0   0    0.48    0.43
  23  -1   0   12.20    1.00
  23   1   0   12.67    1.16
  23  -1   0   11.49    1.11
  23   1   0   12.75    1.19
  23   2   0   12.05    1.18
  23  -2   0   13.32    1.26
  23  -2   0   11.61    1.15
  23   2   0   12.50    1.12
  23   3   0    0.08    0.36
  23  -3   0   -0.23    0.37
  23   4   0    3.46    0.70
  23  -4   0    3.05    0.66
  23   5   0   11.77    1.32
  23  -5   0   11.98    1.20
  23  -6   0    2.67    0.71
  23   6   0    2.65    0.77
  23   7   0    1.53    0.73
  23  -7   0    2.90    0.73
  23   8   0    8.18    1.28
  23  -8   0    6.87    1.07
  23   0  -1   22.31    1.37
  23   0   1   24.84    1.48
  23   0   1   23.05    1.42
  23   0  -1   25.03    1.48
  23   1  -1    1.08    0.47
  23  -1   1    1.42    0.49
  23  -1   1    1.88    0.55
  23   1  -1    1.58    0.52
  23  -1  -1    1.80    0.58
  23  -1  -1    2.82    0.60
  23   1   1    1.13    0.47
  23   1   1    2.11    0.59
  23  -2   1    5.90    0.81
  23   2  -1    7.08    0.90
  23   2  -1    6.63    0.84
  23  -2  -1    6.53    0.87
  23   2   1    6.14    0.86
  23  -2  -1    5.79    0.82
  23   2   1    5.97    0.79
  23   3  -1    6.84    0.90
  23  -3   1    8.77    1.05
  23  -3  -1    7.79    0.99
  23   3   1    9.22    1.13
  23  -3  -1    6.66    0.88
  23   4  -1    0.91    0.48
  23   4  -1    1.91    0.52
  23  -4   1    0.86    0.52
  23  -4  -1    2.87    0.69
  23  -4  -1    1.69    0.53
  23   4   1    1.24    0.56
  23   5  -1    0.45    0.50
  23  -5   1    0.59    0.52
  23  -5  -1    0.34    0.43
  23   5   1    0.13    0.46
  23  -6   1    4.53    0.88
  23   6  -1    5.77    1.02
  23  -6  -1    5.47    0.86
  23   6   1    4.92    0.97
  23  -7   1    4.33    0.86
  23   7  -1    4.22    0.96
  23   7   1    4.70    0.96
  23  -7  -1    4.53    0.86
  23  -8   1    0.17    0.58
  23   8  -1   -0.30    0.63
  23   8   1    0.48    0.72
  23  -8  -1    0.00    0.52
  23   0   2    0.08    0.42
  23   0   2   -0.07    0.34
  23   0  -2    0.65    0.41
  23   0  -2   -0.23    0.33
  23   1  -2   12.84    1.02
  23  -1   2   14.27    1.14
  23   1  -2   13.64    1.07
  23  -1  -2   16.29    1.19
  23   1   2   11.79    1.21
  23   1   2   14.77    1.06
  23  -1  -2   14.53    1.06
  23  -2   2    6.69    0.88
  23   2  -2    6.95    0.87
  23   2  -2    5.65    0.79
  23   2   2    5.69    0.85
  23  -2  -2    6.30    0.80
  23  -2  -2    6.95    0.92
  23   3  -2    1.27    0.48
  23   3  -2    0.96    0.49
  23  -3   2    0.78    0.46
  23   3   2    1.18    0.42
  23  -3  -2   -0.03    0.43
  23  -3  -2    0.99    0.46
  23   3   2    1.20    0.56
  23   4  -2    4.39    0.79
  23  -4   2    5.16    0.88
  23   4   2    5.43    0.95
  23  -4  -2    3.24    0.69
  23  -4  -2    4.99    0.76
  23  -5   2   13.32    1.35
  23   5  -2   15.16    1.44
  23   5   2   13.54    1.44
  23  -5  -2   13.76    1.36
  23  -5  -2   13.25    1.25
  23  -6   2    2.72    0.78
  23   6  -2    3.93    0.86
  23   6   2    3.19    0.83
  23  -6  -2    3.04    0.78
  23  -6  -2    2.32    0.63
  23  -7   2    5.07    1.01
  23   7  -2    3.50    0.90
  23  -7  -2    3.16    0.75
  23  -7  -2    5.39    0.96
  23   7   2    4.71    1.06
  23   8  -2    6.69    1.21
  23  -8   2    4.86    0.97
  23   8   2    6.89    1.25
  23  -8  -2    6.82    1.11
  23   0  -3   17.51    1.15
  23   0  -3   19.08    1.30
  23   0   3   19.67    1.35
  23  -1   3    4.48    0.80
  23   1  -3    3.80    0.73
  23   1  -3    3.83    0.64
  23  -1  -3    4.48    0.67
  23   1   3    4.13    0.81
  23   1   3    3.60    0.65
  23  -1  -3    3.87    0.75
  23   2  -3    6.07    0.82
  23   2  -3    7.91    0.96
  23  -2   3    6.94    1.01
  23  -2  -3    7.86    1.02
  23  -2  -3    7.67    0.87
  23   2   3    6.55    0.95
  23   3  -3   10.27    1.08
  23  -3   3   10.34    1.17
  23   3  -3   10.41    1.09
  23  -3  -3    7.93    0.89
  23  -3  -3    8.86    1.04
  23   3   3    9.60    1.14
  23  -4   3    2.96    0.73
  23   4  -3    3.90    0.73
  23  -4  -3    2.75    0.66
  23   4   3    2.38    0.70
  23  -4  -3    3.25    0.64
  23   5  -3   -0.10    0.47
  23  -5   3    0.76    0.50
  23  -5  -3    0.23    0.41
  23   5   3    0.76    0.62
  23  -5  -3   -0.40    0.45
  23  -6   3    7.19    1.06
  23   6  -3    6.32    1.03
  23  -6  -3    7.02    1.05
  23   6   3    6.22    1.06
  23  -7   3    4.24    0.89
  23   7  -3    4.85    0.97
  23  -7  -3    1.54    0.72
  23   7   3    3.81    0.94
  23   8  -3    0.03    0.63
  23  -8   3   -0.04    0.53
  23   8   3    0.12    0.67
  23  -8  -3   -0.49    0.52
  23   0   4   -0.17    0.44
  23   0  -4    0.55    0.49
  23   0  -4    0.00    0.34
  23  -1   4    5.07    0.90
  23   1  -4    5.31    0.84
  23   1  -4    5.60    0.73
  23  -1  -4    6.75    0.79
  23  -1  -4    4.47    0.84
  23   1   4    3.92    0.83
  23   2  -4   11.39    1.17
  23   2  -4   13.44    1.02
  23  -2   4   13.14    1.36
  23  -2  -4    9.85    0.95
  23   2   4   11.73    1.27
  23  -2  -4   11.67    1.20
  23   3  -4    0.69    0.44
  23  -3   4    0.15    0.44
  23   3  -4    0.60    0.44
  23  -3  -4    0.38    0.40
  23   3   4    1.07    0.53
  23  -3  -4    0.30    0.44
  23  -4   4    2.97    0.78
  23   4  -4    4.62    0.79
  23   4  -4    4.12    0.75
  23   4   4    3.58    0.81
  23  -4  -4    4.77    0.88
  23   5  -4   13.85    1.35
  23  -5   4   14.60    1.51
  23   5   4   16.88    1.70
  23  -5  -4   16.41    1.52
  23  -6   4    1.04    0.60
  23   6  -4    2.07    0.70
  23  -6  -4    1.46    0.68
  23   6   4    0.86    0.65
  23  -7   4    3.78    0.86
  23   7  -4    1.68    0.73
  23   7   4    2.81    0.89
  23  -7  -4    3.72    0.89
  23  -8   4    2.84    0.86
  23   8  -4    3.77    0.96
  23   8   4    4.28    1.07
  23  -8  -4    4.90    0.96
  23   0  -5   19.76    1.18
  23   0   5   17.92    1.38
  23   0  -5   18.66    1.39
  23   1  -5    2.40    0.65
  23  -1   5    1.15    0.56
  23   1  -5    1.64    0.48
  23   1   5    1.12    0.58
  23  -1  -5    1.34    0.54
  23   2  -5    1.64    0.56
  23   2  -5    2.55    0.56
  23  -2   5    2.95    0.71
  23   2   5    1.24    0.61
  23   2   5    2.80    0.57
  23  -2  -5    2.45    0.66
  23   3  -5    8.30    1.01
  23  -3   5    8.09    1.12
  23   3  -5    8.15    0.93
  23  -3  -5    9.67    1.13
  23   3   5    7.96    1.12
  23   4  -5    3.54    0.74
  23   4  -5    3.51    0.71
  23  -4   5    1.78    0.67
  23  -4  -5    3.41    0.75
  23   4   5    2.80    0.76
  23  -5   5    0.69    0.58
  23   5  -5   -0.39    0.44
  23   5  -5   -0.24    0.39
  23   5   5   -0.39    0.49
  23  -5  -5    0.17    0.50
  23  -6   5    4.00    0.89
  23   6  -5    2.38    0.72
  23  -6  -5    2.36    0.70
  23   6   5    3.69    0.92
  23   7  -5    3.73    0.90
  23  -7   5    5.54    1.13
  23  -7  -5    5.82    1.04
  23   7   5    5.67    1.16
  23   8  -5    0.58    0.66
  23  -8   5    0.33    0.63
  23  -8  -5    0.83    0.64
  23   8   5   -0.12    0.68
  23   0  -6   -0.53    0.42
  23   0   6    0.29    0.54
  23   1  -6    7.71    1.03
  23  -1   6    9.45    1.17
  23  -1  -6    6.98    0.98
  23   1   6    8.32    1.14
  23  -2   6    6.80    1.06
  23   2  -6    7.41    0.87
  23   2  -6    6.30    0.94
  23  -2  -6    7.72    1.05
  23   2   6    4.40    0.90
  23   3  -6    0.33    0.39
  23   3  -6    0.11    0.38
  23  -3   6    0.59    0.53
  23   3   6    1.37    0.64
  23  -3  -6    0.26    0.46
  23  -4   6    4.58    0.90
  23   4  -6    3.79    0.78
  23   4  -6    3.15    0.70
  23   4   6    4.38    0.96
  23  -4  -6    4.57    0.85
  23  -5   6    5.50    0.99
  23   5  -6    6.95    1.02
  23   5  -6    6.58    0.95
  23  -5  -6    5.24    0.97
  23   5   6    7.13    1.19
  23   6  -6    0.93    0.62
  23  -6   6    1.16    0.68
  23  -6  -6    0.39    0.52
  23   6   6    1.36    0.76
  23  -7   6    2.03    0.77
  23   7  -6    4.44    0.97
  23  -7  -6    3.80    0.87
  23   7   6    2.27    0.87
  23   0  -7   16.63    1.53
  23   0   7   16.10    1.55
  23   1  -7    3.34    0.74
  23  -1   7    3.91    0.85
  23  -1  -7    3.20    0.77
  23   1   7    3.30    0.86
  23  -2   7    3.55    0.86
  23   2  -7    2.62    0.69
  23  -2  -7    2.42    0.69
  23   2   7    2.81    0.81
  23   3  -7    7.77    1.03
  23  -3   7    8.76    1.22
  23  -3  -7    6.79    1.04
  23   3   7   10.12    1.36
  23   4  -7    3.26    0.73
  23  -4   7    4.00    0.95
  23  -4  -7    2.39    0.73
  23   4   7    1.98    0.80
  23  -5   7    0.22    0.64
  23   5  -7    0.02    0.42
  23  -5  -7    0.58    0.59
  23   5   7    0.05    0.66
  23   6  -7    2.89    0.78
  23  -6   7    2.75    0.86
  23  -6  -7    2.36    0.76
  23   6   7    4.07    1.04
  23   7  -7    3.21    0.88
  23  -7   7    4.82    1.08
  23  -7  -7    4.88    1.01
  23   7   7    4.80    1.12
  23   0  -8   -0.11    0.51
  23   0   8    0.10    0.53
  23  -1   8    4.08    0.89
  23   1  -8    2.05    0.71
  23   1   8    2.46    0.76
  23  -1  -8    3.01    0.77
  23   2  -8    4.08    0.83
  23  -2   8    4.22    0.95
  23   2   8    7.79    1.22
  23  -2  -8    3.98    0.83
  23  -3   8    0.84    0.57
  23   3  -8   -0.10    0.47
  23  -3  -8    0.24    0.54
  23   3   8   -0.03    0.56
  23   4  -8    4.80    0.90
  23  -4   8    3.28    0.84
  23   4   8    4.80    1.08
  23  -4  -8    3.18    0.78
  23  -5   8    4.31    0.99
  23   5  -8    5.49    0.97
  23  -5  -8    3.48    0.84
  23   5   8    5.27    1.11
  23   6  -8   -0.08    0.51
  23  -6   8   -0.40    0.53
  23  -6  -8    0.60    0.61
  23   6   8   -0.18    0.59
  23  -7   8    3.33    0.92
  23   7   8    6.14    1.22
  23  -7  -8    4.35    0.96
  23   0   9   14.18    1.53
  23   0  -9   12.38    1.37
  23   1  -9    5.40    0.95
  23  -1   9    5.17    1.04
  23  -1  -9    7.50    1.10
  23   1   9    5.11    1.03
  23   2  -9    1.11    0.64
  23  -2   9    0.98    0.67
  23  -2  -9    1.74    0.65
  23   2   9    1.74    0.73
  23  -3   9    8.70    1.24
  23   3  -9    9.88    1.26
  23  -3  -9   11.85    1.37
  23   3   9   12.40    1.56
  23  -4   9    1.32    0.71
  23   4  -9    2.44    0.77
  23  -4  -9    2.90    0.79
  23   4   9    1.55    0.75
  23  -5   9    0.13    0.63
  23   5  -9   -0.28    0.51
  23  -5  -9    0.10    0.50
  23   5   9   -0.58    0.57
  23  -6   9    3.17    0.96
  23   6  -9    3.51    0.89
  23  -6  -9    2.14    0.73
  23   6   9    4.06    1.10
  23   0  10    0.74    0.68
  23   0 -10    0.17    0.56
  23  -1  10    3.42    0.88
  23   1 -10    3.92    0.83
  23  -1 -10    2.26    0.70
  23   1  10    4.33    0.97
  23  -2  10    3.24    0.87
  23   2 -10    3.96    0.89
  23   2  10    3.67    0.93
  23  -2 -10    3.58    0.85
  23   3 -10    0.18    0.60
  23  -3  10    0.47    0.66
  23   3  10    0.06    0.67
  23  -3 -10   -0.05    0.58
  23  -4  10    1.97    0.82
  23   4 -10    2.22    0.75
  23  -4 -10    1.68    0.68
  23   4  10    3.25    1.06
  23  -5  10    2.66    0.93
  23   5 -10    3.28    0.84
  23   5  10    3.54    1.04
  23  -5 -10    2.20    0.83
  23  -6  10    0.49    0.73
  23   6 -10    0.51    0.63
  23   6  10    0.17    0.68
  23  -6 -10    0.54    0.69
  23   0 -11    7.64    1.17
  23   0  11   10.08    1.37
  23   1 -11    1.64    0.77
  23  -1  11    3.03    0.92
  23   1  11    2.68    0.90
  23  -1 -11    3.50    0.86
  23   2 -11    1.31    0.70
  23  -2  11    1.37    0.71
  23   2  11    2.22    0.89
  23  -2 -11    1.15    0.65
  23  -3  11    5.43    1.04
  23   3 -11    4.39    0.95
  23   3  11    4.60    1.10
  23  -3 -11    4.36    0.96
  23  -4  11    0.45    0.72
  23   4 -11    0.41    0.57
  23  -4 -11    0.43    0.66
  23   4  11    0.03    0.68
  23  -5  11   -0.27    0.65
  23   5 -11   -0.14    0.53
  23  -5 -11    1.49    0.79
  23   5  11   -0.74    0.67
  23   0 -12   -1.10    0.52
  23   0  12    0.40    0.62
  23  -1  12    3.97    1.00
  23   1 -12    2.59    0.86
  23  -1 -12    3.31    0.90
  23   1  12    4.56    1.13
  23  -2  12    5.17    1.13
  23   2 -12    2.20    0.79
  23   2  12    2.36    0.87
  23  -2 -12    2.21    0.85
  23  -3  12   -0.06    0.71
  23   3 -12    0.25    0.61
  23   3  12    0.75    0.74
  23  -3 -12    0.06    0.63
  23   4 -12    0.84    0.65
  23  -4  12    0.21    0.73
  23  -4 -12    1.64    0.80
  23   4  12    1.42    0.81
  23   0  13    2.65    0.87
  23   0 -13    2.88    0.84
  23   1 -13    2.58    0.92
  23  -1  13    0.87    0.74
  23   1  13    2.86    1.03
  23  -1 -13    0.23    0.67
  23   2 -13    1.32    0.75
  23  -2  13    1.07    0.73
  23   2  13    1.39    0.80
  23  -2 -13    1.17    0.78
  23   3 -13    2.48    0.88
  23  -3  13    3.75    0.97
  23  -3 -13    5.91    1.15
  23   3  13    5.22    1.20
  23   0 -14    0.29    0.63
  24   0   0    5.15    0.81
  24   0   0    5.58    0.84
  24  -1   0    4.48    0.77
  24   1   0    4.80    0.76
  24  -1   0    4.54    0.82
  24   1   0    4.36    0.75
  24  -2   0    5.49    0.83
  24   2   0    3.85    0.65
  24   2   0    5.01    0.83
  24  -2   0    4.97    0.82
  24   3   0    9.75    1.14
  24  -3   0   10.35    1.17
  24  -3   0    8.81    1.03
  24   4   0    1.94    0.66
  24  -4   0    2.01    0.61
  24  -5   0   -0.28    0.45
  24   5   0   -0.26    0.44
  24   6   0    3.64    0.86
  24  -6   0    3.64    0.80
  24  -7   0    6.45    1.03
  24   7   0    5.65    1.03
  24   8   0   -0.02    0.56
  24  -8   0   -0.43    0.51
  24   0  -1    0.37    0.47
  24   0   1    0.34    0.39
  24   0  -1    0.16    0.40
  24   0   1   -0.09    0.41
  24  -1   1   11.63    1.18
  24   1  -1    9.04    1.02
  24   1  -1    9.76    1.01
  24  -1   1    9.92    1.09
  24  -1  -1    8.68    0.97
  24   1   1    8.31    0.96
  24   1   1    7.73    0.98
  24  -1  -1   10.62    1.16
  24   2  -1    7.41    0.89
  24  -2   1    8.14    0.99
  24   2  -1    6.80    0.92
  24  -2   1    7.51    0.98
  24   2   1    6.58    0.93
  24  -2  -1    8.00    0.99
  24  -2  -1    8.04    0.96
  24   2   1    7.59    0.89
  24  -3   1    0.29    0.45
  24   3  -1    0.59    0.47
  24  -3  -1    0.06    0.37
  24  -3  -1    0.69    0.55
  24   3   1   -0.32    0.41
  24  -4   1    4.07    0.75
  24   4  -1    3.53    0.76
  24  -4  -1    3.03    0.70
  24  -4  -1    4.90    0.79
  24   4   1    3.58    0.76
  24  -5   1    9.93    1.19
  24   5  -1   10.04    1.20
  24  -5  -1   10.44    1.18
  24  -5  -1   10.42    1.22
  24   5   1   10.89    1.31
  24  -6   1    1.27    0.63
  24   6  -1    2.01    0.69
  24  -6  -1    1.85    0.65
  24  -6  -1    1.26    0.61
  24   6   1    2.26    0.75
  24  -7   1    1.79    0.75
  24   7  -1    2.14    0.78
  24  -7  -1    1.94    0.66
  24   7   1    1.88    0.73
  24   8  -1    7.66    1.27
  24  -8   1    5.02    1.02
  24   8   1    6.12    1.18
  24  -8  -1    8.00    1.16
  24   0  -2   31.56    1.66
  24   0   2   34.09    1.84
  24   0  -2   30.95    1.76
  24   0   2   32.19    1.71
  24   1  -2    2.03    0.58
  24  -1   2    0.87    0.55
  24   1  -2    1.44    0.50
  24  -1  -2    1.24    0.56
  24  -1  -2    1.77    0.53
  24   1   2    1.48    0.61
  24   1   2    2.35    0.58
  24  -2   2    6.75    0.95
  24   2  -2    8.42    0.99
  24   2  -2    6.88    0.91
  24   2   2    8.38    1.07
  24  -2  -2    8.47    1.05
  24  -2  -2    8.88    0.98
  24   3  -2   12.19    1.16
  24   3  -2    8.77    1.05
  24  -3   2   12.47    1.29
  24  -3  -2    9.49    1.04
  24  -3  -2   10.51    1.18
  24   3   2   10.05    1.08
  24   3   2   10.88    1.26
  24   4  -2    1.99    0.64
  24  -4   2    2.03    0.67
  24  -4  -2    2.06    0.62
  24  -4  -2    0.45    0.45
  24   4   2    1.81    0.63
  24   5  -2   -0.30    0.43
  24  -5   2    0.85    0.61
  24  -5  -2    0.77    0.49
  24  -5  -2   -0.39    0.47
  24   5   2   -0.02    0.52
  24  -6   2    4.01    0.92
  24   6  -2    2.11    0.69
  24   6   2    5.76    1.09
  24  -6  -2    4.65    0.83
  24  -6  -2    4.13    0.87
  24  -7   2    4.55    0.99
  24   7  -2    4.08    0.94
  24  -7  -2    4.30    0.93
  24   7   2    3.28    0.89
  24  -8   2    0.68    0.66
  24   8  -2    0.23    0.65
  24   8   2    0.69    0.74
  24  -8  -2   -0.25    0.61
  24   0  -3    0.35    0.40
  24   0   3   -0.13    0.43
  24   0  -3   -0.16    0.43
  24   0   3    0.63    0.48
  24  -1   3    4.57    0.87
  24   1  -3    6.37    0.92
  24   1  -3    7.56    0.89
  24   1   3    5.28    0.79
  24   1   3    5.35    0.88
  24  -1  -3    7.78    1.00
  24  -1  -3    8.16    0.90
  24  -2   3    9.70    1.20
  24   2  -3    9.09    1.06
  24   2  -3   11.22    1.11
  24  -2  -3    7.61    1.02
  24   2   3    9.98    1.16
  24  -2  -3   10.03    1.00
  24  -3   3    0.95    0.54
  24   3  -3    0.06    0.45
  24   3  -3    0.63    0.47
  24  -3  -3    0.48    0.44
  24  -3  -3    1.06    0.59
  24   3   3    0.34    0.45
  24  -4   3    2.31    0.72
  24   4  -3    2.67    0.63
  24  -4  -3    1.92    0.63
  24   4   3    3.32    0.84
  24  -4  -3    2.94    0.64
  24  -5   3    9.86    1.20
  24   5  -3    8.41    1.09
  24   5   3   11.04    1.35
  24  -5  -3    9.94    1.21
  24   6  -3    3.03    0.82
  24  -6   3    0.87    0.59
  24  -6  -3    2.79    0.76
  24   6   3    2.10    0.75
  24   7  -3    4.62    0.97
  24  -7   3    1.55    0.73
  24   7   3    3.32    0.94
  24  -7  -3    2.74    0.85
  24   0  -4    8.89    0.91
  24   0   4   11.44    1.27
  24   0  -4   10.11    1.15
  24  -1   4    1.69    0.67
  24   1  -4    2.60    0.57
  24   1  -4    2.37    0.61
  24   1   4    2.03    0.69
  24  -1  -4    2.19    0.53
  24  -1  -4    2.34    0.62
  24   1   4    1.77    0.56
  24  -2   4    1.57    0.64
  24   2  -4    2.29    0.57
  24   2  -4    1.44    0.57
  24  -2  -4    1.47    0.63
  24  -2  -4    1.88    0.51
  24   2   4    1.27    0.56
  24  -3   4    6.22    1.01
  24   3  -4    7.48    0.98
  24   3  -4    8.17    0.96
  24  -3  -4    9.33    1.13
  24   3   4    8.87    1.16
  24   4  -4    5.21    0.84
  24  -4   4    4.77    0.87
  24   4  -4    3.51    0.71
  24  -4  -4    5.06    0.88
  24   4   4    4.75    0.98
  24  -5   4    0.49    0.57
  24   5  -4    0.83    0.52
  24   5   4    0.20    0.53
  24  -5  -4   -0.16    0.54
  24   6  -4    5.59    0.96
  24  -6   4    4.37    0.92
  24   6   4    3.76    0.94
  24  -6  -4    4.88    0.97
  24   7  -4    5.87    1.11
  24  -7   4    3.16    0.87
  24   7   4    2.09    0.86
  24  -7  -4    3.72    0.91
  24   0   5   -0.15    0.48
  24   0  -5   -0.30    0.46
  24   1  -5    4.54    0.69
  24   1  -5    3.92    0.76
  24  -1   5    2.56    0.78
  24   1   5    2.49    0.75
  24  -1  -5    3.59    0.75
  24   2  -5    6.94    1.00
  24   2  -5    7.33    0.91
  24  -2   5    7.36    1.07
  24   2   5    7.74    1.11
  24   2   5    7.68    0.93
  24  -2  -5    8.03    1.08
  24   3  -5    0.13    0.41
  24   3  -5    0.20    0.38
  24  -3   5    0.86    0.55
  24   3   5    0.55    0.54
  24  -3  -5    0.41    0.46
  24  -4   5    7.57    1.13
  24   4  -5    6.33    0.93
  24   4  -5    7.34    1.01
  24  -4  -5    4.92    0.91
  24   4   5    6.22    1.12
  24  -5   5    4.98    1.01
  24   5  -5    5.99    0.97
  24   5  -5    7.80    1.09
  24   5   5    7.52    1.20
  24  -5  -5    7.03    1.07
  24   6  -5    0.90    0.62
  24  -6   5    0.26    0.55
  24   6   5    2.12    0.79
  24  -6  -5   -0.15    0.56
  24  -7   5    2.24    0.87
  24   7  -5    3.05    0.84
  24  -7  -5    1.85    0.72
  24   7   5    2.63    0.97
  24   0  -6   12.06    1.29
  24   0   6   15.89    1.55
  24  -1   6    2.71    0.77
  24   1  -6    1.89    0.69
  24  -1  -6    2.31    0.68
  24   1   6    2.24    0.71
  24  -2   6    2.51    0.77
  24   2  -6    0.97    0.59
  24  -2  -6    4.04    0.84
  24   2   6    2.48    0.74
  24   3  -6    9.63    1.11
  24  -3   6    9.56    1.26
  24   3   6    8.04    1.23
  24  -3  -6    8.66    1.12
  24   4  -6    1.42    0.61
  24  -4   6    2.69    0.84
  24   4  -6    2.10    0.65
  24  -4  -6    3.08    0.78
  24   4   6    2.00    0.74
  24   5  -6    0.43    0.52
  24   5  -6    0.14    0.50
  24  -5   6    1.96    0.75
  24  -5  -6    0.67    0.58
  24   5   6    0.30    0.65
  24  -6   6    3.53    0.93
  24   6  -6    2.50    0.79
  24  -6  -6    2.98    0.86
  24   6   6    4.38    1.02
  24   7  -6    2.66    0.81
  24  -7   6    3.30    0.93
  24   7   6    3.46    0.99
  24  -7  -6    4.65    0.96
  24   0  -7    0.61    0.51
  24   0   7   -0.09    0.48
  24  -1   7    5.43    1.04
  24   1  -7    3.43    0.77
  24  -1  -7    2.72    0.73
  24   1   7    3.87    0.90
  24   2  -7    6.15    0.95
  24  -2   7    4.73    0.93
  24  -2  -7    5.95    1.04
  24   2   7    4.83    1.04
  24   3  -7    0.48    0.53
  24  -3   7    0.95    0.68
  24  -3  -7    0.29    0.52
  24   3   7   -0.12    0.54
  24  -4   7    3.41    0.87
  24   4  -7    2.10    0.72
  24   4   7    4.48    1.01
  24  -4  -7    3.59    0.83
  24   5  -7    6.35    1.01
  24  -5   7    4.21    0.93
  24  -5  -7    6.15    1.08
  24   5   7    7.19    1.26
  24  -6   7    0.05    0.61
  24   6   7    0.66    0.71
  24  -6  -7   -0.32    0.54
  24   0   8    9.77    1.29
  24   0  -8    8.81    1.20
  24  -1   8    6.63    1.18
  24   1  -8    7.97    1.15
  24  -1  -8    7.44    1.10
  24   1   8    6.80    1.19
  24  -2   8    2.07    0.78
  24   2  -8    1.08    0.56
  24  -2  -8    0.66    0.63
  24   2   8    0.32    0.60
  24   3  -8   10.55    1.27
  24  -3   8    7.76    1.18
  24   3   8    6.86    1.17
  24  -3  -8    8.72    1.15
  24   4  -8    2.07    0.71
  24  -4   8    3.12    0.92
  24  -4  -8    3.82    0.89
  24   4   8    2.46    0.88
  24  -5   8   -0.33    0.61
  24   5  -8    0.48    0.52
  24   5   8    0.52    0.75
  24  -5  -8    0.11    0.60
  24  -6   8    3.90    1.03
  24   6   8    3.81    1.06
  24  -6  -8    3.42    0.89
  24   0  -9    0.19    0.54
  24   0   9    1.04    0.67
  24  -1   9    2.93    0.96
  24   1  -9    3.18    0.83
  24  -1  -9    2.41    0.79
  24   1   9    3.10    0.92
  24   2  -9    4.36    0.89
  24  -2   9    4.48    0.94
  24  -2  -9    5.43    1.03
  24   2   9    5.62    1.14
  24  -3   9    0.07    0.60
  24   3  -9   -0.57    0.48
  24  -3  -9   -0.25    0.46
  24   3   9    0.22    0.68
  24   4  -9    2.81    0.77
  24  -4   9    3.27    0.92
  24   4   9    2.94    1.00
  24  -4  -9    2.17    0.78
  24   5  -9    3.92    0.91
  24  -5   9    4.37    1.07
  24   5   9    1.68    0.94
  24  -5  -9    4.48    0.95
  24   0  10    9.77    1.39
  24   0 -10    7.56    1.18
  24   1 -10    1.93    0.71
  24  -1  10    2.68    0.88
  24   1  10    1.35    0.81
  24  -1 -10    1.87    0.72
  24   2 -10    0.19    0.51
  24  -2  10    0.69    0.68
  24  -2 -10    1.06    0.63
  24   2  10    0.55    0.74
  24   3 -10    4.93    0.99
  24  -3  10    5.01    1.11
  24   3  10    3.60    1.05
  24  -3 -10    2.77    0.83
  24  -4  10    1.48    0.83
  24   4 -10    1.30    0.65
  24   4  10    1.37    0.87
  24  -4 -10    1.00    0.68
  24  -5  10    0.71    0.71
  24   5 -10   -0.50    0.53
  24   5  10   -0.09    0.77
  24  -5 -10    0.36    0.58
  24   0 -11    0.13    0.58
  24   0  11    0.38    0.63
  24   1 -11    5.02    0.97
  24  -1  11    5.32    1.13
  24   1  11    2.47    0.93
  24  -1 -11    5.86    1.09
  24   2 -11    1.17    0.64
  24  -2  11    2.15    0.85
  24   2  11    1.02    0.78
  24  -2 -11    3.01    0.81
  24  -3  11    0.36    0.72
  24   3 -11   -0.10    0.59
  24  -3 -11   -0.42    0.51
  24   3  11   -0.23    0.70
  24   4 -11    0.46    0.62
  24  -4  11    1.00    0.80
  24   4  11    0.30    0.80
  24  -4 -11    0.19    0.68
  24   0 -12    8.55    1.31
  24   0  12    8.06    1.34
  24   1 -12    1.68    0.78
  24  -1  12   -0.05    0.69
  24   1  12    1.50    0.87
  24  -1 -12    1.38    0.75
  24   2 -12    1.59    0.84
  24  -2  12    2.57    0.91
  24  -2 -12    2.78    0.91
  24   2  12    1.68    0.93
  24   3 -12    1.14    0.73
  24  -3  12    1.35    0.79
  24   3  12    2.02    0.91
  24  -3 -12    4.05    1.01
  24   0 -13   -0.28    0.63
  24   0  13   -0.11    0.64
  24   1 -13    2.15    0.81
  24  -1 -13    0.85    0.80
  25   0   0    0.07    0.46
  25   0   0    0.25    0.37
  25  -1   0    6.34    0.91
  25   1   0    4.00    0.72
  25  -1   0    3.55    0.71
  25   1   0    3.23    0.70
  25   2   0   10.10    1.06
  25  -2   0    7.29    0.97
  25   2   0    6.33    0.93
  25  -2   0    8.70    1.10
  25  -3   0   -0.42    0.43
  25  -3   0    0.11    0.43
  25   3   0   -0.07    0.43
  25  -4   0    3.39    0.78
  25  -4   0    3.30    0.76
  25   4   0    2.99    0.72
  25  -5   0    8.98    1.11
  25   5   0    8.12    1.11
  25   6   0    1.83    0.70
  25  -6   0    2.12    0.69
  25  -7   0    1.83    0.71
  25   7   0    2.22    0.82
  25   0  -1   12.73    1.24
  25   0  -1   14.49    1.13
  25   0   1   11.32    1.20
  25   0   1   12.45    1.22
  25  -1   1    2.96    0.68
  25   1  -1    3.34    0.68
  25  -1   1    3.13    0.73
  25   1  -1    2.61    0.64
  25   1   1    1.75    0.59
  25  -1  -1    2.22    0.66
  25   1   1    3.71    0.71
  25  -1  -1    4.48    0.75
  25   2  -1    4.94    0.79
  25  -2   1    3.55    0.75
  25   2  -1    3.86    0.74
  25  -2   1    5.21    0.90
  25  -2  -1    4.23    0.78
  25   2   1    5.73    0.92
  25  -2  -1    4.61    0.77
  25   2   1    3.19    0.64
  25   3  -1   10.14    1.10
  25  -3   1   11.47    1.24
  25   3  -1    9.15    1.10
  25   3   1    9.36    1.15
  25  -3  -1   12.82    1.31
  25  -3  -1   11.94    1.18
  25   4  -1    0.84    0.59
  25  -4   1    0.49    0.54
  25  -4  -1    1.11    0.52
  25  -4  -1    1.24    0.65
  25   4   1    1.64    0.63
  25   5  -1    0.54    0.54
  25  -5   1   -0.03    0.46
  25   5   1    0.08    0.51
  25  -5  -1    0.07    0.47
  25  -5  -1    0.04    0.48
  25  -6   1    2.92    0.80
  25   6  -1    1.77    0.68
  25  -6  -1    2.80    0.76
  25  -6  -1    2.60    0.73
  25   6   1    1.94    0.74
  25   7  -1    3.88    0.91
  25  -7   1    6.78    1.10
  25   7   1    4.94    1.08
  25  -7  -1    4.83    0.95
  25  -7  -1    5.09    1.00
  25   0   2    0.40    0.44
  25   0   2   -0.04    0.45
  25   0  -2    0.55    0.42
  25   0  -2    0.81    0.46
  25   1  -2    5.52    0.82
  25  -1   2    6.95    0.99
  25   1  -2    6.10    0.90
  25  -1   2    7.66    1.04
  25  -1  -2    9.06    1.14
  25  -1  -2    6.43    0.87
  25   1   2    7.11    0.92
  25   1   2    6.15    0.91
  25   2  -2    9.77    1.05
  25  -2   2    8.52    1.10
  25   2  -2    9.69    1.07
  25  -2  -2    9.39    1.04
  25   2   2    8.25    1.05
  25  -2  -2    9.35    1.10
  25  -3   2    0.24    0.43
  25   3  -2    1.42    0.52
  25   3  -2    1.25    0.57
  25  -3  -2    0.15    0.45
  25   3   2    0.65    0.55
  25  -3  -2    0.74    0.60
  25   4  -2    4.57    0.86
  25  -4   2    4.18    0.85
  25  -4  -2    4.79    0.76
  25   4   2    1.84    0.70
  25  -4  -2    5.39    0.89
  25  -5   2    8.54    1.16
  25   5  -2    6.44    1.02
  25  -5  -2    5.99    0.90
  25   5   2    8.95    1.22
  25  -5  -2    6.78    1.05
  25  -6   2    1.11    0.65
  25   6  -2    0.89    0.57
  25  -6  -2    2.48    0.74
  25   6   2    1.48    0.70
  25  -7   2    1.33    0.71
  25   7  -2    1.60    0.74
  25   7   2    2.83    0.85
  25  -7  -2    2.59    0.80
  25   0   3   13.18    1.24
  25   0  -3   13.21    1.05
  25   0  -3   12.61    1.27
  25   0   3   11.13    1.27
  25   1  -3    3.66    0.69
  25  -1   3    3.10    0.76
  25   1  -3    2.45    0.67
  25   1   3    2.30    0.65
  25  -1  -3    1.02    0.58
  25  -1  -3    2.03    0.56
  25   1   3    2.73    0.61
  25   2  -3    3.81    0.70
  25   2  -3    2.09    0.61
  25  -2   3    3.89    0.84
  25  -2  -3    3.80    0.80
  25  -2  -3    2.87    0.62
  25   2   3    3.46    0.80
  25   3  -3    7.16    0.94
  25   3  -3    7.98    0.99
  25  -3   3   10.35    1.23
  25   3   3    7.16    1.06
  25  -3  -3    8.38    0.96
  25  -3  -3    8.54    1.12
  25  -4   3    2.80    0.75
  25   4  -3    3.48    0.74
  25   4  -3    2.62    0.68
  25   4   3    3.82    0.89
  25  -4  -3    4.33    0.85
  25  -5   3    0.01    0.59
  25   5  -3    0.73    0.52
  25   5   3   -0.15    0.57
  25  -5  -3    0.65    0.54
  25  -6   3    2.81    0.77
  25   6  -3    3.92    0.89
  25   6   3    3.16    0.86
  25  -6  -3    3.78    0.89
  25  -7   3    4.01    0.94
  25   7  -3    2.75    0.83
  25   7   3    3.52    1.01
  25  -7  -3    1.92    0.76
  25   0  -4    0.26    0.38
  25   0   4    0.89    0.52
  25   0  -4   -0.59    0.43
  25   1  -4    2.13    0.61
  25   1  -4    2.34    0.58
  25  -1   4    1.95    0.64
  25  -1  -4    3.50    0.74
  25  -1  -4    2.75    0.60
  25   1   4    2.95    0.64
  25   1   4    2.79    0.73
  25   2  -4    7.05    0.89
  25   2  -4    9.83    1.15
  25  -2   4    7.15    1.04
  25  -2  -4    7.07    1.04
  25   2   4    6.50    1.06
  25   3  -4    0.88    0.51
  25  -3   4    0.64    0.59
  25   3  -4    0.65    0.53
  25   3   4    0.57    0.55
  25  -3  -4    1.38    0.61
  25   4  -4    5.21    0.88
  25  -4   4    5.23    0.97
  25   4  -4    5.42    0.87
  25   4   4    4.79    0.99
  25  -4  -4    4.13    0.88
  25  -5   4    6.26    1.04
  25   5  -4    8.61    1.13
  25  -5  -4    9.25    1.17
  25   5   4    6.83    1.14
  25  -6   4    0.38    0.64
  25   6  -4    1.08    0.64
  25  -6  -4    0.04    0.56
  25   6   4    1.33    0.71
  25  -7   4    2.44    0.81
  25   7  -4    0.73    0.65
  25  -7  -4    3.33    0.86
  25   7   4    2.53    0.97
  25   0  -5    7.08    1.01
  25   0   5    9.32    1.20
  25   1  -5    3.52    0.82
  25  -1   5    4.29    0.87
  25   1   5    4.22    0.74
  25  -1  -5    2.48    0.70
  25   1   5    3.06    0.83
  25   2  -5    1.16    0.51
  25   2  -5    1.50    0.58
  25  -2   5    1.42    0.67
  25  -2  -5    2.26    0.70
  25   2   5    0.92    0.61
  25   3  -5    9.66    1.14
  25  -3   5    7.73    1.12
  25   3  -5   10.34    1.09
  25  -3  -5   10.55    1.22
  25   3   5   11.86    1.39
  25   4  -5    2.52    0.72
  25  -4   5    2.12    0.70
  25   4  -5    1.01    0.56
  25   4   5    2.03    0.81
  25  -4  -5    1.16    0.66
  25   5  -5    0.93    0.55
  25  -5   5    0.36    0.51
  25  -5  -5   -0.08    0.49
  25   5   5    1.28    0.72
  25  -6   5    3.20    0.91
  25   6  -5    2.29    0.75
  25   6   5    2.77    0.88
  25  -6  -5    3.97    0.86
  25   0   6    0.26    0.50
  25   0  -6    0.28    0.48
  25   1  -6    2.42    0.68
  25  -1   6    2.85    0.80
  25  -1  -6    2.80    0.76
  25   1   6    4.26    0.97
  25  -2   6    7.32    1.10
  25   2  -6    5.09    0.88
  25   2   6    7.45    1.16
  25  -2  -6    5.35    0.98
  25  -3   6    0.77    0.67
  25   3  -6    0.26    0.47
  25  -3  -6    0.56    0.51
  25   3   6    0.53    0.57
  25  -4   6    2.79    0.81
  25   4  -6    3.79    0.80
  25  -4  -6    4.49    0.94
  25   4   6    3.20    0.90
  25  -5   6    4.44    0.95
  25   5  -6    6.55    1.05
  25   5  -6    5.41    0.94
  25   5   6    4.35    1.01
  25  -5  -6    6.98    1.11
  25   6  -6    0.15    0.60
  25  -6   6   -0.10    0.55
  25  -6  -6    0.14    0.60
  25   6   6    1.22    0.81
  25   0   7    8.43    1.22
  25   0  -7    8.99    1.21
  25   1  -7    3.96    0.91
  25  -1   7    2.57    0.77
  25  -1  -7    4.59    0.92
  25   1   7    3.27    0.86
  25   2  -7    0.13    0.45
  25  -2   7    1.10    0.62
  25  -2  -7    0.97    0.63
  25   2   7    1.99    0.74
  25  -3   7    7.49    1.21
  25   3  -7    9.53    1.22
  25  -3  -7    7.60    1.08
  25   3   7    5.92    1.11
  25   4  -7    4.95    0.90
  25  -4   7    3.67    0.93
  25  -4  -7    2.47    0.82
  25   4   7    2.16    0.84
  25   5  -7    0.56    0.55
  25  -5   7   -0.66    0.59
  25   5   7    1.90    0.84
  25  -5  -7    0.22    0.58
  25  -6   7    4.24    1.06
  25  -6  -7    4.30    1.00
  25   6   7    3.92    1.11
  25   0  -8    0.26    0.52
  25   0   8    0.19    0.59
  25  -1   8    3.22    0.88
  25   1  -8    3.20    0.82
  25  -1  -8    3.40    0.85
  25   1   8    2.65    0.93
  25  -2   8    8.16    1.18
  25   2  -8    4.01    0.84
  25   2   8    5.79    1.16
  25  -2  -8    5.74    1.00
  25   3  -8   -0.17    0.53
  25  -3   8    0.75    0.63
  25   3   8    0.66    0.63
  25  -3  -8    0.67    0.60
  25  -4   8    3.58    0.98
  25   4  -8    1.39    0.68
  25   4   8    3.56    0.97
  25  -4  -8    2.73    0.83
  25  -5   8    2.54    0.84
  25   5  -8    5.26    1.00
  25  -5  -8    4.34    0.98
  25   5   8    3.55    0.98
  25   0   9    9.11    1.31
  25   0  -9    8.98    1.25
  25  -1   9    0.97    0.71
  25   1  -9    0.85    0.57
  25   1   9    2.62    0.86
  25  -1  -9    1.15    0.67
  25  -2   9    0.00    0.60
  25   2  -9   -0.21    0.47
  25  -2  -9    0.87    0.62
  25   2   9    1.15    0.70
  25   3  -9    4.42    0.92
  25  -3   9    5.29    1.13
  25  -3  -9    6.24    1.07
  25   3   9    5.85    1.20
  25  -4   9    2.23    0.88
  25   4  -9    0.41    0.65
  25  -4  -9    0.81    0.63
  25   4   9    1.77    0.92
  25   5  -9    0.53    0.58
  25  -5   9    0.20    0.65
  25   5   9   -0.26    0.75
  25  -5  -9   -0.61    0.59
  25   0  10    0.35    0.74
  25   0 -10    0.33    0.62
  25  -1  10    2.65    0.97
  25   1 -10    3.88    0.92
  25  -1 -10    3.76    0.96
  25   1  10    4.87    1.23
  25  -2  10    1.76    0.78
  25   2 -10    1.28    0.69
  25  -2 -10    2.41    0.91
  25   2  10    1.16    0.76
  25   3 -10   -0.13    0.59
  25  -3  10    1.48    0.80
  25  -3 -10   -0.13    0.61
  25   3  10    1.53    0.89
  25   4 -10    1.60    0.74
  25  -4  10    1.74    0.86
  25  -4 -10    1.41    0.70
  25   4  10   -0.86    0.70
  25   0  11    9.53    1.41
  25   0 -11   10.92    1.41
  25  -1  11    2.76    0.92
  25   1 -11    1.31    0.72
  25  -1 -11    0.61    0.73
  25   1  11    0.22    0.75
  25   2 -11    3.05    0.94
  25  -2  11    3.37    0.96
  25   2  11    3.53    1.00
  25  -2 -11    2.24    0.83
  25  -3  11    2.03    0.94
  25   3 -11    0.70    0.64
  25   3  11    3.41    1.06
  25  -3 -11    2.23    0.81
  25   0  12    0.76    0.80
  25   0 -12   -0.19    0.58
  25  -1  12    2.41    0.93
  25   1 -12    2.93    0.88
  25   1  12    3.10    1.07
  25  -1 -12    3.56    0.94
  26   0   0   25.44    1.58
  26   0   0   25.01    1.62
  26  -1   0    1.09    0.54
  26   1   0    0.38    0.49
  26  -1   0    0.35    0.45
  26   1   0   -0.12    0.40
  26  -2   0    4.27    0.84
  26   2   0    3.46    0.73
  26  -2   0    3.58    0.76
  26   2   0    3.91    0.70
  26   3   0    9.14    1.17
  26  -3   0   11.01    1.20
  26  -3   0   12.46    1.36
  26  -4   0    1.38    0.61
  26   4   0    2.47    0.75
  26  -4   0    2.58    0.71
  26   5   0    0.16    0.50
  26  -5   0    0.13    0.48
  26  -5   0    0.23    0.53
  26  -6   0    1.67    0.72
  26   6   0    3.50    0.92
  26   0   1    0.17    0.45
  26   0   1    0.43    0.52
  26   0  -1    0.25    0.44
  26   0  -1    0.29    0.46
  26   1  -1    5.53    0.89
  26   1  -1    6.25    0.88
  26  -1   1    3.77    0.75
  26  -1   1    4.36    0.81
  26  -1  -1    5.80    0.95
  26   1   1    3.36    0.74
  26  -1  -1    3.90    0.74
  26   1   1    5.77    0.91
  26  -2   1    8.39    1.09
  26   2  -1    7.40    1.02
  26  -2   1   10.13    1.20
  26   2  -1    9.64    1.10
  26  -2  -1    9.98    1.19
  26  -2  -1    6.17    0.90
  26   2   1    8.03    1.05
  26   2   1    7.61    0.98
  26   3  -1    0.38    0.44
  26   3  -1   -0.12    0.39
  26  -3   1    0.14    0.40
  26  -3   1   -0.01    0.44
  26  -3  -1    0.18    0.42
  26  -3  -1    0.12    0.46
  26   3   1    1.09    0.60
  26   4  -1    1.92    0.62
  26  -4   1    3.48    0.78
  26  -4  -1    2.09    0.66
  26  -4  -1    3.51    0.86
  26   4   1    3.03    0.81
  26  -5   1    7.34    1.10
  26   5  -1    5.91    0.98
  26  -5  -1    6.42    1.01
  26   5   1    4.51    0.94
  26  -5  -1    8.08    1.09
  26   6  -1    1.25    0.64
  26  -6   1    1.42    0.66
  26   6   1    0.76    0.65
  26  -6  -1    0.95    0.69
  26  -6  -1    1.40    0.62
  26   0  -2    3.09    0.78
  26   0  -2    2.54    0.65
  26   0   2    2.88    0.73
  26   0   2    3.61    0.75
  26   1  -2    3.25    0.71
  26   1  -2    3.56    0.70
  26  -1   2    2.27    0.67
  26  -1   2    3.20    0.73
  26   1   2    3.22    0.68
  26   1   2    3.19    0.74
  26  -1  -2    3.79    0.78
  26  -1  -2    3.68    0.72
  26   2  -2    2.00    0.62
  26   2  -2    2.17    0.62
  26  -2   2    1.67    0.67
  26  -2   2    2.73    0.67
  26  -2  -2    2.18    0.66
  26   2   2    2.21    0.60
  26   2   2    2.40    0.70
  26  -2  -2    1.94    0.58
  26   3  -2    7.81    1.03
  26   3  -2    7.30    1.01
  26  -3   2    6.95    1.01
  26  -3  -2    6.08    1.03
  26  -3  -2    8.34    1.01
  26   3   2    8.92    1.19
  26   4  -2    3.08    0.75
  26  -4   2    2.66    0.74
  26  -4  -2    2.58    0.69
  26   4   2    2.41    0.77
  26  -4  -2    2.36    0.68
  26   5  -2    0.42    0.54
  26  -5   2    0.30    0.52
  26   5   2    0.08    0.57
  26  -5  -2    0.39    0.58
  26   6  -2    2.36    0.78
  26  -6   2    4.31    0.97
  26  -6  -2    3.42    0.80
  26   6   2    3.92    0.93
  26   0   3   -0.24    0.40
  26   0  -3    0.43    0.47
  26   0  -3    0.60    0.43
  26   0   3   -0.09    0.48
  26   1  -3    3.85    0.71
  26  -1   3    4.29    0.82
  26   1  -3    4.12    0.82
  26   1   3    4.01    0.73
  26   1   3    3.47    0.82
  26  -1  -3    3.72    0.70
  26  -1  -3    2.93    0.74
  26   2  -3    4.89    0.81
  26   2  -3    5.17    0.84
  26  -2   3    7.95    1.13
  26   2   3    5.45    0.92
  26  -2  -3    5.13    0.80
  26  -2  -3    8.06    1.12
  26   3  -3    1.38    0.60
  26  -3   3    1.60    0.60
  26   3  -3    1.24    0.58
  26   3   3    1.63    0.66
  26  -3  -3    1.06    0.58
  26   4  -3    6.30    1.00
  26  -4   3    4.46    0.96
  26   4  -3    5.32    0.92
  26   4   3    4.36    0.96
  26  -4  -3    7.60    1.13
  26   5  -3    6.49    1.03
  26  -5   3    7.73    1.16
  26  -5  -3    7.14    1.10
  26   5   3    7.18    1.17
  26   6  -3    0.97    0.60
  26  -6   3    0.18    0.55
  26   6   3    1.27    0.74
  26  -6  -3    0.97    0.68
  26   0  -4   10.65    1.26
  26   0   4    8.43    1.13
  26   0   4   10.92    1.14
  26   1  -4    1.16    0.57
  26  -1   4    2.52    0.75
  26   1  -4    1.65    0.54
  26   1   4    1.26    0.61
  26   1   4    2.12    0.62
  26  -1  -4    2.95    0.77
  26   2  -4    1.21    0.59
  26   2  -4    1.77    0.55
  26  -2   4    1.54    0.70
  26   2   4    0.76    0.57
  26  -2  -4    0.90    0.57
  26   3  -4   12.72    1.31
  26   3  -4    9.06    1.08
  26  -3   4    8.73    1.17
  26  -3  -4    7.94    1.10
  26   3   4   10.29    1.32
  26  -4   4    1.01    0.59
  26   4  -4    1.47    0.62
  26   4  -4    0.71    0.54
  26  -4  -4    2.88    0.83
  26   4   4    0.64    0.60
  26   5  -4    0.22    0.54
  26  -5   4    0.30    0.53
  26   5   4    0.35    0.62
  26  -5  -4    1.19    0.68
  26  -6   4    3.13    0.87
  26   6  -4    5.33    1.03
  26   6   4    3.16    0.97
  26  -6  -4    3.24    0.87
  26   0  -5   -0.69    0.36
  26   0   5    0.18    0.48
  26   1  -5    3.73    0.85
  26  -1   5    2.20    0.77
  26  -1  -5    2.38    0.71
  26   1   5    2.11    0.75
  26   1   5    2.48    0.65
  26  -2   5    6.97    1.13
  26   2  -5    5.42    0.94
  26   2   5    6.05    1.11
  26  -2  -5    8.06    1.08
  26  -3   5    1.49    0.72
  26   3  -5    0.41    0.47
  26   3  -5    0.39    0.49
  26  -3  -5   -0.16    0.51
  26   3   5    0.17    0.61
  26  -4   5    4.00    0.94
  26   4  -5    2.52    0.74
  26   4  -5    2.52    0.70
  26   4   5    3.38    0.96
  26  -4  -5    2.41    0.76
  26   5  -5    6.21    1.00
  26  -5   5    6.30    1.13
  26   5   5    8.08    1.28
  26  -5  -5    5.79    1.11
  26  -6   5   -0.24    0.62
  26   6  -5   -0.25    0.58
  26   6   5   -0.18    0.68
  26  -6  -5   -0.09    0.61
  26   0   6    6.20    1.05
  26   0  -6    6.76    1.08
  26   1  -6    3.16    0.83
  26  -1   6    4.19    0.96
  26  -1  -6    2.21    0.73
  26   1   6    3.74    0.94
  26  -2   6    1.77    0.72
  26   2  -6    1.18    0.61
  26   2   6    2.69    0.78
  26  -2  -6    2.18    0.74
  26   3  -6    6.00    0.98
  26  -3   6    5.51    1.04
  26  -3  -6    5.29    0.95
  26   3   6    5.93    1.09
  26  -4   6    2.74    0.87
  26   4  -6    3.72    0.85
  26   4   6    2.88    0.87
  26  -4  -6    3.38    0.85
  26  -5   6    0.78    0.68
  26  -5  -6    1.38    0.71
  26   5   6    0.03    0.68
  26   0  -7    0.07    0.48
  26   0   7    0.39    0.61
  26  -1   7    3.05    0.87
  26   1  -7    3.10    0.80
  26  -1  -7    2.12    0.78
  26   1   7    4.04    1.00
  26  -2   7    4.48    0.98
  26   2  -7    6.87    1.09
  26  -2  -7    6.42    1.06
  26   2   7    5.26    1.10
  26   3  -7    2.03    0.72
  26  -3   7    1.00    0.66
  26  -3  -7    0.53    0.57
  26   3   7    0.99    0.68
  26  -4   7    3.09    0.94
  26   4  -7    3.48    0.80
  26   4   7    2.29    0.87
  26  -4  -7    4.17    0.96
  26   5  -7    2.11    0.78
  26  -5   7    3.74    0.96
  26  -5  -7    4.22    0.93
  26   5   7    3.80    1.06
  26   0  -8    7.90    1.22
  26   0   8    7.56    1.21
  26   1  -8    2.18    0.72
  26  -1   8    1.58    0.81
  26   1   8    1.68    0.83
  26  -1  -8    0.84    0.68
  26   2  -8    1.07    0.64
  26  -2   8    0.56    0.63
  26  -2  -8    0.12    0.57
  26   2   8    0.86    0.73
  26   3  -8    4.88    0.97
  26  -3   8    5.46    1.07
  26  -3  -8    5.57    1.08
  26   3   8    4.28    1.09
  26   4  -8    1.07    0.67
  26  -4   8    1.54    0.76
  26   4   8    2.13    0.88
  26  -4  -8    1.84    0.72
  26   0   9   -0.05    0.58
  26   0  -9    0.02    0.56
  26   1  -9    1.19    0.64
  26  -1   9    3.38    0.96
  26  -1  -9    3.19    0.86
  26   1   9    2.89    0.93
  26   2  -9    2.08    0.74
  26  -2   9    2.83    0.91
  26   2   9    4.42    1.13
  26  -2  -9    2.94    0.91
  26  -3   9    0.75    0.71
  26   3  -9   -0.24    0.52
  26   3   9    0.37    0.64
  26  -3  -9   -0.09    0.63
  26  -4   9    2.17    0.92
  26   4  -9    0.79    0.71
  26  -4  -9    0.78    0.68
  26   0 -10    8.67    1.26
  26   0  10   10.52    1.50
  26   1 -10    1.06    0.66
  26  -1  10    2.53    0.87
  26  -1 -10    2.54    0.90
  26   1  10    3.09    1.03
  26  -2  10    1.52    0.74
  26   2 -10    2.23    0.82
  26  -2 -10    1.09    0.72
  26   2  10    1.39    0.87
  26   3 -10    4.12    0.97
  26  -3 -10    3.21    0.89
  26   0 -11    0.04    0.59
  26   0  11   -0.03    0.58
  26   1 -11    2.72    0.88
  26  -1 -11    2.73    0.87
  27   0   0   -0.28    0.45
  27   0   0   -0.13    0.49
  27   1   0    9.27    1.08
  27  -1   0    9.05    1.13
  27   1   0    8.23    1.08
  27  -1   0    9.72    1.17
  27  -2   0    3.77    0.79
  27  -2   0    3.23    0.76
  27   2   0    4.88    0.82
  27   2   0    5.27    0.93
  27  -3   0   -0.36    0.43
  27   3   0   -0.16    0.44
  27  -3   0    0.47    0.52
  27  -4   0    2.11    0.75
  27   4   0    2.25    0.69
  27  -4   0    2.45    0.69
  27   5   0    8.48    1.27
  27  -5   0    7.15    1.13
  27  -5   0    6.54    1.05
  27  -6   0    1.42    0.69
  27  -6   0    1.62    0.73
  27   6   0    2.49    0.78
  27   0   1   10.66    1.19
  27   0  -1   11.33    1.24
  27   0   1    9.44    1.15
  27   0  -1    8.23    1.06
  27   1  -1    2.51    0.68
  27  -1   1    1.69    0.63
  27  -1   1    1.85    0.64
  27   1  -1    2.22    0.64
  27   1   1    1.76    0.66
  27  -1  -1    2.76    0.70
  27  -1  -1    1.27    0.64
  27   1   1    1.57    0.62
  27   2  -1    1.72    0.58
  27  -2   1    1.04    0.62
  27   2  -1    1.67    0.58
  27  -2   1    1.44    0.66
  27   2   1    1.95    0.59
  27  -2  -1    3.75    0.87
  27  -2  -1    3.04    0.71
  27   2   1    1.81    0.67
  27   3  -1    5.06    0.87
  27  -3   1    5.61    0.95
  27  -3   1    5.63    0.96
  27   3  -1    5.29    0.86
  27  -3  -1    6.43    0.96
  27  -3  -1    5.33    0.94
  27   3   1    5.56    0.96
  27  -4   1    2.54    0.80
  27  -4   1    2.13    0.69
  27   4  -1    2.99    0.78
  27  -4  -1    2.39    0.74
  27  -4  -1    2.64    0.69
  27   4   1    2.85    0.79
  27  -5   1   -0.23    0.54
  27   5  -1    1.03    0.60
  27   5   1   -0.19    0.54
  27  -5  -1    0.08    0.59
  27  -5  -1   -0.64    0.46
  27   6  -1    2.19    0.85
  27  -6   1    4.05    0.89
  27   6   1    3.15    0.86
  27  -6  -1    3.30    0.87
  27   0   2   -0.03    0.38
  27   0  -2   -0.52    0.40
  27   0   2   -0.76    0.35
  27   0  -2   -0.28    0.39
  27   1  -2    1.89    0.62
  27  -1   2    2.35    0.71
  27  -1   2    0.72    0.58
  27   1  -2    1.88    0.66
  27  -1  -2    1.71    0.65
  27   1   2    1.57    0.61
  27  -1  -2    2.04    0.61
  27   1   2    1.48    0.63
  27  -2   2    6.86    1.03
  27  -2   2    6.88    1.01
  27   2  -2    4.91    0.82
  27   2  -2    5.74    0.90
  27  -2  -2    7.28    1.07
  27  -2  -2    5.75    0.87
  27   2   2    6.33    0.91
  27   2   2    6.50    1.06
  27   3  -2    0.75    0.49
  27   3  -2    0.68    0.51
  27  -3   2    0.02    0.47
  27   3   2    0.05    0.56
  27  -3  -2    0.98    0.62
  27  -3  -2    0.32    0.48
  27   4  -2    3.56    0.84
  27  -4   2    3.04    0.83
  27  -4  -2    3.42    0.82
  27   4   2    4.10    0.91
  27   5  -2    7.66    1.09
  27  -5   2    8.28    1.16
  27   5   2    4.97    0.96
  27  -5  -2    7.21    1.13
  27  -6  -2    0.99    0.63
  27   0   3    4.23    0.86
  27   0  -3    7.65    1.10
  27   0  -3    4.83    0.78
  27   0   3    5.47    0.87
  27  -1   3    2.08    0.69
  27   1  -3    2.39    0.72
  27  -1   3    2.55    0.72
  27   1  -3    2.02    0.61
  27   1   3    3.34    0.72
  27  -1  -3    2.09    0.72
  27  -1  -3    2.65    0.63
  27   1   3    2.42    0.74
  27  -2   3    1.60    0.70
  27   2  -3    0.61    0.49
  27   2  -3    0.50    0.49
  27  -2  -3    0.87    0.56
  27   2   3    0.47    0.56
  27  -3   3    5.94    1.00
  27   3  -3    8.39    1.11
  27   3  -3    9.17    1.12
  27   3   3    9.11    1.25
  27  -3  -3    8.18    1.13
  27  -4   3    1.92    0.72
  27   4  -3    2.05    0.66
  27   4   3    2.64    0.80
  27  -4  -3    3.39    0.89
  27  -5   3    0.82    0.67
  27   5  -3    0.10    0.57
  27   5   3    1.27    0.74
  27  -5  -3    0.71    0.61
  27   0   4    0.38    0.49
  27   0   4   -0.22    0.53
  27   0  -4    0.13    0.45
  27   1  -4    4.46    0.87
  27  -1   4    4.02    0.90
  27  -1  -4    5.35    0.89
  27   1   4    4.49    0.91
  27   1   4    3.91    0.77
  27   2  -4    4.85    0.82
  27   2  -4    5.44    0.90
  27  -2   4    3.71    0.91
  27  -2  -4    4.44    0.93
  27   2   4    5.15    1.02
  27   3  -4    0.41    0.52
  27  -3   4    1.36    0.63
  27   3  -4    0.56    0.52
  27  -3  -4    0.86    0.65
  27   3   4    0.32    0.56
  27  -4   4    3.34    0.94
  27   4  -4    4.31    0.87
  27   4  -4    4.22    0.85
  27  -4  -4    3.28    0.86
  27   4   4    3.21    0.88
  27   5  -4    7.17    1.12
  27  -5   4    4.66    1.00
  27  -5  -4    7.98    1.18
  27   5   4    6.10    1.23
  27   0  -5    9.02    1.18
  27   0   5    7.76    1.14
  27   1  -5    0.68    0.58
  27  -1   5    1.48    0.68
  27   1   5    1.99    0.62
  27  -1  -5    1.35    0.75
  27   1   5    1.69    0.79
  27   2  -5    2.21    0.70
  27  -2   5    0.79    0.68
  27   2   5    0.65    0.61
  27  -2  -5    2.11    0.69
  27   3  -5    4.35    0.92
  27  -3   5    5.39    1.03
  27   3   5    3.57    0.92
  27  -3  -5    4.92    0.95
  27  -4   5    2.83    0.82
  27   4  -5    0.88    0.60
  27  -4  -5    2.31    0.81
  27   4   5    4.45    0.97
  27  -5   5    0.42    0.61
  27   5  -5    0.19    0.54
  27  -5  -5    0.57    0.59
  27   5   5    0.19    0.72
  27   0  -6   -0.17    0.55
  27   0   6    0.00    0.54
  27  -1   6    3.30    0.91
  27   1  -6    1.66    0.76
  27   1   6    2.37    0.86
  27  -1  -6    3.28    0.87
  27   2  -6    3.66    0.83
  27  -2   6    3.75    0.92
  27  -2  -6    5.54    1.05
  27   2   6    7.42    1.18
  27   3  -6    1.47    0.70
  27  -3   6    0.57    0.61
  27  -3  -6    1.38    0.74
  27   3   6    0.57    0.73
  27  -4   6    2.63    0.91
  27   4  -6    4.19    0.90
  27  -4  -6    3.18    0.83
  27   4   6    3.49    0.95
  27   0  -7    5.28    1.04
  27   0   7    5.05    1.08
  27   1  -7    1.41    0.71
  27  -1   7    1.61    0.73
  27  -1  -7    0.76    0.63
  27   1   7    1.87    0.85
  27  -2   7    0.48    0.72
  27   2  -7    0.89    0.65
  27  -2  -7    0.14    0.57
  27   2   7   -0.39    0.53
  27  -3   7    5.52    1.08
  27   3  -7    5.55    1.01
  27   3   7    4.54    1.06
  27  -3  -7    5.77    1.02
  27   4  -7    0.97    0.60
  27  -4   7   -0.03    0.74
  27   4   7    3.13    0.99
  27  -4  -7    0.45    0.71
  27   0  -8   -0.35    0.48
  27   0   8    0.86    0.71
  27  -1   8    2.89    0.92
  27   1  -8    3.51    0.92
  27   1   8    2.14    0.82
  27  -1  -8    3.84    0.98
  27   2  -8    1.94    0.76
  27  -2   8    3.29    0.99
  27   2   8    1.78    0.89
  27  -2  -8    2.25    0.85
  27  -3   8    0.23    0.62
  27   3  -8    0.20    0.60
  27  -3  -8    0.22    0.65
  27   3   8    0.13    0.73
  27   0  -9    6.75    1.14
  27   0   9    7.38    1.27
  27   1  -9    3.70    0.96
  27  -1   9    1.09    0.72
  27  -1  -9    0.02    0.68
  27   1   9    1.78    0.86
  27  -2   9    3.17    0.98
  27   2  -9    1.04    0.70
  27  -2  -9    0.97    0.71
  27   2   9    1.67    0.85
  28   0   0    8.52    1.14
  28   0   0    9.42    1.17
  28  -1   0    2.60    0.82
  28   1   0    1.99    0.63
  28   1   0    1.17    0.61
  28  -1   0    1.70    0.64
  28   2   0    2.19    0.65
  28  -2   0    0.97    0.58
  28   2   0    1.95    0.67
  28  -2   0    0.05    0.58
  28   3   0    5.32    0.98
  28  -3   0    3.31    0.83
  28  -3   0    2.39    0.72
  28   4   0    3.01    0.77
  28  -4   0    2.79    0.77
  28  -4   0    2.00    0.71
  28   5   0    0.26    0.60
  28  -5   0    0.80    0.63
  28  -5   0   -0.19    0.59
  28   0   1    0.16    0.50
  28   0  -1    0.53    0.48
  28   0  -1    0.17    0.53
  28   0   1   -0.24    0.46
  28   1  -1    5.57    0.90
  28  -1   1    4.43    0.88
  28   1  -1    4.40    0.85
  28  -1   1    3.82    0.84
  28   1   1    5.80    0.95
  28   1   1    2.83    0.72
  28  -1  -1    4.60    0.82
  28  -1  -1    6.15    1.01
  28  -2   1    4.50    0.88
  28   2  -1    3.79    0.79
  28  -2   1    2.84    0.79
  28   2  -1    3.26    0.76
  28  -2  -1    3.72    0.77
  28   2   1    3.53    0.78
  28  -2  -1    4.63    0.93
  28   2   1    3.32    0.71
  28  -3   1    0.03    0.56
  28  -3   1    0.11    0.54
  28   3  -1   -0.01    0.41
  28   3   1    0.64    0.62
  28  -3  -1    0.98    0.67
  28  -3  -1    1.37    0.61
  28  -4   1    1.98    0.76
  28   4  -1    2.95    0.79
  28  -4   1    1.53    0.70
  28  -4  -1    2.61    0.75
  28   4   1    5.27    1.05
  28  -4  -1    2.99    0.82
  28  -5   1    6.60    1.11
  28  -5   1    7.19    1.14
  28   5  -1    9.37    1.26
  28   5   1    8.66    1.28
  28  -5  -1    4.95    1.06
  28   0   2    6.10    0.94
  28   0  -2    6.43    1.02
  28   0   2    5.81    0.98
  28   0  -2    7.50    0.99
  28   1  -2    1.82    0.65
  28  -1   2    1.36    0.63
  28   1  -2    2.76    0.72
  28  -1   2    2.14    0.68
  28   1   2    1.01    0.62
  28  -1  -2    1.99    0.60
  28   1   2    2.83    0.78
  28  -1  -2    2.15    0.70
  28  -2   2    0.59    0.65
  28   2  -2    1.23    0.61
  28   2  -2    0.65    0.56
  28  -2   2    1.12    0.61
  28   2   2    0.70    0.61
  28  -2  -2    1.18    0.69
  28  -2  -2    0.80    0.51
  28  -3   2    6.71    1.08
  28   3  -2    6.23    1.00
  28  -3   2    6.84    1.07
  28   3  -2    5.25    0.90
  28   3   2    6.84    1.12
  28  -3  -2    7.01    1.12
  28   4  -2    2.71    0.78
  28  -4   2    3.30    0.81
  28  -4  -2    3.83    0.92
  28   4   2    3.83    0.97
  28   5  -2    1.04    0.67
  28  -5   2    0.30    0.62
  28  -5  -2    0.00    0.61
  28   5   2    1.59    0.77
  28   0   3    0.18    0.50
  28   0  -3   -0.03    0.40
  28   0   3    0.06    0.54
  28   0  -3   -0.16    0.47
  28  -1   3    0.74    0.59
  28  -1   3    0.97    0.63
  28   1  -3    1.58    0.61
  28   1  -3    0.34    0.46
  28   1   3    1.83    0.61
  28   1   3    1.83    0.71
  28  -1  -3    1.77    0.65
  28  -2   3    6.61    1.13
  28  -2   3    6.70    1.05
  28   2  -3    4.82    0.90
  28   2  -3    4.11    0.81
  28  -2  -3    7.17    1.08
  28   2   3    5.29    0.94
  28   3  -3    0.87    0.59
  28   3  -3    0.70    0.59
  28  -3   3    0.83    0.65
  28  -3  -3    1.77    0.70
  28   3   3    1.22    0.68
  28  -4   3    3.59    0.90
  28   4  -3    5.12    0.92
  28   4   3    4.30    0.93
  28  -4  -3    6.77    1.17
  28   0   4    7.11    1.17
  28   0  -4    7.23    1.13
  28   0   4    5.49    0.93
  28  -1   4    1.08    0.65
  28   1  -4    1.66    0.63
  28  -1   4    0.11    0.46
  28  -1  -4    0.59    0.64
  28   1   4    0.93    0.60
  28   1   4    1.35    0.58
  28  -2   4    0.74    0.63
  28   2  -4    0.68    0.56
  28  -2  -4    1.11    0.68
  28   2   4    0.84    0.62
  28  -3   4    4.64    0.98
  28   3  -4    5.23    0.93
  28   3  -4    6.48    1.03
  28  -3  -4    4.35    0.93
  28   3   4    4.77    1.04
  28  -4   4    2.39    0.81
  28   4  -4    2.67    0.78
  28   4   4    4.51    1.04
  28  -4  -4    3.05    0.88
  28   0   5    0.74    0.67
  28   0   5    0.70    0.56
  28   0  -5    0.33    0.63
  28  -1   5    3.85    0.96
  28   1  -5    5.36    0.98
  28  -1  -5    4.63    1.00
  28   1   5    4.07    0.97
  28  -2   5    3.45    0.90
  28   2  -5    3.45    0.85
  28   2   5    4.29    1.01
  28  -2  -5    4.24    0.96
  28  -3   5    0.64    0.67
  28   3  -5    0.34    0.53
  28  -3  -5    0.77    0.70
  28   3   5    0.41    0.63
  28  -4   5    2.82    0.90
  28   4   5    2.64    0.96
  28  -4  -5    2.33    0.80
  28   0  -6    4.03    0.91
  28   0   6    5.10    1.08
  28   1  -6    2.01    0.73
  28  -1   6    1.48    0.71
  28   1   6    2.01    0.86
  28  -1  -6    1.41    0.75
  28  -2   6    0.25    0.69
  28   2  -6    1.31    0.66
  28   2   6    1.45    0.80
  28  -2  -6   -0.07    0.50
  28   3  -6    4.29    0.89
  28  -3   6    3.79    0.94
  28  -3  -6    2.11    0.80
  28   3   6    4.59    1.13
  28   0  -7    0.16    0.64
  28   0   7   -0.42    0.63
  28  -1   7    2.58    0.91
  28   1  -7    1.17    0.62
  28  -1  -7    2.18    0.76
  28   1   7    2.60    0.95
  28  -2   7    3.39    1.03
  28   2  -7    3.82    0.92
  28  -2  -7    4.21    0.99
  28   2   7    3.52    1.09
  28   3  -7    1.14    0.72
  28   0   8   10.11    1.48
  28   0  -8    9.19    1.34
  28   1  -8    1.06    0.68
  28  -1   8    1.73    0.83
  28   1   8    1.41    0.75
  28  -1  -8    1.30    0.79
  29   0   0   -0.33    0.51
  29   0   0    0.69    0.53
  29  -1   0    1.65    0.70
  29   1   0    1.63    0.63
  29   1   0    1.56    0.61
  29  -1   0    1.84    0.69
  29   2   0    3.55    0.85
  29  -2   0    2.31    0.71
  29  -2   0    4.68    0.94
  29   2   0    3.23    0.77
  29  -3   0    0.88    0.64
  29   3   0    1.10    0.63
  29  -3   0    0.16    0.53
  29  -4   0    0.92    0.68
  29  -4   0    2.32    0.75
  29   4   0    1.95    0.71
  29   0  -1    6.08    0.95
  29   0  -1    7.13    1.06
  29   0   1    6.67    1.04
  29   0   1    5.82    0.99
  29   1  -1    2.39    0.71
  29   1  -1    2.39    0.73
  29  -1   1    1.48    0.65
  29  -1   1    1.83    0.71
  29  -1  -1    1.07    0.66
  29  -1  -1    2.30    0.67
  29   1   1    1.27    0.63
  29   1   1    1.53    0.63
  29   2  -1    0.80    0.57
  29   2  -1    0.76    0.54
  29  -2   1    0.00    0.48
  29  -2   1    0.46    0.55
  29   2   1   -0.29    0.50
  29  -2  -1    0.20    0.62
  29  -2  -1    1.09    0.59
  29  -3   1    5.33    0.94
  29  -3   1    5.05    0.92
  29   3  -1    2.36    0.78
  29   3   1    5.20    0.99
  29  -3  -1    4.69    0.90
  29  -3  -1    4.87    1.04
  29  -4   1    3.31    0.86
  29  -4   1    1.56    0.72
  29  -4  -1    3.04    0.87
  29   0   2   -0.69    0.47
  29   0  -2    0.37    0.54
  29   0   2    0.38    0.57
  29   0  -2   -0.38    0.43
  29  -1   2    2.11    0.77
  29   1  -2    2.38    0.75
  29  -1   2    3.24    0.79
  29   1  -2    3.70    0.77
  29   1   2    2.38    0.70
  29  -1  -2    3.46    0.87
  29   1   2    2.04    0.75
  29  -1  -2    1.96    0.64
  29   2  -2    3.76    0.85
  29   2  -2    3.26    0.80
  29  -2   2    4.60    0.89
  29  -2   2    2.27    0.83
  29  -2  -2    4.10    0.92
  29   2   2    3.27    0.81
  29   3  -2    0.67    0.57
  29  -3   2    0.34    0.66
  29  -3   2    0.24    0.55
  29   3   2    0.93    0.60
  29  -3  -2    0.89    0.69
  29   0   3    4.30    0.85
  29   0   3    2.84    0.82
  29   0  -3    2.77    0.84
  29   1  -3    1.56    0.71
  29  -1   3    2.00    0.76
  29  -1   3    2.76    0.79
  29   1   3    2.09    0.75
  29   1   3    2.82    0.74
  29  -1  -3    3.20    0.84
  29  -2   3    0.39    0.58
  29   2  -3   -0.01    0.47
  29  -2   3    0.54    0.61
  29   2  -3    0.16    0.52
  29   2   3    0.89    0.68
  29  -2  -3    0.13    0.59
  29  -3   3    6.00    1.12
  29   3  -3    6.04    1.02
  29   3  -3    4.85    0.93
  29   3   3    5.34    1.04
  29  -3  -3    6.40    1.14
  29   0   4    0.33    0.57
  29   0  -4    0.33    0.59
  29   0   4   -0.18    0.52
  29  -1   4    1.47    0.62
  29  -1   4    0.93    0.69
  29   1  -4    1.19    0.71
  29  -1  -4    0.88    0.64
  29   1   4    2.47    0.82
  29   2  -4    5.49    1.00
  29  -2   4    4.40    0.94
  29   2   4    5.27    1.05
  29  -2  -4    4.61    0.94
  29   3  -4    0.76    0.64
  29  -3   4    0.61    0.70
  29   3   4    0.22    0.61
  29  -3  -4    1.21    0.72
  29   0   5    3.19    0.81
  29   0   5    3.35    0.95
  29   0  -5    6.67    1.13
  29  -1   5    1.95    0.75
  29   1  -5    2.00    0.73
  29  -1  -5    1.55    0.75
  29   1   5    1.26    0.73
  29  -2   5    1.08    0.68
  29   2  -5    0.96    0.67
  29   2   5    0.15    0.66
  29  -2  -5   -0.26    0.55
  29   0   6    0.59    0.57
  29   0   6   -0.33    0.69
  29   0  -6    0.46    0.67
  29  -1   6    3.19    0.93
  29   1  -6    1.73    0.70
  29  -1  -6    1.54    0.76
  29   1   6    2.07    0.88
  30   0   0    2.88    0.73
  30   0   0    4.17    0.87
  30   1   0    3.04    0.75
  30  -1   0    1.13    0.62
  30   1   0    1.84    0.64
  30  -1   0    3.19    0.82
  30  -2   0    0.44    0.58
  30   2   0    0.14    0.54
  30  -2   0    0.26    0.59
  30   0  -1    0.04    0.48
  30   0   1   -0.24    0.58
  30   0  -1    1.18    0.65
  30   0   1   -0.04    0.52
  30   1  -1    0.47    0.55
  30   1  -1    1.19    0.67
  30  -1   1    2.02    0.75
  30  -1   1    0.04    0.57
  30  -1  -1    2.52    0.78
  30   1   1    0.24    0.56
  30   1   1    0.87    0.61
  30  -1  -1    0.45    0.55
  30  -2   1    2.13    0.69
  30   2  -1    3.13    0.81
  30   2  -1    4.82    0.89
  30  -2   1    4.11    0.93
  30   2   1    3.36    0.83
  30  -2  -1    4.10    0.87
  30  -2  -1    3.70    0.90
  30   0   2    5.13    0.94
  30   0   2    5.59    1.04
  30   0  -2    5.16    0.96
  30   0  -2    4.70    0.88
  30  -1   2    1.81    0.72
  30   1  -2    1.25    0.65
  30   1  -2    1.13    0.69
  30  -1   2    2.08    0.75
  30   1   2    1.17    0.66
  30   1   2    1.21    0.74
  30  -1  -2    2.96    0.87
  30  -2   2   -0.05    0.50
  30   2  -2    0.14    0.55
  30  -2  -2   -0.32    0.60
  30   0  -3    0.71    0.67
  30   0   3   -0.27    0.49
  30   0   3    0.07    0.58
  30  -1   3    2.00    0.81
  30   1  -3    1.03    0.66
  30  -1   3    1.76    0.73
  30   1   3    3.44    1.00
  30  -1  -3    2.74    0.84
   0   0   0    0.00    0.00
;
_shelx_hkl_checksum              24036
loop_
_space_group_symop_operation_xyz
'x, y, z'
'-x+1/2, -y+1/2, z'
'x+1/2, -y, -z'
'-x, y+1/2, -z'
'-x, -y, -z'
'x-1/2, y-1/2, -z'
'-x-1/2, y, z'
'x, -y-1/2, z'
loop_
_atom_site_label
_atom_site_type_symbol
_atom_site_fract_x
_atom_site_fract_y
_atom_site_fract_z
_atom_site_U_iso_or_equiv
_atom_site_adp_type
_atom_site_occupancy
_atom_site_site_symmetry_order
_atom_site_calc_flag
_atom_site_refinement_flags_posn
_atom_site_refinement_flags_adp
_atom_site_refinement_flags_occupancy
_atom_site_disorder_assembly
_atom_site_disorder_group
Yb1 Yb 0.7500 0.2500 0.65749(2) 0.02911(11) Uani 1 4 d S T P . .
Co1 Co 0.7500 0.2500 0.25080(10) 0.0578(3) Uani 1 4 d S T P . .
P1 P 0.6428(2) 0.2500 0.3647(3) 0.0568(8) Uani 0.5 2 d S T P A 1
P2 P 0.69338(19) 0.18446(12) 0.3711(2) 0.0658(7) Uani 0.5 1 d . . P B 2
N1 N 0.7500 0.16325(15) 0.7759(4) 0.0324(8) Uani 1 2 d S T P B .
N2 N 0.6259(2) 0.2500 0.7769(4) 0.0344(8) Uani 1 2 d S T P B .
F1 F 0.5563(2) 0.06477(14) 0.6089(3) 0.0971(11) Uani 1 1 d . . . . .
F2 F 0.4427(3) -0.0150(2) 0.6493(4) 0.1371(19) Uani 1 1 d . . . . .
F3 F 0.3629(3) -0.01959(18) 0.8821(5) 0.1318(15) Uani 1 1 d . . . . .
F4 F 0.3993(2) 0.05500(19) 1.0725(4) 0.1200(14) Uani 1 1 d . . . . .
F5 F 0.5128(2) 0.13547(14) 1.0314(3) 0.0866(10) Uani 1 1 d . . . . .
O1 O 0.4269(4) 0.2019(3) 0.7973(10) 0.095(3) Uani 0.5 1 d . . P . .
O2 O 0.4958(2) 0.21936(16) 0.7970(4) 0.0596(9) Uani 0.5 1 d . . P B .
O3 O 0.6479(5) 0.2500 0.5114(7) 0.056(2) Uani 0.5 2 d S T P A 1
O4 O 0.6948(4) 0.1899(2) 0.5162(5) 0.0521(14) Uani 0.5 1 d . . P B 2
C1 C 0.6830(2) 0.12914(14) 0.7945(3) 0.0378(7) Uani 1 1 d . . . . .
C2 C 0.6022(2) 0.14757(15) 0.7948(4) 0.0400(8) Uani 1 1 d . . . . .
C3 C 0.5777(2) 0.20383(15) 0.7872(4) 0.0389(7) Uani 1 1 d . . . . .
C4 C 0.4958(2) 0.21936(16) 0.7970(4) 0.0596(9) Uani 0.5 1 d . . P B .
C5 C 0.7091(3) 0.07171(17) 0.8232(4) 0.0512(10) Uani 1 1 d . . . . .
H5A H 0.6754 0.0406 0.8387 0.061 Uiso 1 1 calc R U . . .
C6 C 0.5369(2) 0.10364(17) 0.8172(4) 0.0455(9) Uani 1 1 d . . . . .
C7 C 0.5175(3) 0.06412(19) 0.7237(5) 0.0617(11) Uani 1 1 d . . . . .
C8 C 0.4599(4) 0.0228(2) 0.7425(6) 0.0797(15) Uani 1 1 d . . . . .
C9 C 0.4192(4) 0.0199(3) 0.8577(6) 0.0823(17) Uani 1 1 d . . . . .
C10 C 0.4370(3) 0.0578(2) 0.9548(5) 0.0750(15) Uani 1 1 d . . . . .
C11 C 0.4960(3) 0.09967(19) 0.9339(4) 0.0587(11) Uani 1 1 d . . . . .
O5A O 0.5866(9) 0.2011(5) 0.3278(10) 0.111(4) Uani 0.63 1 d . . P A 1
O5B O 0.6113(14) 0.1619(11) 0.3265(16) 0.139(10) Uani 0.37 1 d . . P B 2
C12 C 0.5361(5) 0.1661(4) 0.3897(9) 0.122(3) Uani 1 1 d . . . . .
H12A H 0.5116 0.1406 0.3277 0.184 Uiso 1 1 calc R U . A 1
H12B H 0.5659 0.1446 0.4537 0.184 Uiso 1 1 calc R U . A 1
H12C H 0.4942 0.1877 0.4326 0.184 Uiso 1 1 calc R U . A 1
O6A O 0.7500 0.1222(12) 0.354(2) 0.102(8) Uani 0.5 2 d S T P B 2
C13A C 0.7500 0.0806(5) 0.4169(14) 0.112(3) Uani 0.5 2 d S T P B 2
H13A H 0.7114 0.0542 0.3811 0.168 Uiso 0.5 1 calc R U P B 2
H13B H 0.8035 0.0640 0.4157 0.168 Uiso 0.5 1 calc R U P B 2
H13C H 0.7351 0.0896 0.5054 0.168 Uiso 0.5 1 calc R U P B 2
O6B O 0.7087(18) 0.1284(7) 0.324(2) 0.080(8) Uani 0.25 1 d . . P C 1
C13B C 0.7500 0.0806(5) 0.4169(14) 0.112(3) Uani 0.5 2 d S T P C 1
C14 C 0.6980(9) 0.2186(6) 0.0872(14) 0.109(4) Uani 0.5 1 d D . P A 1
C15 C 0.8307(10) 0.2500 0.0917(16) 0.109(4) Uani 0.5 2 d DS T P A 2
C16 C 0.7790(9) 0.2021(5) 0.0801(12) 0.109(4) Uani 0.5 1 d D . P A .
O7 O 0.7500 -0.106(2) 0.396(7) 0.41(4) Uani 0.5 2 d S T P . .
C17 C 0.704(3) -0.109(4) 0.482(6) 0.26(4) Uani 0.25 1 d . . P . .
C18 C 0.695(3) -0.082(3) 0.575(5) 0.20(2) Uani 0.25 1 d . . P . .
loop_
_atom_site_aniso_label
_atom_site_aniso_U_11
_atom_site_aniso_U_22
_atom_site_aniso_U_33
_atom_site_aniso_U_23
_atom_site_aniso_U_13
_atom_site_aniso_U_12
Yb1 0.04113(18) 0.02781(16) 0.01840(15) 0.000 0.000 0.000
Co1 0.0832(8) 0.0732(8) 0.0169(4) 0.000 0.000 0.000
P1 0.0590(18) 0.082(2) 0.0296(14) 0.000 -0.0117(12) 0.000
P2 0.0979(19) 0.0701(16) 0.0294(10) -0.0117(10) -0.0048(11) -0.0319(14)
N1 0.041(2) 0.0276(18) 0.0282(19) 0.0015(16) 0.000 0.000
N2 0.040(2) 0.0321(19) 0.031(2) 0.000 0.0009(16) 0.000
F1 0.145(3) 0.089(2) 0.0566(17) -0.0218(17) 0.023(2) -0.051(2)
F2 0.177(4) 0.114(3) 0.121(3) -0.037(2) 0.001(3) -0.089(3)
F3 0.130(3) 0.112(3) 0.153(3) 0.016(3) 0.012(3) -0.086(3)
F4 0.125(3) 0.131(3) 0.103(3) 0.016(2) 0.051(2) -0.049(3)
F5 0.110(2) 0.092(2) 0.0586(17) -0.0159(15) 0.0271(16) -0.0363(19)
O1 0.042(3) 0.068(5) 0.176(8) 0.013(5) 0.002(4) -0.013(3)
O2 0.0461(19) 0.060(2) 0.072(2) -0.0015(18) 0.0008(17) -0.0097(15)
O3 0.046(4) 0.091(6) 0.030(4) 0.000 -0.003(3) 0.000
O4 0.081(4) 0.050(3) 0.025(2) 0.000(2) -0.004(2) -0.024(3)
C1 0.0500(19) 0.0314(16) 0.0320(17) 0.0029(14) 0.0001(15) -0.0048(15)
C2 0.0487(19) 0.0373(17) 0.0339(17) -0.0001(15) 0.0023(15) -0.0070(15)
C3 0.0381(17) 0.0411(19) 0.0376(18) 0.0019(16) -0.0001(14) -0.0040(14)
C4 0.0461(19) 0.060(2) 0.072(2) -0.0015(18) 0.0008(17) -0.0097(15)
C5 0.061(2) 0.0330(18) 0.059(2) 0.0106(17) 0.0029(19) -0.0061(17)
C6 0.049(2) 0.0394(19) 0.048(2) 0.0051(16) -0.0007(16) -0.0083(16)
C7 0.076(3) 0.052(2) 0.057(3) -0.003(2) -0.001(2) -0.021(2)
C8 0.096(4) 0.066(3) 0.076(4) -0.006(3) -0.005(3) -0.037(3)
C9 0.081(4) 0.065(3) 0.101(5) 0.011(3) -0.006(3) -0.037(3)
C10 0.073(3) 0.076(3) 0.075(4) 0.018(3) 0.020(3) -0.014(3)
C11 0.064(3) 0.055(2) 0.057(3) 0.001(2) 0.008(2) -0.015(2)
O5A 0.131(9) 0.141(9) 0.061(5) -0.018(6) 0.001(4) -0.075(8)
O5B 0.140(18) 0.23(3) 0.048(7) -0.042(13) -0.018(8) -0.09(2)
C12 0.101(5) 0.111(6) 0.155(7) 0.016(6) -0.021(6) -0.022(5)
O6A 0.14(2) 0.104(16) 0.065(14) -0.006(10) 0.000 0.000
C13A 0.110(8) 0.073(6) 0.153(10) -0.012(7) 0.000 0.000
O6B 0.17(3) 0.032(6) 0.037(9) -0.015(6) -0.011(10) 0.010(10)
C13B 0.110(8) 0.073(6) 0.153(10) -0.012(7) 0.000 0.000
C14 0.135(8) 0.171(10) 0.0203(19) -0.035(4) 0.012(5) -0.031(8)
C15 0.135(8) 0.171(10) 0.0203(19) -0.035(4) 0.012(5) -0.031(8)
C16 0.135(8) 0.171(10) 0.0203(19) -0.035(4) 0.012(5) -0.031(8)
O7 0.19(4) 0.29(5) 0.74(12) 0.21(7) 0.000 0.000
C17 0.16(4) 0.48(12) 0.14(4) -0.05(6) 0.03(3) -0.18(6)
C18 0.20(4) 0.26(6) 0.14(4) 0.09(4) 0.02(4) -0.02(4)
loop_
_atom_type_symbol
_atom_type_description
_atom_type_scat_dispersion_real
_atom_type_scat_dispersion_imag
_atom_type_scat_source
C C 0.0033 0.0016 'International Tables Vol C Tables 4.2.6.8 and 6.1.1.4'
H H 0.0000 0.0000 'International Tables Vol C Tables 4.2.6.8 and 6.1.1.4'
Co Co 0.3494 0.9721 'International Tables Vol C Tables 4.2.6.8 and 6.1.1.4'
F F 0.0171 0.0103 'International Tables Vol C Tables 4.2.6.8 and 6.1.1.4'
N N 0.0061 0.0033 'International Tables Vol C Tables 4.2.6.8 and 6.1.1.4'
O O 0.0106 0.0060 'International Tables Vol C Tables 4.2.6.8 and 6.1.1.4'
P P 0.1023 0.0942 'International Tables Vol C Tables 4.2.6.8 and 6.1.1.4'
Yb Yb -0.3850 5.5486 'International Tables Vol C Tables 4.2.6.8 and 6.1.1.4'
loop_
_geom_angle_atom_site_label_1
_geom_angle_atom_site_label_2
_geom_angle_atom_site_label_3
_geom_angle
_geom_angle_site_symmetry_1
_geom_angle_site_symmetry_3
O4 Yb1 O4 48.2(3) . 7_755
O4 Yb1 O4 79.4(3) . 8_565
O4 Yb1 O4 98.6(3) 7_755 8_565
O4 Yb1 O4 98.6(3) . 2_655
O4 Yb1 O4 79.4(3) 7_755 2_655
O4 Yb1 O4 48.2(3) 8_565 2_655
O3 Yb1 O3 96.5(4) . 2_655
O4 Yb1 N2 89.14(17) . .
O4 Yb1 N2 133.27(17) 7_755 .
O4 Yb1 N2 89.14(17) 8_565 .
O4 Yb1 N2 133.27(17) 2_655 .
O3 Yb1 N2 72.7(2) . .
O3 Yb1 N2 169.2(2) 2_655 .
O4 Yb1 N2 133.27(17) . 2_655
O4 Yb1 N2 89.14(17) 7_755 2_655
O4 Yb1 N2 133.27(17) 8_565 2_655
O4 Yb1 N2 89.14(17) 2_655 2_655
O3 Yb1 N2 169.2(2) . 2_655
O3 Yb1 N2 72.7(2) 2_655 2_655
N2 Yb1 N2 118.12(19) . 2_655
O4 Yb1 N1 151.89(18) . 2_655
O4 Yb1 N1 151.88(18) 7_755 2_655
O4 Yb1 N1 77.45(16) 8_565 2_655
O4 Yb1 N1 77.45(16) 2_655 2_655
O3 Yb1 N1 109.84(10) . 2_655
O3 Yb1 N1 109.84(10) 2_655 2_655
N2 Yb1 N1 74.81(6) . 2_655
N2 Yb1 N1 74.81(6) 2_655 2_655
O4 Yb1 N1 77.44(16) . .
O4 Yb1 N1 77.44(16) 7_755 .
O4 Yb1 N1 151.88(18) 8_565 .
O4 Yb1 N1 151.88(18) 2_655 .
O3 Yb1 N1 109.84(10) . .
O3 Yb1 N1 109.84(10) 2_655 .
N2 Yb1 N1 74.81(6) . .
N2 Yb1 N1 74.81(6) 2_655 .
N1 Yb1 N1 118.71(18) 2_655 .
O4 Yb1 P2 17.73(14) . .
O4 Yb1 P2 42.95(16) 7_755 .
O4 Yb1 P2 67.75(15) 8_565 .
O4 Yb1 P2 80.90(14) 2_655 .
N2 Yb1 P2 101.90(10) . .
N2 Yb1 P2 132.04(9) 2_655 .
N1 Yb1 P2 145.13(10) 2_655 .
N1 Yb1 P2 92.74(10) . .
O4 Yb1 P2 42.95(16) . 7_755
O4 Yb1 P2 17.73(14) 7_755 7_755
O4 Yb1 P2 80.90(14) 8_565 7_755
O4 Yb1 P2 67.75(15) 2_655 7_755
N2 Yb1 P2 132.03(10) . 7_755
N2 Yb1 P2 101.91(10) 2_655 7_755
N1 Yb1 P2 145.13(10) 2_655 7_755
N1 Yb1 P2 92.74(10) . 7_755
P2 Yb1 P2 31.34(10) . 7_755
C14 Co1 C14 68.0(8) 8_565 7_755
C14 Co1 C14 50.0(7) 8_565 2_655
C14 Co1 C14 42.9(9) 7_755 2_655
C14 Co1 C14 43.0(9) 8_565 .
C14 Co1 C14 50.0(7) 7_755 .
C14 Co1 C14 68.0(8) 2_655 .
C15 Co1 C15 78.3(9) 2_655 .
C14 Co1 P1 96.1(4) 8_565 .
C14 Co1 P1 144.1(4) 7_755 .
C14 Co1 P1 144.1(4) 2_655 .
C14 Co1 P1 96.1(4) . .
C14 Co1 P1 144.1(4) 8_565 2_655
C14 Co1 P1 96.1(4) 7_755 2_655
C14 Co1 P1 96.1(4) 2_655 2_655
C14 Co1 P1 144.1(4) . 2_655
P1 Co1 P1 112.97(16) . 2_655
C14 Co1 C16 67.0(4) 8_565 .
C14 Co1 C16 14.8(6) 7_755 .
C14 Co1 C16 54.6(5) 2_655 .
C14 Co1 C16 38.9(3) . .
C15 Co1 C16 60.4(6) 2_655 .
C15 Co1 C16 39.1(3) . .
P1 Co1 C16 129.6(4) . .
P1 Co1 C16 105.4(4) 2_655 .
C14 Co1 C16 54.6(5) 8_565 7_755
C14 Co1 C16 38.9(3) 7_755 7_755
C14 Co1 C16 67.0(4) 2_655 7_755
C14 Co1 C16 14.8(6) . 7_755
C15 Co1 C16 39.1(3) 2_655 7_755
C15 Co1 C16 60.4(6) . 7_755
P1 Co1 C16 105.4(4) . 7_755
P1 Co1 C16 129.6(4) 2_655 7_755
C16 Co1 C16 25.8(7) . 7_755
C14 Co1 C16 14.8(6) 8_565 2_655
C14 Co1 C16 67.0(4) 7_755 2_655
C14 Co1 C16 38.9(3) 2_655 2_655
C14 Co1 C16 54.6(5) . 2_655
C15 Co1 C16 39.1(3) 2_655 2_655
C15 Co1 C16 60.4(6) . 2_655
P1 Co1 C16 105.4(4) . 2_655
P1 Co1 C16 129.6(4) 2_655 2_655
C16 Co1 C16 70.1(7) . 2_655
C16 Co1 C16 63.9(6) 7_755 2_655
C14 Co1 C16 38.9(3) 8_565 8_565
C14 Co1 C16 54.6(5) 7_755 8_565
C14 Co1 C16 14.8(6) 2_655 8_565
C14 Co1 C16 67.0(4) . 8_565
C15 Co1 C16 60.4(6) 2_655 8_565
C15 Co1 C16 39.1(3) . 8_565
P1 Co1 C16 129.6(4) . 8_565
P1 Co1 C16 105.4(4) 2_655 8_565
C16 Co1 C16 63.9(6) . 8_565
C16 Co1 C16 70.1(7) 7_755 8_565
C16 Co1 C16 25.8(7) 2_655 8_565
O3 P1 O5A 106.3(5) . .
O3 P1 O5A 106.3(5) . 8_565
O5A P1 O5A 98.2(11) . 8_565
O3 P1 Co1 120.3(3) . .
O5A P1 Co1 111.6(5) . .
O5A P1 Co1 111.6(5) 8_565 .
O3 P1 Yb1 27.2(3) . .
O5A P1 Yb1 121.4(5) . .
O5A P1 Yb1 121.4(5) 8_565 .
Co1 P1 Yb1 93.10(11) . .
O4 P2 O5B 110.1(7) . .
O4 P2 O6A 99.4(8) . .
O5B P2 O6A 98.5(12) . .
O4 P2 P2 89.1(3) . 7_755
O5B P2 P2 152.5(9) . 7_755
O6A P2 P2 57.8(5) . 7_755
O4 P2 Co1 119.6(2) . .
O5B P2 Co1 117.2(9) . .
O6A P2 Co1 108.2(7) . .
P2 P2 Co1 64.80(8) 7_755 .
O4 P2 Yb1 26.9(2) . .
O5B P2 Yb1 130.7(8) . .
O6A P2 Yb1 108.6(7) . .
P2 P2 Yb1 74.33(5) 7_755 .
Co1 P2 Yb1 92.71(8) . .
C1 N1 C1 106.2(4) . 7_755
C1 N1 Yb1 125.0(2) . .
C1 N1 Yb1 125.0(2) 7_755 .
C3 N2 C3 107.5(4) 8_565 .
C3 N2 Yb1 122.9(2) 8_565 .
C3 N2 Yb1 122.9(2) . .
O1 O2 C3 144.6(5) . .
O1 O2 C4 110.0(4) . 8_565
C3 O2 C4 105.2(2) . 8_565
O1 O2 O2 110.0(4) . 8_565
C3 O2 O2 105.2(2) . 8_565
C4 O2 O2 0.0(4) 8_565 8_565
P1 O3 Yb1 134.9(5) . .
P2 O4 O4 90.9(3) . 7_755
P2 O4 Yb1 135.3(3) . .
O4 O4 Yb1 65.90(16) 7_755 .
N1 C1 C2 125.3(3) . .
N1 C1 C5 109.7(3) . .
C2 C1 C5 124.8(3) . .
C3 C2 C1 124.9(3) . .
C3 C2 C6 117.3(3) . .
C1 C2 C6 117.5(3) . .
N2 C3 C2 127.2(3) . .
N2 C3 O2 111.0(3) . .
C2 C3 O2 121.7(3) . .
C5 C5 C1 107.2(2) 7_755 .
C5 C5 H5A 126.4 7_755 .
C1 C5 H5A 126.4 . .
C11 C6 C7 116.5(4) . .
C11 C6 C2 121.8(4) . .
C7 C6 C2 121.7(4) . .
F1 C7 C8 117.4(4) . .
F1 C7 C6 119.6(4) . .
C8 C7 C6 123.0(5) . .
F2 C8 C9 118.7(5) . .
F2 C8 C7 121.4(5) . .
C9 C8 C7 119.9(5) . .
F3 C9 C8 122.6(6) . .
F3 C9 C10 117.9(6) . .
C8 C9 C10 119.5(5) . .
F4 C10 C9 121.0(5) . .
F4 C10 C11 119.1(5) . .
C9 C10 C11 119.9(5) . .
F5 C11 C6 120.4(4) . .
F5 C11 C10 118.3(4) . .
C6 C11 C10 121.3(4) . .
C12 O5A P1 136.8(9) . .
C12 O5B P2 128.3(12) . .
O5A C12 H12A 109.5 . .
O5A C12 H12B 109.5 . .
H12A C12 H12B 109.5 . .
O5A C12 H12C 109.5 . .
H12A C12 H12C 109.5 . .
H12B C12 H12C 109.5 . .
C13A O6A P2 130.4(14) . 7_755
C13A O6A P2 130.4(14) . .
P2 O6A P2 64.3(10) 7_755 .
O6A C13A H13A 109.5 . .
O6A C13A H13B 109.5 . .
H13A C13A H13B 109.5 . .
O6A C13A H13C 109.5 . .
H13A C13A H13C 109.5 . .
H13B C13A H13C 109.5 . .
C16 C14 C16 30(2) 7_755 .
C16 C14 C14 135(3) 7_755 8_565
C16 C14 C14 106.3(8) . 8_565
C16 C14 C14 46(3) 7_755 7_755
C16 C14 C14 16.6(7) . 7_755
C14 C14 C14 89.997(4) 8_565 7_755
C16 C14 C16 124(3) 7_755 2_655
C16 C14 C16 94.8(12) . 2_655
C14 C14 C16 11.6(8) 8_565 2_655
C14 C14 C16 78.6(8) 7_755 2_655
C16 C14 Co1 95(3) 7_755 .
C16 C14 Co1 75.0(10) . .
C14 C14 Co1 68.5(4) 8_565 .
C14 C14 Co1 65.0(3) 7_755 .
C16 C14 Co1 65.8(8) 2_655 .
C16 C15 C16 105.6(12) 8_565 .
C16 C15 Co1 71.8(7) 8_565 .
C16 C15 Co1 71.8(7) . .
C14 C16 C16 134(3) 7_755 7_755
C14 C16 C14 117(3) 7_755 .
C16 C16 C14 16.6(7) 7_755 .
C16 C16 C15 126.8(6) 7_755 .
C14 C16 C14 33(2) 7_755 2_655
C16 C16 C14 101.4(8) 7_755 2_655
C14 C16 C14 84.9(12) . 2_655
C14 C16 Co1 71(3) 7_755 .
C16 C16 Co1 77.1(4) 7_755 .
C14 C16 Co1 66.1(10) . .
C15 C16 Co1 69.1(7) . .
C14 C16 Co1 59.6(7) 2_655 .
C17 O7 C17 80(9) . 7_755
C18 C17 O7 133(8) . .
C18 C17 C17 98(4) . 7_755
O7 C17 C17 50(4) . 7_755
C18 C17 C18 63(5) . 7_755
O7 C17 C18 79(4) . 7_755
C17 C17 C18 35(2) 7_755 7_755
C17 C18 C18 82(4) . 7_755
C17 C18 C17 48(5) . 7_755
C18 C18 C17 35(2) 7_755 7_755
loop_
_geom_bond_atom_site_label_1
_geom_bond_atom_site_label_2
_geom_bond_distance
_geom_bond_site_symmetry_2
Yb1 O4 2.214(5) .
Yb1 O4 2.214(5) 7_755
Yb1 O4 2.214(5) 8_565
Yb1 O4 2.214(5) 2_655
Yb1 O3 2.243(7) .
Yb1 O3 2.243(7) 2_655
Yb1 N2 2.372(4) .
Yb1 N2 2.372(4) 2_655
Yb1 N1 2.374(4) 2_655
Yb1 N1 2.374(4) .
Yb1 P2 3.436(2) .
Yb1 P2 3.436(2) 7_755
Co1 C14 2.016(16) 8_565
Co1 C14 2.016(16) 7_755
Co1 C14 2.016(16) 2_655
Co1 C14 2.016(16) .
Co1 C15 2.096(17) 2_655
Co1 C15 2.096(17) .
Co1 P1 2.107(4) .
Co1 P1 2.107(4) 2_655
Co1 C16 2.131(13) .
Co1 C16 2.131(13) 7_755
Co1 C16 2.131(13) 2_655
Co1 C16 2.131(13) 8_565
P1 O3 1.501(8) .
P1 O5A 1.522(10) .
P1 O5A 1.522(10) 8_565
P2 O4 1.489(5) .
P2 O5B 1.516(19) .
P2 O6A 1.74(2) .
P2 P2 1.856(6) 7_755
N1 C1 1.374(4) .
N1 C1 1.374(4) 7_755
N2 C3 1.348(4) 8_565
N2 C3 1.348(4) .
F1 C7 1.335(6) .
F2 C8 1.334(6) .
F3 C9 1.333(6) .
F4 C10 1.353(6) .
F5 C11 1.333(5) .
O1 O2 1.202(7) .
O2 C3 1.394(5) .
O2 C4 1.443(7) 8_565
O2 O2 1.443(7) 8_565
O4 O4 1.808(12) 7_755
C1 C2 1.394(5) .
C1 C5 1.448(5) .
C2 C3 1.386(5) .
C2 C6 1.505(5) .
C5 C5 1.341(9) 7_755
C5 H5A 0.9300 .
C6 C11 1.371(6) .
C6 C7 1.371(6) .
C7 C8 1.368(6) .
C8 C9 1.356(8) .
C9 C10 1.367(8) .
C10 C11 1.397(6) .
O5A C12 1.330(14) .
O5B C12 1.40(2) .
C12 H12A 0.9600 .
C12 H12B 0.9600 .
C12 H12C 0.9600 .
O6A C13A 1.17(3) .
O6A P2 1.74(2) 7_755
C13A H13A 0.9600 .
C13A H13B 0.9600 .
C13A H13C 0.9600 .
O6B O6B 1.35(6) 7_755
C14 C16 0.55(2) 7_755
C14 C16 1.385(10) .
C14 C14 1.48(3) 8_565
C14 C14 1.70(3) 7_755
C14 C16 1.905(18) 2_655
C15 C16 1.416(9) 8_565
C15 C16 1.416(9) .
C16 C14 0.55(2) 7_755
C16 C16 0.95(3) 7_755
C16 C14 1.905(18) 2_655
O7 C17 1.16(7) .
O7 C17 1.16(7) 7_755
C17 C18 1.15(8) .
C17 C17 1.49(11) 7_755
C17 C18 2.00(7) 7_755
C18 C18 1.80(11) 7_755
C18 C17 2.00(7) 7_755
loop_
_geom_torsion_atom_site_label_1
_geom_torsion_atom_site_label_2
_geom_torsion_atom_site_label_3
_geom_torsion_atom_site_label_4
_geom_torsion
_geom_torsion_site_symmetry_1
_geom_torsion_site_symmetry_4
O5A_a P1_a O3_a Yb1 128.0(6) . .
O5A P1 O3 Yb1 -128.0(6) 8_565 .
Co1 P1 O3 Yb1 0.000(1) . .
O5B P2 O4 O4 159.8(12) . 7_755
O6A P2 O4 O4 57.2(5) . 7_755
P2 P2 O4 O4 0.000(0) 7_755 7_755
Co1 P2 O4 O4 -60.1(2) . 7_755
Yb1 P2 O4 O4 -55.6(5) . 7_755
O5B P2 O4 Yb1 -144.5(12) . .
O6A P2 O4 Yb1 112.8(7) . .
P2 P2 O4 Yb1 55.6(5) 7_755 .
Co1 P2 O4 Yb1 -4.4(7) . .
C1 N1 C1 C2 174.8(2) 7_755 .
Yb1 N1 C1 C2 -26.5(5) . .
C1 N1 C1 C5 -1.1(5) 7_755 .
Yb1 N1 C1 C5 157.6(3) . .
N1 C1 C2 C3 -5.7(6) . .
C5 C1 C2 C3 169.6(4) . .
N1 C1 C2 C6 -179.8(4) . .
C5 C1 C2 C6 -4.5(6) . .
C3 N2 C3 C2 -173.2(2) 8_565 .
Yb1 N2 C3 C2 34.9(6) . .
C3 N2 C3 O2 3.5(6) 8_565 .
Yb1 N2 C3 O2 -148.4(3) . .
C1 C2 C3 N2 0.9(7) . .
C6 C2 C3 N2 175.0(4) . .
C1 C2 C3 O2 -175.6(4) . .
C6 C2 C3 O2 -1.4(6) . .
O1 O2 C3 N2 171.2(10) . .
C4 O2 C3 N2 -2.1(3) 8_565 .
O2 O2 C3 N2 -2.1(3) 8_565 .
O1 O2 C3 C2 -11.9(12) . .
C4 O2 C3 C2 174.8(3) 8_565 .
O2 O2 C3 C2 174.8(3) 8_565 .
N1 C1 C5 C5 0.7(3) . 7_755
C2 C1 C5 C5 -175.3(3) . 7_755
C3 C2 C6 C11 -69.0(5) . .
C1 C2 C6 C11 105.5(5) . .
C3 C2 C6 C7 113.5(5) . .
C1 C2 C6 C7 -72.0(5) . .
C11 C6 C7 F1 -178.5(5) . .
C2 C6 C7 F1 -0.9(7) . .
C11 C6 C7 C8 0.7(7) . .
C2 C6 C7 C8 178.4(5) . .
F1 C7 C8 F2 -0.6(9) . .
C6 C7 C8 F2 -179.8(5) . .
F1 C7 C8 C9 179.4(6) . .
C6 C7 C8 C9 0.1(9) . .
F2 C8 C9 F3 0.4(10) . .
C7 C8 C9 F3 -179.6(6) . .
F2 C8 C9 C10 179.1(6) . .
C7 C8 C9 C10 -0.9(10) . .
F3 C9 C10 F4 0.8(9) . .
C8 C9 C10 F4 -177.9(6) . .
F3 C9 C10 C11 179.5(5) . .
C8 C9 C10 C11 0.8(9) . .
C7 C6 C11 F5 178.2(4) . .
C2 C6 C11 F5 0.6(7) . .
C7 C6 C11 C10 -0.8(7) . .
C2 C6 C11 C10 -178.4(4) . .
F4 C10 C11 F5 -0.2(8) . .
C9 C10 C11 F5 -179.0(5) . .
F4 C10 C11 C6 178.8(5) . .
C9 C10 C11 C6 0.1(8) . .
O3 P1 O5A C12 10.8(19) . .
O5A P1 O5A C12 -99.0(16) 8_565 .
Co1 P1 O5A C12 143.8(15) . .
Yb1 P1 O5A C12 36(2) . .
O4 P2 O5B C12 25(3) . .
O6A P2 O5B C12 129(2) . .
P2 P2 O5B C12 157.1(10) 7_755 .
Co1 P2 O5B C12 -116(2) . .
Yb1 P2 O5B C12 5(3) . .
P1 O5A C12 O5B -110(2) . .
P2 O5B C12 O5A 71(2) . .
O4 P2 O6A C13A 39.5(17) . .
O5B P2 O6A C13A -72.7(18) . .
P2 P2 O6A C13A 122.4(19) 7_755 .
Co1 P2 O6A C13A 165.0(14) . .
Yb1 P2 O6A C13A 65.6(16) . .
O4 P2 O6A P2 -82.9(6) . 7_755
O5B P2 O6A P2 164.9(8) . 7_755
Co1 P2 O6A P2 42.6(7) . 7_755
Yb1 P2 O6A P2 -56.8(7) . 7_755
C16 C14 C16 C14 179.988(8) 7_755 7_755
C14 C14 C16 C14 11(4) 8_565 7_755
C16 C14 C16 C14 13(4) 2_655 7_755
Co1 C14 C16 C14 -51(4) . 7_755
C14 C14 C16 C16 -169(4) 8_565 7_755
C14 C14 C16 C16 -179.988(8) 7_755 7_755
C16 C14 C16 C16 -167(4) 2_655 7_755
Co1 C14 C16 C16 129(4) . 7_755
C16 C14 C16 C15 176(3) 7_755 .
C14 C14 C16 C15 7.1(12) 8_565 .
C14 C14 C16 C15 -4(3) 7_755 .
C16 C14 C16 C15 8.7(17) 2_655 .
Co1 C14 C16 C15 -54.6(10) . .
C16 C14 C16 C14 172(3) 7_755 2_655
C14 C14 C16 C14 2.8(9) 8_565 2_655
C14 C14 C16 C14 -8(3) 7_755 2_655
C16 C14 C16 C14 4.4(15) 2_655 2_655
Co1 C14 C16 C14 -58.9(7) . 2_655
C16 C14 C16 Co1 -129(4) 7_755 .
C14 C14 C16 Co1 61.8(4) 8_565 .
C14 C14 C16 Co1 51(4) 7_755 .
C16 C14 C16 Co1 63.3(8) 2_655 .
C16 C15 C16 C14 -164(21) 8_565 7_755
Co1 C15 C16 C14 -99(21) . 7_755
C16 C15 C16 C16 -9.9(16) 8_565 7_755
Co1 C15 C16 C16 54.3(7) . 7_755
C16 C15 C16 C14 -11(2) 8_565 .
Co1 C15 C16 C14 52.9(12) . .
C16 C15 C16 C14 -1.4(17) 8_565 2_655
Co1 C15 C16 C14 62.9(19) . 2_655
C16 C15 C16 Co1 -64.3(10) 8_565 .
C17 O7 C17 C18 58(16) 7_755 .
C17 O7 C17 C18 21(7) 7_755 7_755
O7 C17 C18 C18 -41(11) . 7_755
C17 C17 C18 C18 0.000(11) 7_755 7_755
O7 C17 C18 C17 -41(11) . 7_755
C18 C17 C18 C17 0.000(10) 7_755 7_755
