#------------------------------------------------------------------------------
#$Date: 2019-11-23 03:32:44 +0200 (Sat, 23 Nov 2019) $
#$Revision: 232011 $
#$URL: file:///home/coder/svn-repositories/cod/cif/4/34/68/4346843.cif $
#------------------------------------------------------------------------------
#
# This file is available in the Crystallography Open Database (COD),
# http://www.crystallography.net/
#
# All data on this site have been placed in the public domain by the
# contributors.
#
data_4346843
loop_
_publ_author_name
'Sil, Debangsu'
'Bhowmik, Susovan'
'Khan, Firoz Shah Tuglak'
'Rath, Sankar Prasad'
_publ_section_title
;
 Experimental and Theoretical Investigation of a Series of Novel
 Dimanganese(III) \m-Hydroxo Bisporphyrins: Magneto-Structural Correlation
 and Effect of Metal Spin on Porphyrin Core Deformation.
;
_journal_issue                   7
_journal_name_full               'Inorganic chemistry'
_journal_page_first              3239
_journal_page_last               3251
_journal_paper_doi               10.1021/acs.inorgchem.5b02226
_journal_volume                  55
_journal_year                    2016
_chemical_formula_sum            'C163 H189 I6 Mn4 N16 O2'
_chemical_formula_weight         3385.45
_space_group_crystal_system      triclinic
_space_group_IT_number           2
_space_group_name_Hall           '-P 1'
_space_group_name_H-M_alt        'P -1'
_atom_sites_solution_hydrogens   mixed
_audit_creation_method           SHELXL-2014
_cell_angle_alpha                87.856(5)
_cell_angle_beta                 74.193(5)
_cell_angle_gamma                71.326(5)
_cell_formula_units_Z            1
_cell_length_a                   14.840(5)
_cell_length_b                   14.997(5)
_cell_length_c                   19.268(5)
_cell_measurement_reflns_used    999
_cell_measurement_temperature    100(2)
_cell_measurement_theta_max      27.5
_cell_measurement_theta_min      2.5
_cell_volume                     3903(2)
_computing_cell_refinement       'Bruker SAINT'
_computing_data_collection       'Bruker APEX'
_computing_data_reduction        'Bruker SAINT'
_computing_molecular_graphics    'SHELXL 5.1, XP (Sheldrick, 1994)'
_computing_publication_material  SHELXS-97
_computing_structure_refinement  'SHELXL-2014 (Sheldrick, 2014)'
_computing_structure_solution    'SHELXS-97 (Sheldrick, 2008)'
_diffrn_ambient_temperature      100(2)
_diffrn_measured_fraction_theta_full 0.910
_diffrn_measured_fraction_theta_max 0.910
_diffrn_measurement_device_type  'Bruker SMART APEX'
_diffrn_measurement_method       \w
_diffrn_radiation_type           MoK\a
_diffrn_radiation_wavelength     0.71069
_diffrn_reflns_av_R_equivalents  0.0401
_diffrn_reflns_av_unetI/netI     0.1159
_diffrn_reflns_Laue_measured_fraction_full 0.910
_diffrn_reflns_Laue_measured_fraction_max 0.910
_diffrn_reflns_limit_h_max       17
_diffrn_reflns_limit_h_min       -13
_diffrn_reflns_limit_k_max       18
_diffrn_reflns_limit_k_min       -18
_diffrn_reflns_limit_l_max       21
_diffrn_reflns_limit_l_min       -23
_diffrn_reflns_number            16643
_diffrn_reflns_point_group_measured_fraction_full 0.910
_diffrn_reflns_point_group_measured_fraction_max 0.910
_diffrn_reflns_theta_full        25.000
_diffrn_reflns_theta_max         25.500
_diffrn_reflns_theta_min         2.096
_diffrn_source                   'fine-focus sealed tube'
_exptl_absorpt_coefficient_mu    1.559
_exptl_absorpt_correction_T_max  0.830
_exptl_absorpt_correction_T_min  0.720
_exptl_absorpt_correction_type   multi-scan
_exptl_absorpt_process_details   'SADABS 2.05 (Sheldrick, 2002)'
_exptl_crystal_colour            'dark red'
_exptl_crystal_density_diffrn    1.440
_exptl_crystal_description       block
_exptl_crystal_F_000             1713
_exptl_crystal_size_max          0.220
_exptl_crystal_size_mid          0.180
_exptl_crystal_size_min          0.120
_refine_diff_density_max         1.404
_refine_diff_density_min         -1.351
_refine_diff_density_rms         0.129
_refine_ls_extinction_method     none
_refine_ls_goodness_of_fit_ref   1.038
_refine_ls_hydrogen_treatment    constr
_refine_ls_matrix_type           full
_refine_ls_number_parameters     914
_refine_ls_number_reflns         13208
_refine_ls_number_restraints     18
_refine_ls_restrained_S_all      1.038
_refine_ls_R_factor_all          0.1695
_refine_ls_R_factor_gt           0.0907
_refine_ls_shift/su_max          0.000
_refine_ls_shift/su_mean         0.000
_refine_ls_structure_factor_coef Fsqd
_refine_ls_weighting_details
'w=1/[\s^2^(Fo^2^)+(0.0473P)^2^+42.7014P] where P=(Fo^2^+2Fc^2^)/3'
_refine_ls_weighting_scheme      calc
_refine_ls_wR_factor_gt          0.1738
_refine_ls_wR_factor_ref         0.2107
_reflns_Friedel_coverage         0.000
_reflns_number_gt                7420
_reflns_number_total             13208
_reflns_threshold_expression     'I > 2\s(I)'
_cod_data_source_file            ic5b02226_si_004.cif
_cod_data_source_block           19aprb_0m
_cod_database_code               4346843
_shelx_space_group_comment
;
The symmetry employed for this shelxl refinement is uniquely defined
by the following loop, which should always be used as a source of
symmetry information in preference to the above space-group names.
They are only intended as comments.
;
_shelx_estimated_absorpt_t_min   0.726
_shelx_estimated_absorpt_t_max   0.835
_shelxl_version_number           2014-3
_shelx_res_file
;
TITL 19aprb_0m in P -1
CELL  0.71069  14.8400  14.9970  19.2680   87.856   74.193   71.326
ZERR     1.00   0.0050   0.0050   0.0050    0.005    0.005    0.005
LATT   1
SFAC  C    H    N    MN   I    O
UNIT  163  189  16   4    6   2
MERG   2
OMIT     4.00 180.00
FMAP   2
PLAN   15
OMIT -3 51.0
OMIT 8   0  12
OMIT 9   1   7
OMIT 1  -3   2
OMIT 2  -3   1
OMIT -1  -3   2
OMIT 6   3   7
OMIT 0  -4   1
omit 7   5   9
omit 8   0   4
omit -2 -13  11
omit 15  -1  13
omit 10  -5  15
omit 2   0   1
omit 4  -9  11
LIST   1
isor 0.02 c37a
isor 0.005 c7s c8s
TEMP -173.0
bond $H
size 0.22 0.18 0.12 ! red block
acta 50
L.S.  20
WGHT    0.047300   42.701401
FVAR       0.06955   0.71077   0.47310
MN1   4    0.817435    0.490013    0.358180    11.00000    0.02508    0.02281 =
         0.02895   -0.00077   -0.00895    0.00326
MN2   4    0.873370    0.465107    0.156534    11.00000    0.02575    0.02613 =
         0.02845    0.00101   -0.00960   -0.00009
I1    5    0.480148    0.166989    0.242678    21.00000    0.06938    0.03977 =
         0.08674   -0.01330   -0.02144   -0.00680
part 1
I1A   5    0.497689    0.145599    0.274925   -21.00000    0.04478
part 0
I2    5    0.384819    0.019757    0.271254    11.00000    0.04233    0.04397 =
         0.04075   -0.01413   -0.00637    0.00102
I3    5    0.284495   -0.121173    0.295932    11.00000    0.04722    0.05078 =
         0.13160   -0.01999    0.00806   -0.00453
O1    6    0.873287    0.502999    0.254486    11.00000    0.03923    0.04376 =
         0.01650   -0.00259   -0.00636   -0.02210
N1    3    0.750445    0.626328    0.389996    11.00000    0.02856    0.01831 =
         0.04103   -0.00854   -0.01717   -0.00213
N2    3    0.934604    0.493325    0.388520    11.00000    0.02559    0.01921 =
         0.03166    0.00930   -0.00650    0.01180
N3    3    0.866980    0.349176    0.364666    11.00000    0.02532    0.02019 =
         0.03238    0.00288   -0.00353    0.00601
N4    3    0.684536    0.482783    0.361809    11.00000    0.03695    0.02117 =
         0.01988    0.00412   -0.00910    0.00184
N101  3    0.857153    0.591937    0.115439    11.00000    0.04155    0.02742 =
         0.03437    0.00001   -0.02001   -0.00331
N102  3    1.020720    0.428846    0.114994    11.00000    0.02715    0.02726 =
         0.01990    0.00632   -0.00225   -0.00634
N103  3    0.892733    0.326933    0.163756    11.00000    0.03274    0.03152 =
         0.01612   -0.00541   -0.00345   -0.01042
N104  3    0.729652    0.489688    0.163488    11.00000    0.03026    0.02546 =
         0.03186   -0.00940   -0.01744    0.00596
C1    1    0.665841    0.685388    0.373220    11.00000    0.02163    0.03402 =
         0.03370   -0.00998   -0.00697    0.00776
C2    1    0.651629    0.782723    0.392515    11.00000    0.02282    0.02625 =
         0.03053   -0.00730   -0.00792   -0.00013
C3    1    0.723599    0.781263    0.423294    11.00000    0.03018    0.02450 =
         0.02926   -0.00464    0.00296   -0.00630
C4    1    0.786757    0.685602    0.418760    11.00000    0.02234    0.02827 =
         0.01095    0.00041   -0.00317   -0.00362
C5    1    0.878002    0.657314    0.434566    11.00000    0.03488    0.03864 =
         0.01802    0.00234   -0.00773   -0.00875
AFIX  43
H5A   2    0.891968    0.702360    0.459692    11.00000   -1.20000
AFIX   0
C6    1    0.949452    0.570350    0.417135    11.00000    0.02928    0.03768 =
         0.02071    0.00806   -0.01354    0.00529
C7    1    1.051480    0.547619    0.417953    11.00000    0.02167    0.05567 =
         0.03009    0.02922   -0.00918   -0.00318
C8    1    1.099326    0.461016    0.385273    11.00000    0.01704    0.05290 =
         0.08579    0.03621   -0.01394   -0.01010
C9    1    1.028192    0.424326    0.368017    11.00000    0.02129    0.04523 =
         0.05489    0.01873    0.01011   -0.00339
C10   1    1.041495    0.332419    0.348131    11.00000    0.02462    0.02217 =
         0.14852    0.02130    0.00409    0.00592
C11   1    0.966068    0.295464    0.357160    11.00000    0.03959    0.02688 =
         0.03796    0.00959    0.00603    0.00842
C12   1    0.972199    0.196749    0.363516    11.00000    0.04012    0.02721 =
         0.02912    0.00556   -0.00142   -0.00148
C13   1    0.879131    0.191870    0.371820    11.00000    0.06104    0.01881 =
         0.02325    0.00409   -0.01926   -0.00213
C14   1    0.816549    0.285975    0.369949    11.00000    0.04675    0.02249 =
         0.01455   -0.01040   -0.01040   -0.00498
C15   1    0.717181    0.313728    0.369906    11.00000    0.03854    0.03933 =
         0.02480   -0.00023   -0.01623   -0.00803
AFIX  43
H15A  2    0.689066    0.264515    0.373058    11.00000   -1.20000
AFIX   0
C16   1    0.654602    0.403315    0.365882    11.00000    0.04526    0.02091 =
         0.02195    0.00185   -0.00754   -0.00506
C17   1    0.555310    0.427261    0.363181    11.00000    0.03645    0.03946 =
         0.02155    0.00140   -0.00773   -0.01387
C18   1    0.522399    0.522334    0.356418    11.00000    0.02689    0.03469 =
         0.02531   -0.00308   -0.01366   -0.00381
C19   1    0.602682    0.557511    0.355722    11.00000    0.03288    0.02644 =
         0.01580   -0.00264   -0.00842   -0.00432
C20   1    0.600510    0.652014    0.352197    11.00000    0.03924    0.02960 =
         0.05647    0.00340   -0.02583   -0.00489
C21   1    0.566179    0.868281    0.387303    11.00000    0.03834    0.03342 =
         0.04624   -0.00915   -0.02106    0.00161
AFIX  23
H21A  2    0.588511    0.924306    0.382469    11.00000   -1.20000
H21B  2    0.547709    0.860224    0.342853    11.00000   -1.20000
AFIX   0
C22   1    0.475746    0.886768    0.450628    11.00000    0.03036    0.03974 =
         0.07647    0.00449   -0.01030    0.00745
AFIX 137
H22A  2    0.422576    0.940635    0.441682    11.00000   -1.50000
H22B  2    0.491477    0.900798    0.494352    11.00000   -1.50000
H22C  2    0.454255    0.830917    0.457114    11.00000   -1.50000
AFIX   0
C23   1    0.737645    0.863171    0.457496    11.00000    0.03643    0.03107 =
         0.03786   -0.00235   -0.01446   -0.01020
AFIX  23
H23A  2    0.696766    0.922977    0.442719    11.00000   -1.20000
H23B  2    0.807793    0.860185    0.439694    11.00000   -1.20000
AFIX   0
C24   1    0.708817    0.862533    0.540044    11.00000    0.05397    0.03352 =
         0.04247   -0.01019   -0.00553   -0.00274
AFIX 137
H24A  2    0.718345    0.916839    0.560141    11.00000   -1.50000
H24B  2    0.750443    0.804218    0.554924    11.00000   -1.50000
H24C  2    0.639210    0.866133    0.557909    11.00000   -1.50000
AFIX   0
C25   1    1.088454    0.613076    0.448653    11.00000    0.02897    0.08427 =
         0.03188    0.01889   -0.01945   -0.01178
AFIX  23
H25A  2    1.148901    0.575781    0.462151    11.00000   -1.20000
H25B  2    1.038129    0.644363    0.493543    11.00000   -1.20000
AFIX   0
C26   1    1.112756    0.689568    0.398921    11.00000    0.04426    0.04773 =
         0.05170    0.00259   -0.02220   -0.00858
AFIX 137
H26A  2    1.132843    0.731514    0.424914    11.00000   -1.50000
H26B  2    1.054098    0.726147    0.383984    11.00000   -1.50000
H26C  2    1.166835    0.659854    0.356131    11.00000   -1.50000
AFIX   0
C27   1    1.209220    0.409649    0.367469    11.00000    0.02268    0.05112 =
         0.12086    0.02621   -0.02084   -0.00753
AFIX  23
H27A  2    1.220857    0.341006    0.370486    11.00000   -1.20000
H27B  2    1.236579    0.429653    0.403377    11.00000   -1.20000
AFIX   0
C28   1    1.262149    0.429533    0.292506    11.00000    0.02726    0.06449 =
         0.08345   -0.02942    0.00288   -0.00366
AFIX 137
H28A  2    1.332619    0.392928    0.281574    11.00000   -1.50000
H28B  2    1.254382    0.496893    0.290377    11.00000   -1.50000
H28C  2    1.233708    0.411649    0.257039    11.00000   -1.50000
AFIX   0
C29   1    1.060739    0.116869    0.371074    11.00000    0.06079    0.03734 =
         0.04055    0.00500   -0.02665    0.00100
AFIX  23
H29A  2    1.121765    0.127893    0.341483    11.00000   -1.20000
H29B  2    1.058378    0.057334    0.352316    11.00000   -1.20000
AFIX   0
C30   1    1.064770    0.106822    0.448848    11.00000    0.07355    0.04707 =
         0.09329    0.01519   -0.05773   -0.01401
AFIX 137
H30A  2    1.126745    0.058602    0.450725    11.00000   -1.50000
H30B  2    1.008636    0.088156    0.477176    11.00000   -1.50000
H30C  2    1.061533    0.167213    0.468921    11.00000   -1.50000
AFIX   0
C31   1    0.845737    0.107442    0.385529    11.00000    0.07061    0.02151 =
         0.06565   -0.00137   -0.04159   -0.00401
AFIX  23
H31A  2    0.904315    0.049795    0.374485    11.00000   -1.20000
H31B  2    0.805137    0.105683    0.352791    11.00000   -1.20000
AFIX   0
C32   1    0.784570    0.107936    0.464499    11.00000    0.06573    0.03146 =
         0.09643    0.02906   -0.03609   -0.02058
AFIX 137
H32A  2    0.768900    0.049000    0.472242    11.00000   -1.50000
H32B  2    0.723051    0.161373    0.474171    11.00000   -1.50000
H32C  2    0.822929    0.113749    0.497215    11.00000   -1.50000
AFIX   0
C33   1    0.498366    0.358577    0.369933    11.00000    0.04886    0.03752 =
         0.04430    0.00226   -0.01373   -0.01877
AFIX  23
H33A  2    0.544291    0.296671    0.347272    11.00000   -1.20000
H33B  2    0.447714    0.381267    0.343202    11.00000   -1.20000
AFIX   0
C34   1    0.447693    0.345887    0.448124    11.00000    0.05157    0.06336 =
         0.04886    0.02128   -0.01607   -0.03712
AFIX 137
H34A  2    0.407531    0.304890    0.449236    11.00000   -1.50000
H34B  2    0.405085    0.407453    0.471757    11.00000   -1.50000
H34C  2    0.497891    0.317159    0.473639    11.00000   -1.50000
AFIX   0
C35   1    0.415798    0.580113    0.363821    11.00000    0.01730    0.06369 =
         0.03851   -0.00119   -0.00804   -0.01132
AFIX  23
H35A  2    0.413741    0.626191    0.325650    11.00000   -1.20000
H35B  2    0.380076    0.537706    0.355574    11.00000   -1.20000
AFIX   0
C36   1    0.362822    0.632113    0.435451    11.00000    0.03895    0.06150 =
         0.05695   -0.01869   -0.01361   -0.00090
AFIX 137
H36A  2    0.296945    0.673156    0.434313    11.00000   -1.50000
H36B  2    0.400462    0.670429    0.446051    11.00000   -1.50000
H36C  2    0.356275    0.586895    0.473018    11.00000   -1.50000
AFIX   0
C101  1    0.772040    0.667919    0.133303    11.00000    0.05258    0.01869 =
         0.08089    0.00101   -0.04585    0.00776
C102  1    0.795752    0.752651    0.103378    11.00000    0.06894    0.01940 =
         0.11592    0.00440   -0.06794   -0.00302
C103  1    0.892389    0.724374    0.066506    11.00000    0.06922    0.03019 =
         0.04972    0.00187   -0.03823   -0.00701
C104  1    0.931007    0.627076    0.076546    11.00000    0.05594    0.02563 =
         0.02667   -0.00436   -0.02409   -0.00299
C105  1    1.030970    0.574368    0.055344    11.00000    0.05184    0.03021 =
         0.01573    0.00357   -0.00607   -0.01948
AFIX  43
H10A  2    1.074421    0.602799    0.024284    11.00000   -1.20000
AFIX   0
C106  1    1.072877    0.484209    0.075412    11.00000    0.04026    0.02666 =
         0.02372   -0.00576   -0.00020   -0.00461
C107  1    1.178434    0.437125    0.065335    11.00000    0.03371    0.02881 =
         0.05139    0.00017    0.00160    0.00050
C108  1    1.187641    0.357812    0.103146    11.00000    0.02308    0.05417 =
         0.09391    0.03333   -0.00229   -0.00705
C109  1    1.090154    0.351146    0.131826    11.00000    0.03349    0.02673 =
         0.06194    0.01572   -0.01176    0.00200
C110  1    1.066610    0.272989    0.166400    11.00000    0.02536    0.03940 =
         0.08133    0.03214   -0.00847   -0.00208
C111  1    0.977526    0.257628    0.171845    11.00000    0.03961    0.02690 =
         0.03204    0.01209   -0.01410    0.00147
C112  1    0.959721    0.167414    0.181368    11.00000    0.04098    0.02203 =
         0.02316    0.00348   -0.00718   -0.00474
C113  1    0.866448    0.183026    0.175960    11.00000    0.04313    0.04323 =
         0.01989    0.00634   -0.01040   -0.02012
C114  1    0.823518    0.281604    0.167952    11.00000    0.03833    0.03437 =
         0.01870    0.00225   -0.00428   -0.01377
C115  1    0.725631    0.328202    0.167711    11.00000    0.04312    0.03334 =
         0.02291    0.00290   -0.00851   -0.00733
AFIX  43
H11A  2    0.685169    0.290064    0.168455    11.00000   -1.20000
AFIX   0
C116  1    0.682709    0.422858    0.166513    11.00000    0.03689    0.05279 =
         0.01371   -0.00283   -0.00943   -0.01692
C117  1    0.579349    0.470888    0.169807    11.00000    0.02007    0.05597 =
         0.02746    0.00023   -0.00640    0.00074
C118  1    0.564539    0.564221    0.173125    11.00000    0.02008    0.05930 =
         0.02359   -0.01037   -0.01019    0.00091
C119  1    0.658956    0.576988    0.168027    11.00000    0.03712    0.03833 =
         0.04211   -0.01662   -0.02381    0.01012
C120  1    0.678020    0.661363    0.165154    11.00000    0.03641    0.03722 =
         0.16407   -0.02818   -0.05442    0.01033
C121  1    0.721132    0.850656    0.114833    11.00000    0.06351    0.02267 =
         0.15438    0.02130   -0.06200    0.00172
AFIX  23
H12A  2    0.741604    0.888214    0.073797    11.00000   -1.20000
H12B  2    0.656224    0.846054    0.114355    11.00000   -1.20000
AFIX   0
C122  1    0.708732    0.902193    0.183801    11.00000    0.08438    0.03353 =
         0.08920    0.00767    0.02609    0.00966
AFIX 137
H12C  2    0.653255    0.961115    0.190365    11.00000   -1.50000
H12D  2    0.769458    0.916388    0.181579    11.00000   -1.50000
H12E  2    0.695382    0.862750    0.224522    11.00000   -1.50000
AFIX   0
C123  1    0.951295    0.783879    0.024206    11.00000    0.08300    0.03026 =
         0.04231    0.00933   -0.02983   -0.00347
AFIX  23
H12F  2    1.002403    0.744861   -0.017406    11.00000   -1.20000
H12G  2    0.906507    0.836373    0.004777    11.00000   -1.20000
AFIX   0
C124  1    1.000927    0.824160    0.067086    11.00000    0.05323    0.05310 =
         0.05249    0.00349   -0.00453   -0.01976
AFIX 137
H12H  2    1.033282    0.865499    0.037160    11.00000   -1.50000
H12I  2    1.050524    0.772809    0.082410    11.00000   -1.50000
H12J  2    0.951447    0.860527    0.109740    11.00000   -1.50000
AFIX   0
C125  1    1.257537    0.474932    0.023934    11.00000    0.03644    0.04017 =
         0.04317    0.00363    0.00520   -0.00325
AFIX  23
H12K  2    1.238532    0.505781   -0.018626    11.00000   -1.20000
H12L  2    1.319534    0.421705    0.006021    11.00000   -1.20000
AFIX   0
C126  1    1.277020    0.545285    0.067731    11.00000    0.05013    0.07138 =
         0.04847    0.01605   -0.00895   -0.02323
AFIX 137
H12M  2    1.326914    0.569968    0.036709    11.00000   -1.50000
H12N  2    1.301173    0.513970    0.107785    11.00000   -1.50000
H12O  2    1.215553    0.597340    0.086979    11.00000   -1.50000
AFIX   0
C127  1    1.291688    0.283737    0.121340    11.00000    0.03421    0.08518 =
         0.24738   -0.07532    0.06458   -0.01028
AFIX  23
H12P  2    1.342186    0.314102    0.120437    11.00000   -1.20000
H12Q  2    1.278059    0.250571    0.166451    11.00000   -1.20000
AFIX   0
C128  1    1.311967    0.229123    0.060185    11.00000    0.11477    0.22834 =
         0.14495    0.13242   -0.06671   -0.09658
AFIX 137
H12R  2    1.378871    0.183724    0.050742    11.00000   -1.50000
H12S  2    1.307578    0.269348    0.019153    11.00000   -1.50000
H12T  2    1.263980    0.195169    0.066845    11.00000   -1.50000
AFIX   0
C129  1    1.031950    0.073021    0.185290    11.00000    0.05296    0.02549 =
         0.02418    0.01185   -0.00097   -0.00398
AFIX  43
H12U  2    1.027539    0.041058    0.228977    11.00000   -1.20000
AFIX   0
C130  1    1.111523    0.030655    0.117860    11.00000    0.07969    0.04480 =
         0.05322    0.00475    0.00374    0.01331
AFIX 137
H13A  2    1.153002   -0.031476    0.127232    11.00000   -1.50000
H13B  2    1.152283    0.071706    0.102355    11.00000   -1.50000
H13C  2    1.081485    0.023942    0.079757    11.00000   -1.50000
AFIX   0
C131  1    0.812198    0.112141    0.176860    11.00000    0.05115    0.04677 =
         0.03422    0.00000   -0.00881   -0.01814
AFIX  23
H13D  2    0.742912    0.139040    0.206692    11.00000   -1.20000
H13E  2    0.844194    0.054248    0.199010    11.00000   -1.20000
AFIX   0
C132  1    0.813215    0.086975    0.100080    11.00000    0.08859    0.05279 =
         0.05425    0.00234   -0.02173   -0.03589
AFIX 137
H13F  2    0.779545    0.040020    0.101961    11.00000   -1.50000
H13G  2    0.881786    0.061051    0.070361    11.00000   -1.50000
H13H  2    0.778964    0.143791    0.078908    11.00000   -1.50000
AFIX   0
C133  1    0.508720    0.418993    0.167870    11.00000    0.03509    0.06944 =
         0.04438    0.00221   -0.00975   -0.01384
AFIX  23
H13I  2    0.440117    0.462205    0.186247    11.00000   -1.20000
H13J  2    0.517906    0.366200    0.200462    11.00000   -1.20000
AFIX   0
C134  1    0.522568    0.380642    0.093352    11.00000    0.05294    0.07665 =
         0.05601    0.00946   -0.01761   -0.04025
AFIX 137
H13K  2    0.473009    0.349816    0.094877    11.00000   -1.50000
H13L  2    0.588979    0.334715    0.076031    11.00000   -1.50000
H13M  2    0.514742    0.432395    0.060570    11.00000   -1.50000
AFIX   0
C135  1    0.472127    0.643195    0.172114    11.00000    0.02808    0.06634 =
         0.03524   -0.00306   -0.00759    0.00580
AFIX  23
H13N  2    0.465044    0.696002    0.204688    11.00000   -1.20000
H13O  2    0.414477    0.621094    0.191611    11.00000   -1.20000
AFIX   0
C136  1    0.469728    0.679812    0.097969    11.00000    0.05936    0.06782 =
         0.05202   -0.00268   -0.01594    0.00259
AFIX 137
H13P  2    0.408954    0.732994    0.102190    11.00000   -1.50000
H13Q  2    0.471417    0.629421    0.066207    11.00000   -1.50000
H13R  2    0.527265    0.700681    0.077601    11.00000   -1.50000
AFIX   0
C37   1    0.538154    0.713126    0.303551    31.00000    0.03270    0.01397 =
         0.02544   -0.00581   -0.00657   -0.01575
AFIX  23
H37A  2    0.493802    0.771954    0.332019    31.00000   -1.20000
H37B  2    0.495465    0.678624    0.294235    31.00000   -1.20000
AFIX   0
C137  1    0.593716    0.741867    0.228129    31.00000    0.02403    0.01818 =
         0.03221    0.00429   -0.01702   -0.00399
AFIX  23
H13S  2    0.626815    0.785521    0.238580    31.00000   -1.20000
H13T  2    0.542095    0.778934    0.205376    31.00000   -1.20000
AFIX   0

C37A  1    1.136994    0.268885    0.285237   -31.00000    0.03206    0.01366 =
         0.03627    0.00245   -0.00165    0.00096
AFIX  23
H37C  2    1.175805    0.311113    0.264693   -31.00000   -1.20000
H37D  2    1.177943    0.220914    0.310555   -31.00000   -1.20000
AFIX   0

C37B  1    1.131652    0.214584    0.218698   -31.00000    0.02823    0.01651 =
         0.02810    0.00070    0.00112   -0.00308
AFIX  23
H37E  2    1.105462    0.162840    0.237522   -31.00000   -1.20000
H37F  2    1.200207    0.185002    0.188346   -31.00000   -1.20000

AFIX   0
C1S   1    1.039231    0.665386    0.224130    11.00000    0.19629    0.04257 =
         0.02420    0.00303   -0.03021   -0.03175
AFIX  43
H1SA  2    1.061912    0.600909    0.207947    11.00000   -1.20000
AFIX   0
C2S   1    1.106975    0.718192    0.221431    11.00000    0.08151    0.13210 =
         0.02844    0.01688   -0.01360   -0.01896
AFIX  43
H2SA  2    1.176284    0.688574    0.202742    11.00000   -1.20000
AFIX   0
C3S   1    1.070671    0.809560    0.245664    11.00000    0.16268    0.08930 =
         0.04853    0.01345   -0.03498   -0.08159
AFIX  43
H3SA  2    1.114587    0.844293    0.244104    11.00000   -1.20000
AFIX   0
C4S   1    0.971822    0.851832    0.272191    11.00000    0.18327    0.05173 =
         0.03305    0.01677   -0.02305   -0.04386
AFIX  43
H4SA  2    0.947401    0.915438    0.290736    11.00000   -1.20000
AFIX   0
C5S   1    0.907921    0.805760    0.272782    11.00000    0.12000    0.07105 =
         0.02814    0.01462   -0.00345   -0.01945
AFIX  43
H5SA  2    0.838761    0.837977    0.288450    11.00000   -1.20000
AFIX   0
C6S   1    0.941338    0.714168    0.251295    11.00000    0.15513    0.08393 =
         0.02568    0.01089   -0.00598   -0.07150
AFIX  43
H6SA  2    0.894668    0.681925    0.255199    11.00000   -1.20000

AFIX   0
C7S   1    0.518046    1.009746    0.062370    10.50000    0.03138    0.03492 =
         0.02209    0.00325   -0.01623    0.00391
AFIX  43
H7SA  2    0.529335    1.017945    0.107574    10.50000   -1.20000
AFIX   0
C8S   1    0.450595    0.968290    0.060327    10.50000    0.03774    0.03484 =
         0.02692    0.00531   -0.00902   -0.00123
AFIX  43
H8SA  2    0.417928    0.945113    0.103048    10.50000   -1.20000
AFIX   0
C9S   1    0.570738    1.040408    0.002625    10.50000    0.04294    0.06362 =
         0.03961   -0.01102   -0.02579    0.01625
AFIX   1
H9SA  2    0.619638    1.068161    0.004867    10.50000   -1.20000
AFIX   0
HKLF    4

REM  19aprb_0m in P -1
REM R1 =  0.0907 for    7420 Fo > 4sig(Fo)  and  0.1695 for all   13208 data
REM    914 parameters refined using     18 restraints

END

WGHT      0.0474     42.7010

REM Highest difference peak  1.404,  deepest hole -1.351,  1-sigma level  0.129
Q1    1   0.3265 -0.1223  0.3200  11.00000  0.05    1.40
Q2    1   0.3019 -0.1074  0.2520  11.00000  0.05    1.04
Q3    1   0.4972  0.9768  0.0712  11.00000  0.05    0.93
Q4    1   0.4160 -0.0375  0.2305  11.00000  0.05    0.92
Q5    1   0.3470  0.0802  0.3150  11.00000  0.05    0.90
Q6    1   0.3589  0.0787  0.2919  11.00000  0.05    0.86
Q7    1   0.5328  1.0438  0.0619  11.00000  0.05    0.83
Q8    1   0.4238  0.9381  0.0509  11.00000  0.05    0.83
Q9    1   0.4178  0.0830  0.2188  11.00000  0.05    0.82
Q10   1   0.2603 -0.1251  0.3039  11.00000  0.05    0.80
Q11   1   0.8367  0.4238  0.3586  11.00000  0.05    0.77
Q12   1   0.5020  0.1103  0.2180  11.00000  0.05    0.76
Q13   1   0.7843  0.5486  0.3870  11.00000  0.05    0.74
Q14   1   0.8448  0.4034  0.2100  11.00000  0.05    0.71
Q15   1   0.4574  1.0109  0.0560  11.00000  0.05    0.68
;
_shelx_res_checksum              10318
_shelx_hkl_file
;
  -2   0   0   34.02    1.10
   2   0   0   37.59    1.10
  -3   0   0   15.07    0.57
   3   0   0   14.15    0.57
   4   0   0   11.13    0.54
   5   0   0  126.64    3.79
   6   0   0    1.91    0.35
   7   0   0    3.74    0.52
   8   0   0   13.50    0.77
   9   0   0   85.09    2.82
  10   0   0   24.40    1.17
  11   0   0    0.40    0.52
  12   0   0   19.50    1.18
  13   0   0    6.99    1.02
  14   0   0    0.53    0.78
  15   0   0    0.34    0.94
  16   0   0   -1.54    1.08
  17   0   0   -0.31    1.22
  18   0   0   -1.23    1.38
  17  -1   0    0.42    1.28
  16  -1   0   -1.35    1.16
  15  -1   0    2.14    1.01
  14  -1   0    0.67    0.82
  13  -1   0   19.15    1.28
  12  -1   0   21.85    1.28
  11  -1   0    1.15    0.56
  10  -1   0   10.70    0.84
   9  -1   0   31.41    1.33
   8  -1   0    1.04    0.39
   7  -1   0    0.00    0.35
   6  -1   0    4.36    0.49
   5  -1   0   17.91    0.79
   4  -1   0    6.27    0.42
   3  -1   0   95.30    2.84
  -3   1   0   96.37    2.85
   2  -1   0    7.10    0.33
  -2   1   0    6.93    0.33
   1  -1   0  121.15    3.44
  -3  -1   0   20.33    0.71
   3   1   0   20.70    0.72
  -4  -1   0   12.76    0.56
   4   1   0   12.85    0.57
   5   1   0    3.29    0.37
   6   1   0   22.68    0.93
   7   1   0    1.51    0.31
   8   1   0   76.81    2.54
   9   1   0   57.03    2.06
  10   1   0   13.89    0.86
  11   1   0    6.12    0.78
  12   1   0   -0.10    0.57
  13   1   0    4.11    0.68
  14   1   0    3.24    0.76
  15   1   0    0.67    0.89
  16   1   0    3.89    1.07
  17   1   0    1.67    1.14
  18   1   0    2.77    1.31
  17  -2   0   -1.57    1.40
  16  -2   0   -0.06    1.25
  15  -2   0   -0.64    1.08
  14  -2   0    6.19    0.95
  13  -2   0    5.26    0.82
  12  -2   0    7.87    1.06
  11  -2   0    1.39    0.61
  10  -2   0    0.94    0.53
   9  -2   0    0.98    0.46
   8  -2   0    4.47    0.62
   7  -2   0    1.97    0.41
   6  -2   0   14.03    0.75
   5  -2   0   36.49    1.33
   4  -2   0   98.45    2.98
   3  -2   0  100.24    3.02
  -3   2   0  103.35    3.07
   2  -2   0   30.30    0.98
  -2   2   0   29.13    0.98
   1  -2   0   87.81    2.77
  -1   2   0   88.30    2.76
   0  -2   0   56.93    1.83
   0  -2   0   56.95    1.64
   0   2   0   58.07    1.65
  -1  -2   0   -0.02    0.06
  -1  -2   0    0.12    0.13
   1   2   0    0.15    0.07
   1   2   0    0.05    0.13
  -2  -2   0   -0.42    0.07
   2   2   0   -0.41    0.07
  -4  -2   0   77.59    2.36
   4   2   0   79.60    2.36
   5   2   0   70.25    2.18
   6   2   0    1.27    0.28
   7   2   0    2.57    0.38
   8   2   0   32.27    1.29
   9   2   0   49.36    1.81
  10   2   0    4.09    0.65
  11   2   0   -0.53    0.48
  12   2   0   -0.44    0.55
  13   2   0    1.65    0.63
  14   2   0    1.33    0.70
  15   2   0    3.06    0.86
  16   2   0    7.10    1.09
  17   2   0    2.86    1.10
  18   2   0   -0.89    1.22
  15  -3   0    1.57    1.19
  14  -3   0    0.09    0.97
  13  -3   0   34.16    1.75
  12  -3   0    0.78    0.76
  11  -3   0    1.36    0.67
  10  -3   0   -0.04    0.56
   9  -3   0   13.54    0.91
   8  -3   0    4.24    0.63
   7  -3   0   25.00    1.12
   6  -3   0    5.16    0.56
   5  -3   0  111.07    3.42
   4  -3   0  127.57    3.82
   3  -3   0   77.71    2.37
   2  -3   0   15.78    0.74
  -2   3   0   16.93    0.74
   1  -3   0   84.71    2.78
  -1   3   0   87.38    2.78
   0  -3   0   76.36    2.22
   0  -3   0   75.64    2.48
   0   3   0   76.38    2.23
   0   3   0   77.33    2.49
  -1  -3   0    1.37    0.25
  -1  -3   0    1.32    0.18
   1   3   0    1.41    0.21
   1   3   0    1.35    0.22
  -2  -3   0    0.03    0.19
  -2  -3   0    0.20    0.10
   2   3   0    0.27    0.11
   2   3   0    0.19    0.19
  -3  -3   0    0.34    0.11
   3   3   0    0.27    0.11
   4   3   0  128.31    3.68
   6   3   0  176.33    5.16
   7   3   0    8.84    0.58
   8   3   0    2.49    0.49
   9   3   0    0.48    0.37
  10   3   0    0.77    0.45
  11   3   0    0.67    0.48
  12   3   0    0.31    0.52
  13   3   0    2.78    0.62
  14   3   0   18.54    1.26
  15   3   0    1.94    0.84
  16   3   0    1.62    0.93
  17   3   0    2.39    1.08
  18   3   0    0.68    1.17
  16  -4   0    5.97    1.49
  15  -4   0   -0.05    1.32
  14  -4   0    6.64    1.17
  13  -4   0   -0.32    0.94
  12  -4   0    1.54    0.84
  11  -4   0    0.61    0.72
  10  -4   0    6.42    0.91
   9  -4   0    0.55    0.55
   8  -4   0    6.61    0.74
   7  -4   0   23.77    1.12
   6  -4   0    4.16    0.60
   5  -4   0   34.40    1.32
   4  -4   0  108.93    3.33
   3  -4   0   10.16    0.68
   2  -4   0    0.05    0.36
   1  -4   0   26.54    0.95
   1  -4   0   27.25    1.10
   0  -4   0   33.98    1.16
   0  -4   0   34.84    1.33
   0   4   0   35.91    1.38
   0   4   0   36.27    1.20
  -1  -4   0   27.46    0.95
  -1  -4   0   26.25    1.07
   1   4   0   27.26    0.98
   1   4   0   27.48    1.07
  -2  -4   0    0.41    0.12
  -2  -4   0    0.44    0.26
   2   4   0    0.21    0.15
   2   4   0    0.20    0.27
   3   4   0   13.10    0.59
   4   4   0  352.68    9.65
   5   4   0  192.73    5.47
   6   4   0   28.31    1.12
   7   4   0    4.35    0.43
   9   4   0    6.04    0.64
  11   4   0    1.21    0.47
  12   4   0    0.92    0.52
  13   4   0    8.24    0.95
  14   4   0   14.31    1.18
  15   4   0   10.67    1.28
  16   4   0    1.39    0.90
  17   4   0   -0.74    1.03
  18   4   0   -2.08    1.13
  18   4   0    0.07    0.77
  15  -5   0   -2.39    1.42
  14  -5   0    0.17    1.23
  13  -5   0    1.18    1.03
  12  -5   0    1.04    0.91
  11  -5   0   -0.09    0.81
  10  -5   0    8.80    1.05
   9  -5   0    0.46    0.62
   8  -5   0   73.01    2.53
   7  -5   0   60.29    2.12
   6  -5   0    7.12    0.69
   5  -5   0   19.51    0.92
   3  -5   0    5.01    0.67
   2  -5   0   49.18    1.86
   1  -5   0   24.34    1.10
   0  -5   0   40.24    1.52
   0   5   0   38.54    1.34
  -1  -5   0   94.58    3.13
   1   5   0   94.29    2.82
  -2  -5   0  197.71    6.20
   2   5   0  199.61    5.58
  -3  -5   0   16.55    0.83
   3   5   0   17.74    0.75
   4   5   0   82.91    2.54
   5   5   0   57.52    1.89
   6   5   0    4.00    0.39
   7   5   0    1.34    0.24
   8   5   0    6.62    0.59
   9   5   0    3.51    0.59
  10   5   0    0.95    0.33
  11   5   0   14.03    0.93
  11   5   0   17.64    0.95
  12   5   0    0.42    0.39
  12   5   0    0.73    0.55
  13   5   0   14.64    1.01
  14   5   0    7.25    1.11
  14   5   0    8.58    0.97
  15   5   0    0.82    0.55
  16   5   0    0.24    0.61
  16   5   0   -1.09    0.91
  17   5   0   -1.00    0.69
  18   5   0   -1.81    1.11
  18   5   0    0.24    0.79
  15  -6   0   -2.61    1.53
  14  -6   0    3.00    1.41
  13  -6   0   -0.88    1.18
  12  -6   0   -0.68    1.02
  11  -6   0   11.72    1.32
  10  -6   0    0.31    0.79
   9  -6   0    8.66    1.01
   8  -6   0   58.71    2.17
   7  -6   0   23.60    1.14
   3  -6   0   44.82    1.84
   2  -6   0    5.97    0.71
   1  -6   0   24.23    1.15
   0  -6   0  142.18    4.65
  -1  -6   0  222.48    6.96
   1   6   0  219.45    6.23
  -2  -6   0   24.32    1.11
   2   6   0   24.72    0.98
  -3  -6   0   10.56    0.71
   3   6   0   12.18    0.62
  -4  -6   0    3.00    0.44
   4   6   0    1.99    0.34
   5   6   0    0.18    0.18
   6   6   0    6.75    0.52
   7   6   0    0.81    0.25
   8   6   0    0.24    0.27
   9   6   0    3.13    0.55
  10   6   0   24.77    1.16
  11   6   0   13.80    0.90
  12   6   0    2.55    0.44
  13   6   0    5.34    0.85
  14   6   0    0.48    0.51
  15   6   0    2.10    0.57
  16   6   0    3.42    0.65
  17   6   0    1.22    0.71
  18   6   0    1.04    0.79
  18   6   0   -0.80    1.12
  14  -7   0   -2.46    1.49
  13  -7   0    2.08    1.35
  12  -7   0    4.17    1.11
  11  -7   0    4.24    1.03
  10  -7   0    5.63    0.93
   9  -7   0    5.94    1.08
   8  -7   0    4.93    0.72
   7  -7   0    1.26    0.58
   4  -7   0    4.01    0.78
   3  -7   0    5.07    0.87
   2  -7   0   30.95    1.48
   1  -7   0   14.60    0.99
   0  -7   0   50.56    2.01
  -1  -7   0   76.15    2.75
   1   7   0   77.12    2.46
  -2  -7   0  149.30    4.91
   2   7   0  150.53    4.41
  -3  -7   0   18.33    0.97
   3   7   0   18.38    0.84
  -4  -7   0   23.46    1.11
   4   7   0   23.43    0.99
   5   7   0    5.14    0.48
   6   7   0    1.35    0.27
   7   7   0    0.62    0.26
   8   7   0   13.22    0.81
   9   7   0   15.53    0.87
  10   7   0   59.26    2.20
  11   7   0   17.21    1.03
  12   7   0   -0.36    0.43
  13   7   0    0.93    0.48
  14   7   0    0.19    0.54
  15   7   0    6.46    1.09
  16   7   0    0.20    0.66
  17   7   0   -0.72    0.72
  18   7   0    2.15    0.82
  14  -8   0   -3.01    1.58
  13  -8   0   -1.70    1.49
  12  -8   0    2.65    1.32
  11  -8   0   30.09    1.85
   8  -8   0    0.42    0.76
   4  -8   0    6.62    1.03
   3  -8   0   12.84    1.17
   2  -8   0   40.94    1.87
   1  -8   0    5.65    0.91
   0  -8   0   24.31    1.31
  -1  -8   0   68.64    2.58
   1   8   0   67.61    2.28
  -2  -8   0   37.56    1.66
   2   8   0   39.32    1.46
  -3  -8   0    5.55    0.73
   3   8   0    4.68    0.51
  -4  -8   0    6.46    0.78
   4   8   0    7.65    0.57
  -5  -8   0    1.60    0.60
   5   8   0    1.07    0.27
   6   8   0    0.38    0.26
   7   8   0    6.89    0.63
   8   8   0    7.66    0.60
   9   8   0   67.89    2.42
  10   8   0   23.39    1.19
  11   8   0    1.25    0.42
  12   8   0    0.98    0.46
  13   8   0    2.39    0.52
  14   8   0    3.35    0.59
  15   8   0    1.06    0.62
  16   8   0    1.07    0.69
  17   8   0   -0.14    0.76
  18   8   0   -0.05    0.85
  13  -9   0   -0.16    1.61
  12  -9   0   10.44    1.57
   4  -9   0    7.84    1.23
   3  -9   0   86.47    3.27
   2  -9   0   54.07    2.27
   1  -9   0   -0.12    0.82
   0  -9   0    8.26    1.01
  -1  -9   0    0.81    0.72
   1   9   0    0.38    0.35
  -2  -9   0    1.83    0.70
   2   9   0    1.07    0.34
  -3  -9   0    5.06    0.87
   3   9   0    5.66    0.57
  -4  -9   0    0.65    0.67
   4   9   0    0.39    0.30
  -5  -9   0   -0.14    0.69
   5   9   0    0.24    0.30
   6   9   0   50.85    1.91
   7   9   0   55.35    2.02
   8   9   0    1.47    0.34
   9   9   0    0.16    0.35
  10   9   0    6.94    0.72
  11   9   0   -0.23    0.44
  12   9   0    1.40    0.48
  13   9   0    1.55    0.54
  14   9   0   -0.02    0.59
  15   9   0    0.53    0.68
  16   9   0    1.75    0.76
  17   9   0   -0.73    0.84
  18   9   0    4.53    0.95
   6 -10   0   31.44    2.03
   5 -10   0    6.75    1.31
   4 -10   0   14.23    1.50
   3 -10   0   31.04    1.74
   2 -10   0   13.68    1.28
   1 -10   0   17.04    1.26
   0 -10   0    1.02    0.80
  -1 -10   0    1.00    0.80
  -2 -10   0   21.25    1.30
   2  10   0   22.49    1.15
  -3 -10   0    4.24    0.80
   3  10   0    5.81    0.69
  -4 -10   0    0.38    0.80
   4  10   0    0.05    0.34
  -5 -10   0   67.10    2.61
   5  10   0   63.44    2.28
  -6 -10   0   44.08    2.06
   6  10   0   47.44    1.78
   7  10   0    1.76    0.34
   8  10   0   16.01    0.90
   9  10   0    1.58    0.39
  10  10   0    4.33    0.75
  11  10   0    2.93    0.47
  12  10   0    0.76    0.50
  13  10   0    0.66    0.57
  14  10   0   -0.24    0.63
  15  10   0    7.75    1.29
  16  10   0    2.78    0.78
  17  10   0   -0.56    0.84
  18  10   0   -0.42    0.93
   5 -11   0    2.06    1.46
   4 -11   0    4.63    1.34
   3 -11   0    3.67    1.21
   2 -11   0    1.96    1.07
   1 -11   0   10.09    1.29
   0 -11   0    2.18    0.91
  -1 -11   0   17.75    1.30
  -2 -11   0   43.91    2.03
   2  11   0   44.02    1.75
  -3 -11   0   24.77    1.45
   3  11   0   22.92    1.18
  -4 -11   0   12.48    1.15
   4  11   0    9.76    0.82
  -5 -11   0    3.43    0.88
   5  11   0    3.57    0.65
  -6 -11   0   24.30    1.41
   6  11   0   21.15    1.10
   7  11   0   11.47    0.83
   8  11   0    4.68    0.69
   9  11   0    0.18    0.41
  10  11   0    0.73    0.45
  11  11   0    0.45    0.49
  12  11   0    0.19    0.56
  13  11   0    1.80    0.62
  14  11   0    6.51    1.22
  15  11   0    2.38    0.75
  16  11   0    0.54    0.81
  17  11   0    0.22    0.91
  18  11   0    0.91    1.02
   6 -12   0   13.49    2.15
   5 -12   0    1.02    1.71
   4 -12   0    1.53    1.53
   3 -12   0    2.39    1.45
   2 -12   0    3.61    1.29
   1 -12   0    2.35    1.15
   0 -12   0    3.08    1.07
  -1 -12   0    7.12    1.26
  -2 -12   0   18.11    1.40
   2  12   0   18.14    1.08
  -3 -12   0   30.64    1.72
   3  12   0   32.11    1.47
  -4 -12   0    4.29    0.95
   4  12   0    2.64    0.48
  -5 -12   0   21.02    1.40
   5  12   0   18.55    1.08
  -6 -12   0    1.86    0.93
   6  12   0    1.08    0.45
  -7 -12   0    0.94    0.99
   7  12   0   -0.45    0.43
   8  12   0    0.21    0.43
   9  12   0    1.05    0.44
  10  12   0    1.32    0.50
  11  12   0    1.80    0.54
  12  12   0    2.58    0.59
  13  12   0   -0.03    0.66
  14  12   0    2.45    0.75
  15  12   0    1.39    0.82
  16  12   0   -0.91    0.89
  17  12   0   -1.16    0.98
  18  12   0   -1.01    1.07
   6 -13   0    1.41    2.08
   5 -13   0   -1.50    1.96
   4 -13   0    0.77    1.81
   3 -13   0    1.24    1.64
   2 -13   0    3.54    1.55
   1 -13   0    2.94    1.40
   0 -13   0    9.71    1.53
  -1 -13   0    3.92    1.17
  -2 -13   0   31.27    1.85
  -3 -13   0    6.78    1.35
   3  13   0    6.72    0.91
  -4 -13   0    2.12    1.07
   4  13   0    0.79    0.52
  -5 -13   0    2.28    1.06
   5  13   0   -0.22    0.49
  -6 -13   0    2.70    1.10
  -7 -13   0    2.02    1.11
   7  13   0   -0.21    0.49
   8  13   0    6.23    0.88
   9  13   0   -0.34    0.50
  10  13   0    0.52    0.53
  11  13   0   10.81    1.11
  12  13   0    6.78    1.12
  13  13   0    0.61    0.71
  14  13   0   -0.07    0.78
  15  13   0   -0.22    0.87
  16  13   0   -0.28    0.96
  17  13   0    0.17    1.06
   6 -14   0    0.31    2.35
   5 -14   0   -1.20    2.16
   4 -14   0   -0.19    2.06
   3 -14   0   -0.42    1.92
   2 -14   0    5.21    1.77
   1 -14   0   13.00    2.02
   0 -14   0    1.46    1.50
  -1 -14   0   13.67    1.72
  -2 -14   0    7.56    1.56
  -3 -14   0    3.26    1.26
  -4 -14   0    4.78    1.23
   4  14   0    2.46    0.61
  -5 -14   0    5.05    1.22
   5  14   0    2.46    0.58
  -6 -14   0    2.90    1.22
  -7 -14   0    1.01    1.24
   7  14   0    0.05    0.54
   8  14   0    5.87    0.94
   9  14   0    0.60    0.56
  10  14   0    2.13    0.60
  11  14   0    0.46    0.63
  12  14   0    1.16    0.68
  13  14   0    1.13    0.75
  14  14   0    0.04    0.84
  15  14   0   -0.42    0.93
  16  14   0   -0.11    1.04
  17  14   0   -1.05    1.13
   7 -15   0    8.70    2.99
   6 -15   0    3.09    2.73
   5 -15   0    2.48    2.55
   4 -15   0    0.61    2.36
   3 -15   0    3.69    2.25
   2 -15   0   12.94    2.41
   1 -15   0   13.03    2.29
   0 -15   0    3.08    1.80
  -1 -15   0    3.30    1.68
  -2 -15   0    1.42    1.55
  -3 -15   0    1.19    1.49
  -4 -15   0   12.82    1.77
   4  15   0   11.19    1.22
   5  15   0    3.23    0.69
  -6 -15   0    1.06    1.43
   6  15   0   -0.54    0.63
  -7 -15   0   16.20    1.84
   7  15   0   13.12    1.20
  -8 -15   0    1.64    1.50
   8  15   0    0.03    0.61
   9  15   0   -0.38    0.64
  10  15   0    0.31    0.65
  11  15   0    4.31    0.73
  12  15   0   -0.47    0.74
  13  15   0   -0.97    0.80
  14  15   0   -0.27    0.88
  15  15   0    2.41    0.99
  16  15   0    0.96    1.10
   5 -16   0    2.32    2.98
   4 -16   0    3.89    2.70
   3 -16   0   -0.35    2.52
   2 -16   0    6.23    2.44
   1 -16   0   12.76    2.31
   0 -16   0    2.36    2.08
  -1 -16   0    3.32    1.94
  -2 -16   0   -0.11    1.85
  -3 -16   0    3.89    1.79
  -4 -16   0    7.75    1.76
  -5 -16   0    3.65    1.69
  -6 -16   0    5.85    1.69
   6  16   0    2.85    0.75
  -7 -16   0    4.70    1.69
  -8 -16   0   12.41    2.03
   8  16   0    9.98    1.29
  -9 -16   0    1.08    1.67
   9  16   0   -0.39    0.71
  10  16   0   -0.36    0.74
  11  16   0   -1.06    0.77
  12  16   0   -0.25    0.82
  13  16   0   -1.15    0.86
  14  16   0   -0.22    0.96
  15  16   0   -1.05    1.04
   4 -17   0    1.75    3.19
   3 -17   0   -0.33    2.86
   2 -17   0    0.43    2.75
   1 -17   0   -0.47    2.58
   0 -17   0    0.59    2.42
  -1 -17   0    1.92    2.23
  -2 -17   0    0.72    2.12
  -3 -17   0    1.36    2.02
  -4 -17   0    1.82    1.92
  -5 -17   0    1.11    1.89
   5  17   0    0.29    0.89
  -6 -17   0    3.79    1.86
   6  17   0    1.47    0.85
  -7 -17   0    9.41    1.89
   7  17   0    4.87    0.83
  -8 -17   0   -0.31    1.85
   8  17   0    0.05    0.79
  -9 -17   0    2.99    1.90
   9  17   0    0.91    0.82
  10  17   0   -0.31    0.82
  11  17   0   -0.63    0.85
  12  17   0   -1.11    0.90
  13  17   0   -0.03    0.96
  14  17   0   -0.31    1.03
   2 -18   0    1.05    3.05
   1 -18   0    2.41    2.88
   0 -18   0    1.48    2.82
  -1 -18   0    4.42    2.69
  -2 -18   0    6.08    2.45
  -3 -18   0    5.79    2.40
  -4 -18   0    9.40    2.28
  -5 -18   0    2.65    2.14
  -6 -18   0    3.99    2.14
   6  18   0    2.37    1.02
  -7 -18   0    3.97    2.09
   7  18   0   -0.92    0.95
  -8 -18   0    2.84    2.14
   9  18   0   -0.98    0.90
 -10 -18   0   -1.12    2.20
  10  18   0   -0.30    0.93
  11  18   0   -1.27    0.94
  12  18   0    0.45    1.00
  13  18   0   -0.16    1.07
  -1 -19   0    0.14    2.88
  -2 -19   0    0.63    2.91
  -3 -19   0    2.98    2.75
  -4 -19   0   -1.87    2.66
  -5 -19   0    1.91    2.51
  -6 -19   0   -0.86    2.43
  -7 -19   0    0.92    2.33
   7  19   0    1.68    1.12
  -8 -19   0    0.74    2.35
   8  19   0    0.42    1.06
  -9 -19   0    2.70    2.36
   9  19   0    1.27    1.02
 -10 -19   0   -0.58    2.29
  10  19   0   -0.80    1.03
  11  19   0   -1.04    1.07
  11  19  -1    0.14    1.11
  10  19  -1   -1.25    1.04
 -10 -19   1   -0.10    2.53
   9  19  -1    0.95    1.03
  -9 -19   1    1.80    2.33
   8  19  -1    0.19    1.05
  -8 -19   1    1.47    2.30
   7  19  -1    0.69    1.09
  -7 -19   1   -1.38    2.31
   6  19  -1   -0.37    1.12
  -6 -19   1   -0.49    2.33
  -5 -19   1    0.67    2.38
  -4 -19   1   -0.55    2.52
  -3 -19   1    0.11    2.60
  -2 -19   1    1.63    2.69
  -1 -19   1   -0.20    2.92
  13  18  -1   -1.44    1.09
  12  18  -1   -0.24    1.03
  11  18  -1   -0.28    0.96
  10  18  -1   -1.20    0.94
   9  18  -1    0.02    0.91
   8  18  -1    0.32    0.91
  -8 -18   1    2.29    1.99
   7  18  -1    0.22    0.94
  -7 -18   1   -1.04    2.03
   6  18  -1    4.18    0.98
  -6 -18   1    3.30    2.10
   5  18  -1    0.72    1.06
  -5 -18   1   -2.29    2.16
  -4 -18   1   -0.39    2.27
  -3 -18   1    0.26    2.33
  -2 -18   1    0.24    2.35
  -1 -18   1   -2.32    2.46
   0 -18   1   -2.32    2.80
   1 -18   1    2.85    2.88
   2 -18   1    2.70    3.27
  14  17  -1   -0.67    1.04
  13  17  -1    0.12    0.99
  12  17  -1   -0.89    0.93
  11  17  -1   -0.72    0.88
  10  17  -1   -1.10    0.84
   9  17  -1   -0.86    0.81
  -9 -17   1    1.51    1.85
   8  17  -1   -1.00    0.81
  -8 -17   1   -2.50    1.84
   7  17  -1   -0.41    0.81
  -7 -17   1    0.11    1.84
   6  17  -1    0.92    0.87
  -6 -17   1    0.91    1.88
   5  17  -1   15.73    1.49
  -5 -17   1   13.91    2.33
  -4 -17   1    1.45    1.97
  -3 -17   1    0.64    2.04
  -2 -17   1    1.83    2.07
  -1 -17   1   -0.58    2.18
   0 -17   1    0.73    2.32
   1 -17   1    0.15    2.44
   2 -17   1    1.92    2.67
   3 -17   1    6.97    2.96
   4 -17   1    9.93    3.10
  15  16  -1    0.04    1.08
  14  16  -1   -1.64    0.98
  13  16  -1   -0.95    0.91
  12  16  -1   -0.47    0.84
  11  16  -1   -1.23    0.78
  10  16  -1   -0.41    0.76
   9  16  -1   -0.54    0.73
   8  16  -1    4.20    0.74
   7  16  -1   -0.96    0.71
  -7 -16   1    1.21    1.65
   6  16  -1    3.07    0.74
   5  16  -1    0.45    0.77
  -5 -16   1    1.84    1.64
   4  16  -1    0.36    0.82
  -4 -16   1    1.99    1.67
  -3 -16   1    2.91    1.72
  -2 -16   1    3.54    1.82
  -1 -16   1    2.63    1.93
   0 -16   1    2.76    2.01
   1 -16   1    7.31    2.19
   2 -16   1    0.74    2.28
   3 -16   1    7.78    2.56
   4 -16   1    4.46    2.82
   5 -16   1    6.73    2.88
  16  15  -1   -1.12    1.14
  15  15  -1    0.47    1.02
  14  15  -1   -0.56    0.91
  13  15  -1   -0.19    0.82
  12  15  -1    0.65    0.76
  11  15  -1   -0.34    0.70
  10  15  -1    0.34    0.67
   9  15  -1    9.87    1.19
   8  15  -1    1.47    0.64
   7  15  -1   -0.94    0.63
  -7 -15   1    0.58    1.45
   6  15  -1   -0.37    0.63
  -6 -15   1    0.08    1.44
   5  15  -1    2.43    0.66
  -5 -15   1    3.43    1.46
   4  15  -1    0.58    0.69
  -4 -15   1    0.76    1.44
   3  15  -1    4.33    0.77
  -2 -15   1    5.57    1.58
  -1 -15   1    3.38    1.61
   0 -15   1   19.25    2.14
   1 -15   1    0.40    1.92
   2 -15   1   -0.44    2.02
   3 -15   1    2.28    2.13
   4 -15   1    3.12    2.32
   5 -15   1    1.58    2.51
   6 -15   1    4.77    2.68
  16  14  -1   -0.22    1.05
  15  14  -1    0.15    0.95
  14  14  -1   -1.08    0.85
  13  14  -1    0.62    0.78
  12  14  -1    1.63    0.70
  11  14  -1   -0.13    0.64
  10  14  -1   10.31    1.10
   9  14  -1    2.28    0.59
   8  14  -1    1.11    0.56
   7  14  -1    2.05    0.57
  -7 -14   1    4.02    1.32
   6  14  -1   -0.46    0.56
  -6 -14   1    1.35    1.28
   5  14  -1    3.68    0.59
   4  14  -1    0.98    0.60
  -4 -14   1    2.34    1.30
   3  14  -1    1.37    0.65
  -3 -14   1    2.86    1.32
  -2 -14   1    5.97    1.37
  -1 -14   1    6.01    1.39
   0 -14   1    2.21    1.52
   1 -14   1   17.01    1.97
   2 -14   1   -1.36    1.75
   3 -14   1    0.60    1.87
   4 -14   1    1.77    1.96
   5 -14   1    1.00    2.19
   6 -14   1    2.56    2.35
   7 -14   1    6.12    2.51
  17  13  -1    0.36    1.08
  16  13  -1    0.54    1.00
  15  13  -1    0.14    0.89
  14  13  -1   -1.16    0.79
  13  13  -1    0.53    0.72
  12  13  -1    4.09    0.69
  11  13  -1    0.63    0.59
  10  13  -1    0.49    0.55
   9  13  -1    5.42    0.91
   8  13  -1   -0.02    0.48
   7  13  -1    1.67    0.49
  -7 -13   1    3.79    1.19
   6  13  -1    0.05    0.49
  -6 -13   1    2.09    1.18
   5  13  -1   -0.20    0.50
  -5 -13   1    1.05    1.13
   4  13  -1    8.38    0.90
  -4 -13   1   11.39    1.43
   3  13  -1    2.25    0.57
  -3 -13   1    3.67    1.15
   2  13  -1    0.15    0.58
  -2 -13   1    1.95    1.17
  -1 -13   1   13.47    1.57
   0 -13   1   47.94    2.43
   1 -13   1    0.67    1.37
   2 -13   1    4.08    1.48
   3 -13   1    5.46    1.65
   4 -13   1    0.78    1.75
   5 -13   1    2.23    1.87
   6 -13   1    5.64    2.08
  17  12  -1   -1.33    0.98
  16  12  -1   -0.22    0.90
  15  12  -1    0.46    0.81
  14  12  -1    0.20    0.74
  13  12  -1   11.62    1.24
  12  12  -1    3.12    0.64
  11  12  -1    0.46    0.55
  10  12  -1   -0.37    0.49
   9  12  -1    2.04    0.48
   8  12  -1    0.23    0.44
   7  12  -1   -0.05    0.42
  -6 -12   1    2.75    1.02
   5  12  -1    8.25    0.81
  -5 -12   1   10.97    1.27
   4  12  -1    4.81    0.80
  -4 -12   1    6.76    1.18
   3  12  -1   40.61    1.68
  -3 -12   1   39.18    1.98
   2  12  -1    0.78    0.50
  -2 -12   1    0.34    0.99
  -1 -12   1   13.43    1.41
   0 -12   1    2.33    1.11
   1 -12   1    4.33    1.25
   2 -12   1    1.58    1.26
   3 -12   1    1.75    1.37
   4 -12   1    0.37    1.49
   5 -12   1    1.81    1.62
   6 -12   1    7.23    1.84
  18  11  -1   -1.86    1.00
  17  11  -1   -0.89    0.91
  16  11  -1    1.80    0.85
  15  11  -1    1.76    0.76
  14  11  -1    2.67    0.69
  13  11  -1    1.62    0.62
  12  11  -1   -0.42    0.56
  11  11  -1    0.10    0.51
  10  11  -1    0.04    0.45
   9  11  -1    0.74    0.43
   8  11  -1   10.80    0.80
   7  11  -1    0.31    0.36
   6  11  -1   -0.07    0.36
  -6 -11   1    0.82    0.87
   5  11  -1   27.97    1.32
  -5 -11   1   30.21    1.57
   4  11  -1   81.61    2.84
  -4 -11   1   86.31    3.18
  -3 -11   1    3.40    0.85
   2  11  -1   17.74    1.03
  -2 -11   1   19.30    1.30
  -1 -11   1    3.05    0.89
   0 -11   1   11.73    1.23
   1 -11   1    5.94    1.05
   2 -11   1    1.74    1.09
   3 -11   1    0.96    1.17
   4 -11   1   16.72    1.72
   5 -11   1   29.40    2.04
   6 -11   1    3.29    1.56
  18  10  -1   -1.09    0.95
  17  10  -1    2.95    0.87
  16  10  -1    1.35    0.78
  15  10  -1    0.54    0.70
  14  10  -1    0.82    0.64
  13  10  -1    2.07    0.59
  12  10  -1   -0.21    0.52
  11  10  -1    0.80    0.46
  10  10  -1   -0.10    0.42
   9  10  -1    0.66    0.40
   8  10  -1   18.88    1.03
   7  10  -1   27.15    1.25
   6  10  -1   -0.33    0.31
   5  10  -1   19.73    0.99
  -5 -10   1   17.25    1.34
   4  10  -1    0.73    0.35
  -4 -10   1    1.54    0.84
   3  10  -1   22.81    1.11
  -3 -10   1   19.32    1.26
   2  10  -1    0.31    0.39
  -2 -10   1    1.30    0.73
   1  10  -1    4.44    0.71
  -1 -10   1    6.70    0.95
   0 -10   1   49.39    2.14
   1 -10   1    5.25    0.90
   2 -10   1   25.49    1.56
   3 -10   1    2.69    1.02
   4 -10   1   18.38    1.52
   5 -10   1    8.27    1.48
  18   9  -1    1.81    0.97
  17   9  -1    1.96    0.86
  16   9  -1    7.84    1.40
  15   9  -1    0.68    0.69
  14   9  -1    0.88    0.63
  13   9  -1    0.25    0.56
  12   9  -1    8.26    0.96
  11   9  -1    0.23    0.44
  10   9  -1    0.59    0.41
   9   9  -1    0.41    0.36
   8   9  -1   58.58    2.15
   7   9  -1   29.22    1.27
   6   9  -1    1.01    0.31
   5   9  -1    7.68    0.64
  -5  -9   1    5.40    0.93
   4   9  -1   20.93    1.02
  -4  -9   1   21.77    1.27
   3   9  -1    7.99    0.65
  -3  -9   1    9.32    0.92
   2   9  -1    0.29    0.31
  -2  -9   1    0.98    0.65
   1   9  -1    7.49    0.65
  -1  -9   1    6.51    0.89
   0  -9   1    5.37    0.95
   1  -9   1   14.46    1.11
   2  -9   1    5.31    0.88
   3  -9   1   12.96    1.23
   4  -9   1   42.48    2.01
   5  -9   1    7.99    1.16
  11  -9   1   -1.03    1.23
  13  -9   1   -1.54    1.53
  18   8  -1   -0.48    0.90
  17   8  -1    3.39    0.78
  16   8  -1    0.01    0.69
  15   8  -1   -0.14    0.63
  14   8  -1    1.15    0.56
  13   8  -1   -0.17    0.50
  12   8  -1    2.50    0.49
  11   8  -1    0.24    0.41
  10   8  -1   -0.26    0.37
   9   8  -1   27.21    1.26
   8   8  -1   32.40    1.39
   7   8  -1   52.80    1.97
   6   8  -1    1.19    0.28
   5   8  -1    0.06    0.24
  -5  -8   1   -0.41    0.59
   4   8  -1   44.62    1.62
  -4  -8   1   42.90    1.80
   3   8  -1    0.31    0.24
  -3  -8   1    0.21    0.57
   2   8  -1    0.74    0.27
  -2  -8   1   -0.16    0.55
   1   8  -1   22.80    1.03
  -1  -8   1   24.47    1.27
   0  -8   1    1.99    0.64
   1  -8   1  110.56    3.90
   2  -8   1   79.10    2.98
   3  -8   1   14.65    1.21
   4  -8   1    2.89    0.90
   5  -8   1   -0.07    0.93
  10  -8   1    7.95    1.31
  11  -8   1    2.27    1.11
  13  -8   1    5.68    1.39
  14  -8   1   -0.90    1.53
  18   7  -1    1.20    0.83
  17   7  -1   -0.20    0.74
  16   7  -1    1.39    0.66
  15   7  -1    0.63    0.58
  14   7  -1    1.37    0.53
  13   7  -1    4.75    0.88
  12   7  -1    8.37    0.87
  11   7  -1   32.21    1.48
  10   7  -1   -0.02    0.35
   9   7  -1    6.69    0.64
   8   7  -1   40.16    1.60
   7   7  -1    0.74    0.25
   6   7  -1    5.39    0.52
   5   7  -1   34.39    1.33
   4   7  -1    6.98    0.50
  -4  -7   1    6.34    0.72
   3   7  -1    0.38    0.21
  -3  -7   1    0.19    0.50
   2   7  -1    9.58    0.56
  -2  -7   1    7.62    0.76
   1   7  -1   38.02    1.39
  -1  -7   1   38.22    1.63
   0   7  -1  157.35    4.58
   0  -7   1  155.36    5.17
   1  -7   1  129.32    4.39
   2  -7   1   -0.23    0.60
   3  -7   1    9.13    0.95
   4  -7   1    4.73    0.85
   5  -7   1    1.14    0.85
   8  -7   1    0.55    0.60
   9  -7   1   14.95    1.12
  10  -7   1   20.58    1.32
  11  -7   1    5.59    1.00
  12  -7   1    2.03    1.14
  13  -7   1   -1.36    1.27
  18   6  -1    0.66    0.82
  17   6  -1    1.64    0.72
  17   6  -1   -0.88    1.03
  16   6  -1    4.54    0.69
  16   6  -1    6.80    0.99
  15   6  -1   -0.34    0.59
  14   6  -1    4.61    0.60
  13   6  -1    9.19    0.94
  12   6  -1   27.33    1.38
  11   6  -1    7.82    0.77
  10   6  -1   18.14    0.99
   9   6  -1    1.08    0.29
   8   6  -1    0.09    0.27
   7   6  -1   13.82    0.77
   6   6  -1   14.85    0.79
   5   6  -1   -0.25    0.20
   4   6  -1   12.46    0.63
   3   6  -1   73.31    2.31
  -3  -6   1   73.24    2.57
   2   6  -1  137.69    4.05
  -2  -6   1  140.74    4.55
   1   6  -1   48.69    1.63
  -1  -6   1   49.06    1.89
   0   6  -1    0.20    0.21
   0  -6   1    0.14    0.44
   1  -6   1   21.98    1.12
   2  -6   1   70.22    2.55
   3  -6   1   23.05    1.21
   4  -6   1   24.24    1.28
   8  -6   1    8.03    0.86
   9  -6   1   10.49    0.98
  10  -6   1   26.68    1.41
  11  -6   1   -0.15    0.83
  12  -6   1    0.37    0.98
  14  -6   1    0.01    1.26
  15  -6   1   -2.30    1.44
  18   5  -1   -0.92    0.79
  18   5  -1   -1.29    1.12
  17   5  -1    0.22    0.69
  17   5  -1    1.24    1.04
  16   5  -1    1.67    0.62
  16   5  -1    0.96    0.93
  14   5  -1    2.21    0.71
  13   5  -1    9.47    0.99
   9   5  -1    0.15    0.30
   8   5  -1   10.09    0.70
   7   5  -1    7.73    0.58
   6   5  -1   23.49    1.00
   5   5  -1    6.32    0.43
   4   5  -1   87.21    2.67
   3   5  -1  116.13    3.34
  -3  -5   1  110.74    3.69
   2   5  -1   41.10    1.37
  -2  -5   1   40.74    1.56
   1   5  -1  147.55    4.24
  -1  -5   1  149.61    4.77
   0   5  -1  134.37    3.85
   0  -5   1  133.45    4.35
   1  -5   1   -0.39    0.39
   2  -5   1   28.70    1.24
   3  -5   1    0.51    0.50
   4  -5   1   15.52    0.96
   6  -5   1    9.73    0.69
   7  -5   1   38.45    1.51
   8  -5   1    4.17    0.73
   9  -5   1    6.63    0.87
  10  -5   1    4.11    0.67
  11  -5   1    2.03    0.76
  12  -5   1   -0.17    0.87
  13  -5   1   -0.47    1.02
  14  -5   1   -2.13    1.17
  15  -5   1    3.75    1.34
  16  -5   1   -2.49    1.49
  17   4  -1   -1.20    1.06
  16   4  -1    1.30    0.95
  15   4  -1    7.27    0.93
  14   4  -1   14.89    1.20
  13   4  -1    4.28    0.67
  12   4  -1   13.64    1.00
  11   4  -1    3.70    0.54
  10   4  -1    0.89    0.48
   5   4  -1    2.73    0.35
   4   4  -1   72.66    2.25
   3   4  -1  237.76    6.58
   2   4  -1   96.08    3.32
   2   4  -1  108.87    3.04
  -2  -4   1  107.65    3.02
  -2  -4   1  106.01    3.38
   1   4  -1    4.63    0.43
   1   4  -1    5.02    0.36
  -1  -4   1    4.44    0.44
  -1  -4   1    4.99    0.33
   0   4  -1    8.11    0.45
   0   4  -1    7.93    0.58
   0  -4   1    6.77    0.39
   0  -4   1    7.62    0.54
   1  -4   1   42.11    1.37
   1  -4   1   45.03    1.62
   2  -4   1   15.39    0.80
   3  -4   1    0.18    0.40
   4  -4   1    0.65    0.27
   5  -4   1   43.56    1.55
   6  -4   1  218.38    6.45
   7  -4   1   42.97    1.64
   8  -4   1    3.62    0.66
   9  -4   1    3.90    0.56
  10  -4   1    3.11    0.61
  11  -4   1    6.14    0.99
  12  -4   1    1.22    0.76
  13  -4   1    0.66    0.93
  14  -4   1    1.29    1.09
  15  -4   1    2.70    1.23
  16  -4   1    2.44    1.41
  17   3  -1   -1.42    1.11
  16   3  -1    4.95    1.01
  15   3  -1   18.68    1.40
  14   3  -1    4.21    0.76
  13   3  -1   -0.28    0.64
  12   3  -1    0.56    0.57
  11   3  -1    6.16    0.77
  10   3  -1   13.47    0.85
   9   3  -1    0.65    0.38
   8   3  -1    3.03    0.43
   7   3  -1  147.35    4.42
   3   3  -1   10.10    0.48
   2   3  -1   74.00    2.10
   2   3  -1   69.33    2.29
  -2  -3   1   70.72    2.08
   1   3  -1   23.22    0.78
   1   3  -1   21.53    0.87
  -1  -3   1   23.35    0.77
  -1  -3   1   22.64    0.89
   0   3  -1   29.45    1.08
   0   3  -1   28.39    0.94
   0  -3   1   28.33    1.09
   0  -3   1   27.84    0.92
  -1   3  -1   26.92    1.03
   1  -3   1   26.20    1.03
   1  -3   1   26.16    0.88
  -2   3  -1    6.93    0.49
   2  -3   1    6.94    0.50
   3  -3   1  358.08   10.13
   4  -3   1    3.69    0.39
   5  -3   1   32.46    1.21
   6  -3   1   23.14    1.00
   7  -3   1    1.89    0.42
   8  -3   1   10.92    0.76
   9  -3   1   -0.01    0.47
  10  -3   1    0.22    0.55
  11  -3   1    0.76    0.61
  12  -3   1    2.60    0.70
  13  -3   1    0.24    0.84
  14  -3   1    3.07    1.01
  15  -3   1   11.11    1.63
  16  -3   1   -1.03    1.28
  17  -3   1   -0.48    1.50
  18   2  -1   -0.02    1.27
  17   2  -1    2.63    1.17
  16   2  -1    5.62    1.05
  15   2  -1    0.33    0.84
  14   2  -1    5.34    0.80
  13   2  -1    0.27    0.67
  12   2  -1    5.36    0.86
  11   2  -1   22.90    1.17
  10   2  -1   15.18    0.92
   9   2  -1    0.95    0.43
   8   2  -1   89.82    2.90
   7   2  -1  105.12    3.27
   6   2  -1  205.81    6.00
   5   2  -1    0.23    0.21
   4   2  -1    0.99    0.19
   1   2  -1   17.81    0.68
   1   2  -1   18.55    0.61
  -1  -2   1   18.94    0.61
  -1  -2   1   17.81    0.69
   0   2  -1    0.54    0.09
   0   2  -1    0.44    0.17
   0  -2   1    0.54    0.18
   0  -2   1    0.61    0.11
  -1   2  -1   70.12    2.21
   1  -2   1   66.45    2.20
  -2   2  -1  334.85   10.25
  -2   2  -1  351.73    9.54
   2  -2   1  342.01    9.53
   2  -2   1  327.94   10.24
  -3   2  -1  195.19    5.64
   3  -2   1  197.69    5.64
   4  -2   1   35.66    1.23
   5  -2   1    8.99    0.54
   6  -2   1   75.57    2.45
   7  -2   1   -0.31    0.34
   8  -2   1    9.25    0.73
   9  -2   1    9.50    0.76
  10  -2   1    0.11    0.50
  11  -2   1   13.81    0.99
  12  -2   1    2.16    0.64
  13  -2   1   -0.04    0.76
  14  -2   1   13.91    1.37
  16  -2   1   -0.82    1.17
  18   1  -1   -0.70    1.34
  17   1  -1   -1.07    1.22
  16   1  -1    3.54    1.07
  15   1  -1    6.18    0.93
  14   1  -1   12.02    1.28
  13   1  -1    1.84    0.72
  12   1  -1    0.48    0.59
  11   1  -1    8.05    0.85
  10   1  -1    6.39    0.73
   9   1  -1    3.49    0.49
   8   1  -1    9.39    0.71
   7   1  -1   94.92    3.00
   6   1  -1   18.74    0.82
   5   1  -1    2.78    0.35
   4   1  -1    7.95    0.45
   3   1  -1   13.39    0.53
  -3  -1   1   12.97    0.54
   2   1  -1    0.89    0.14
  -2  -1   1    0.96    0.13
   1  -1   1  156.85    4.76
  -2   1  -1  482.87   13.41
   2  -1   1  475.72   13.41
  -3   1  -1  340.00    9.66
   3  -1   1  345.01    9.66
   4  -1   1   12.50    0.58
   5  -1   1   30.72    1.12
   6  -1   1   99.93    3.10
   7  -1   1    8.15    0.62
   8  -1   1    5.09    0.60
   9  -1   1    8.48    0.71
  10  -1   1   13.48    0.89
  11  -1   1   34.82    1.51
  12  -1   1   11.81    0.99
  13  -1   1    0.25    0.70
  14  -1   1   -0.18    0.83
  15  -1   1   -1.18    0.95
  16  -1   1   -0.99    1.09
  17  -1   1   -2.35    1.26
  17   0  -1    0.47    1.30
  16   0  -1   -1.63    1.11
  15   0  -1    4.32    0.97
  14   0  -1    3.69    0.90
  13   0  -1   -0.15    0.74
  12   0  -1    2.45    0.64
  11   0  -1   18.92    1.11
  10   0  -1   56.99    2.08
   9   0  -1   10.39    0.77
   8   0  -1   13.23    0.85
   7   0  -1    2.51    0.42
   6   0  -1    5.94    0.50
   5   0  -1   24.86    0.97
   4   0  -1   33.19    1.17
   3   0  -1    0.37    0.17
  -3   0   1    0.47    0.18
   2   0  -1   86.58    2.51
  -2   0   1   85.67    2.51
   1   0  -1    0.50    0.09
  -2   0  -1   86.32    2.49
  -3   0  -1   16.22    0.61
   3   0   1   16.74    0.62
   4   0   1   13.87    0.60
   5   0   1   85.19    2.62
   6   0   1   -0.06    0.24
   7   0   1   25.93    1.07
   8   0   1    1.03    0.36
   9   0   1    3.12    0.60
  10   0   1   61.40    2.19
  11   0   1   37.82    1.57
  12   0   1    8.13    0.89
  13   0   1    0.62    0.66
  14   0   1    3.40    0.80
  15   0   1   -1.00    0.89
  16   0   1   -0.51    1.02
  17   0   1   -0.81    1.16
  18   0   1   -2.19    1.34
  17  -1  -1    0.49    1.41
  16  -1  -1    1.36    1.21
  15  -1  -1    1.28    1.03
  14  -1  -1   -0.60    0.90
  13  -1  -1   -0.08    0.79
  12  -1  -1    2.24    0.66
  11  -1  -1   52.86    2.05
  10  -1  -1   16.70    0.99
   9  -1  -1    2.24    0.49
   8  -1  -1    3.48    0.67
   7  -1  -1    0.98    0.37
   6  -1  -1   68.28    2.24
   5  -1  -1    1.80    0.31
   4  -1  -1    1.75    0.34
   3  -1  -1  175.76    5.04
  -3   1   1  173.18    5.04
   2  -1  -1   98.03    2.85
  -2   1   1   96.54    2.84
   1  -1  -1  300.34    8.42
  -2  -1  -1    0.33    0.08
   2   1   1    0.39    0.08
  -3  -1  -1    7.50    0.34
   3   1   1    7.89    0.35
  -4  -1  -1   39.06    1.30
   4   1   1   41.60    1.31
   5   1   1  117.80    3.51
   6   1   1    2.76    0.34
   7   1   1   11.97    0.67
   8   1   1   90.65    2.91
   9   1   1    3.75    0.63
  10   1   1   16.46    0.92
  11   1   1    8.28    0.79
  12   1   1    3.36    0.58
  13   1   1    1.83    0.65
  14   1   1   -0.88    0.74
  15   1   1    0.14    0.85
  16   1   1    0.48    0.98
  17   1   1   -0.85    1.10
  17  -2  -1   -0.67    1.52
  16  -2  -1   -1.02    1.30
  15  -2  -1    1.03    1.10
  14  -2  -1   17.33    1.55
  13  -2  -1    2.72    0.85
  12  -2  -1   11.68    1.12
  11  -2  -1   42.61    1.80
  10  -2  -1    1.01    0.53
   9  -2  -1   10.95    0.84
   8  -2  -1    7.43    0.71
   7  -2  -1   24.01    1.10
   6  -2  -1    4.35    0.53
   5  -2  -1   14.22    0.71
   4  -2  -1   22.81    0.91
   3  -2  -1   31.49    1.09
   2  -2  -1  449.32   12.40
  -2   2   1  433.61   12.40
   1  -2  -1   13.85    0.57
  -1   2   1   12.74    0.55
  -1   2   1   13.79    0.49
   0  -2  -1    0.38    0.16
   0   2   1    0.34    0.14
  -1  -2  -1    2.49    0.17
  -1  -2  -1    3.31    0.24
   1   2   1    3.43    0.21
  -2  -2  -1   17.82    0.62
   2   2   1   19.13    0.64
   3   2   1   55.81    1.66
  -4  -2  -1    1.64    0.24
   4   2   1    1.45    0.21
   5   2   1  123.12    3.63
   6   2   1  106.14    3.22
   7   2   1  333.78    9.58
   8   2   1   12.30    0.73
   9   2   1    0.04    0.35
  10   2   1    0.79    0.41
  11   2   1    2.50    0.49
  12   2   1    3.56    0.57
  13   2   1    7.91    0.95
  14   2   1    0.23    0.71
  15   2   1   -1.13    0.82
  16   2   1    4.27    0.98
  17   2   1    4.61    1.08
  18   2   1    1.51    1.20
  16  -3  -1    0.38    1.43
  15  -3  -1    9.34    1.28
  14  -3  -1    2.05    1.06
  13  -3  -1   -0.08    0.93
  12  -3  -1    0.26    0.80
  11  -3  -1    6.76    1.03
  10  -3  -1   -0.83    0.57
   9  -3  -1   10.14    0.88
   8  -3  -1   15.69    0.93
   7  -3  -1    0.91    0.44
   6  -3  -1   34.93    1.35
   5  -3  -1  157.09    4.70
   4  -3  -1    4.44    0.46
   3  -3  -1  101.75    3.07
   1  -3  -1    3.01    0.37
  -1   3   1    2.42    0.33
   0  -3  -1    0.03    0.13
   0  -3  -1    0.37    0.23
   0   3   1    0.26    0.22
  -1  -3  -1   39.70    1.36
  -1  -3  -1   38.35    1.23
   1   3   1   39.27    1.25
   1   3   1   38.81    1.36
  -2  -3  -1   27.26    0.90
  -2  -3  -1   25.79    0.96
   2   3   1   25.69    0.96
   2   3   1   26.64    0.90
  -3  -3  -1   27.93    0.93
   3   3   1   27.10    0.94
   4   3   1  140.21    3.97
   5   3   1   18.07    0.75
   6   3   1   59.99    1.93
   7   3   1   51.87    1.74
   8   3   1   99.50    3.12
   9   3   1   10.99    0.73
  10   3   1    0.00    0.40
  11   3   1   12.53    0.86
  12   3   1    0.87    0.54
  13   3   1   -0.15    0.61
  14   3   1    0.00    0.69
  15   3   1    4.19    0.82
  16   3   1    8.16    1.04
  17   3   1   -0.73    1.02
  18   3   1   -1.43    1.16
  16  -4  -1    0.31    1.55
  15  -4  -1    0.23    1.30
  14  -4  -1    8.95    1.64
  13  -4  -1    2.18    1.03
  12  -4  -1    6.92    1.29
  11  -4  -1    4.68    0.81
  10  -4  -1    1.54    0.66
   9  -4  -1   12.93    0.96
   8  -4  -1    7.43    0.80
   7  -4  -1   25.20    1.17
   6  -4  -1   41.37    1.57
   5  -4  -1  181.38    5.40
   4  -4  -1   47.11    1.63
   2  -4  -1    0.66    0.35
   1  -4  -1   55.63    1.95
   0  -4  -1  117.17    3.75
   0  -4  -1  116.39    3.37
  -1  -4  -1    0.38    0.29
  -1  -4  -1    0.51    0.14
   1   4   1    0.45    0.20
   1   4   1    0.63    0.29
  -2  -4  -1   19.72    0.85
  -2  -4  -1   20.39    0.77
   2   4   1   20.56    0.81
   2   4   1   20.28    0.85
  -3  -4  -1   75.78    2.47
   3   4   1   75.50    2.47
   3   4   1   74.94    2.27
   4   4   1   28.93    1.04
   5   4   1   30.61    1.12
   6   4   1   27.05    1.06
   7   4   1  128.43    3.85
   8   4   1   18.62    0.87
   8   4   1   18.05    0.89
   9   4   1    1.74    0.41
   9   4   1    1.42    0.31
  11   4   1    7.30    0.76
  12   4   1    4.33    0.63
  13   4   1    4.60    0.68
  14   4   1    0.71    0.70
  15   4   1    4.14    0.82
  16   4   1    0.29    0.87
  16   4   1    1.95    0.59
  17   4   1    0.52    0.67
  18   4   1   -0.05    0.76
  19   4   1   -1.93    1.27
  19   4   1   -0.27    0.88
  15  -5  -1    9.50    1.53
  14  -5  -1   -0.85    1.26
  13  -5  -1    0.28    1.12
  12  -5  -1    2.57    1.00
  11  -5  -1    0.33    0.85
  10  -5  -1    1.82    0.77
   9  -5  -1   -1.12    0.61
   8  -5  -1   14.61    1.01
   7  -5  -1   14.50    0.92
   6  -5  -1  138.61    4.31
   5  -5  -1   24.94    1.08
   3  -5  -1   17.86    0.96
   2  -5  -1   68.85    2.44
   1  -5  -1    2.48    0.46
   0  -5  -1    3.83    0.48
  -1  -5  -1   59.59    2.13
   1   5   1   61.80    1.94
  -2  -5  -1   70.73    2.43
   2   5   1   71.77    2.21
  -3  -5  -1  221.78    6.94
   3   5   1  226.95    6.27
   4   5   1  294.39    8.16
   5   5   1    7.63    0.47
   6   5   1   -0.22    0.18
   7   5   1   52.84    1.83
   8   5   1    2.16    0.33
   9   5   1    0.39    0.28
  10   5   1    1.26    0.31
  11   5   1    6.91    0.77
  11   5   1    5.43    0.70
  12   5   1   10.99    0.89
  13   5   1   13.73    1.05
  14   5   1   -0.54    0.70
  14   5   1    0.23    0.49
  15   5   1    2.68    0.57
  16   5   1    0.06    0.87
  16   5   1   -0.11    0.62
  17   5   1    0.76    0.68
  17   5   1   -0.35    0.98
  18   5   1    1.46    0.78
  18   5   1   -0.42    1.09
  19   5   1    0.91    0.87
  15  -6  -1   -0.99    1.64
  14  -6  -1    0.33    1.39
  13  -6  -1    0.26    1.23
  12  -6  -1   -0.71    1.09
  11  -6  -1   -0.61    0.96
  10  -6  -1    6.26    0.89
   9  -6  -1   31.21    1.50
   8  -6  -1    8.00    0.90
   7  -6  -1   10.58    0.90
   6  -6  -1    5.73    0.79
   5  -6  -1    8.12    0.71
   4  -6  -1    1.04    0.67
   3  -6  -1    7.08    0.79
   2  -6  -1    3.41    0.65
   1  -6  -1    2.29    0.55
   0  -6  -1   30.93    1.33
  -1  -6  -1   49.17    1.88
   1   6   1   51.73    1.71
  -2  -6  -1   47.66    1.82
   2   6   1   50.71    1.69
  -3  -6  -1  179.07    5.74
   3   6   1  184.68    5.21
  -4  -6  -1    9.11    0.64
   4   6   1    9.02    0.53
   5   6   1   -0.20    0.18
   6   6   1    9.15    0.58
   7   6   1    2.54    0.42
   8   6   1   17.98    0.92
   9   6   1    2.26    0.37
  10   6   1    1.29    0.33
  11   6   1    8.84    0.75
  12   6   1   41.53    1.73
  13   6   1    4.52    0.83
  14   6   1    0.63    0.49
  15   6   1    0.95    0.55
  16   6   1   -1.63    0.88
  16   6   1   -0.07    0.62
  17   6   1    0.38    0.70
  18   6   1    0.69    0.79
  19   6   1   -0.47    0.87
  14  -7  -1   -1.89    1.56
  13  -7  -1   -0.88    1.35
  12  -7  -1    6.42    1.23
  11  -7  -1    0.90    1.09
  10  -7  -1   31.44    1.74
   9  -7  -1    9.94    1.19
   4  -7  -1    1.10    0.82
   3  -7  -1    7.99    0.94
   2  -7  -1    0.83    0.62
   1  -7  -1   76.01    2.78
   0  -7  -1  137.99    4.59
  -1  -7  -1    0.51    0.51
   1   7   1    0.06    0.25
  -2  -7  -1    3.20    0.53
   2   7   1    3.34    0.44
  -3  -7  -1    2.66    0.51
   3   7   1    2.25    0.41
  -4  -7  -1    0.19    0.45
   4   7   1    0.33    0.22
   5   7   1   12.93    0.70
   6   7   1    9.74    0.62
   7   7   1    3.97    0.50
   8   7   1   39.78    1.59
   9   7   1   29.09    1.29
  10   7   1    0.74    0.35
  11   7   1    5.69    0.71
  12   7   1   12.49    0.95
  13   7   1    0.30    0.47
  14   7   1    0.14    0.52
  15   7   1    0.09    0.58
  16   7   1   -0.16    0.65
  17   7   1    0.30    0.72
  18   7   1    0.10    0.80
  19   7   1   -0.44    0.91
  13  -8  -1   10.61    1.60
  12  -8  -1    0.40    1.37
  11  -8  -1   -0.83    1.22
  10  -8  -1    3.48    1.09
   8  -8  -1    1.45    0.83
   4  -8  -1    2.96    0.94
   3  -8  -1    0.95    0.85
   2  -8  -1   28.43    1.52
   1  -8  -1  154.60    5.21
   0  -8  -1   71.41    2.71
  -1  -8  -1   35.61    1.61
   1   8   1   36.68    1.42
  -2  -8  -1   10.19    0.87
   2   8   1    8.67    0.63
  -3  -8  -1   10.05    0.84
   3   8   1    9.94    0.66
  -4  -8  -1   77.55    2.81
   4   8   1   80.55    2.60
  -5  -8  -1    4.57    0.66
   5   8   1    4.93    0.52
   6   8   1    1.59    0.30
   7   8   1   78.01    2.64
   8   8   1   27.54    1.22
   9   8   1   41.25    1.65
  10   8   1    6.70    0.70
  11   8   1    6.41    0.78
  12   8   1   -0.31    0.45
  13   8   1    1.23    0.51
  14   8   1   -0.04    0.57
  15   8   1    0.00    0.63
  16   8   1    0.74    0.70
  17   8   1    5.41    0.81
  18   8   1    3.12    0.88
  19   8   1    1.14    0.99
  13  -9  -1    1.47    1.72
  11  -9  -1    1.51    1.39
   5  -9  -1    2.05    1.09
   4  -9  -1   52.88    2.33
   3  -9  -1    9.23    1.19
   2  -9  -1    5.27    1.05
   1  -9  -1   33.27    1.66
   0  -9  -1   25.82    1.47
  -1  -9  -1    5.36    0.86
  -2  -9  -1   22.54    1.28
   2   9   1   22.76    1.08
  -3  -9  -1   17.73    1.11
   3   9   1   17.35    0.93
   4   9   1    1.42    0.34
  -5  -9  -1   -0.48    0.59
   5   9   1    0.06    0.32
  -6  -9  -1    5.31    0.90
   6   9   1    7.24    0.70
   7   9   1    0.91    0.32
   8   9   1   60.62    2.19
   9   9   1   29.60    1.34
  10   9   1    4.55    0.70
  11   9   1    1.05    0.42
  12   9   1   -0.04    0.48
  13   9   1   -0.05    0.53
  14   9   1    1.16    0.59
  15   9   1    0.70    0.65
  16   9   1    0.73    0.72
  17   9   1    0.96    0.79
  18   9   1    0.14    0.88
  19   9   1   -0.14    0.97
  12 -10  -1   -0.83    1.74
   6 -10  -1    2.74    1.45
   5 -10  -1   32.67    1.98
   4 -10  -1   21.33    1.62
   3 -10  -1    2.15    1.05
   2 -10  -1    7.56    1.24
   1 -10  -1    2.56    0.93
   0 -10  -1    1.72    0.84
  -1 -10  -1    0.84    0.75
  -2 -10  -1    2.99    0.72
   2  10   1    1.68    0.40
  -3 -10  -1    2.98    0.71
  -4 -10  -1   16.64    1.16
   4  10   1   14.85    0.87
  -5 -10  -1   26.78    1.44
   5  10   1   25.41    1.17
  -6 -10  -1   14.82    1.23
   6  10   1   17.44    0.93
   7  10   1   63.44    2.27
   8  10   1   10.09    0.75
   9  10   1    0.08    0.37
  10  10   1   11.13    0.86
  11  10   1    2.84    0.49
  12  10   1    0.72    0.51
  13  10   1    0.19    0.55
  14  10   1    1.64    0.61
  15  10   1    0.10    0.69
  16  10   1    0.41    0.77
  17  10   1    1.32    0.85
  18  10   1   -0.66    0.92
   6 -11  -1   10.88    1.95
   5 -11  -1   28.24    2.08
   4 -11  -1   44.23    2.31
   3 -11  -1    3.65    1.23
   2 -11  -1    0.70    1.10
   1 -11  -1    0.87    1.07
   0 -11  -1    3.92    1.00
  -1 -11  -1    3.04    0.92
  -2 -11  -1    0.19    0.85
   2  11   1   -0.40    0.44
  -3 -11  -1    3.81    0.85
   3  11   1    1.83    0.45
  -4 -11  -1   51.62    2.18
   4  11   1   49.00    1.94
  -5 -11  -1   60.61    2.40
   5  11   1   55.17    2.12
  -6 -11  -1    0.17    0.83
   6  11   1    0.14    0.38
   7  11   1    1.04    0.38
   8  11   1   -0.19    0.38
   9  11   1    0.03    0.40
  10  11   1    7.49    0.86
  11  11   1    3.11    0.51
  12  11   1   -0.33    0.53
  13  11   1    8.78    1.11
  14  11   1    3.54    0.69
  15  11   1    0.32    0.74
  16  11   1   -0.69    0.81
  17  11   1   -1.57    0.89
  18  11   1   -0.11    0.99
   5 -12  -1    9.20    1.80
   4 -12  -1    6.56    1.60
   3 -12  -1    8.75    1.67
   2 -12  -1    1.99    1.31
   1 -12  -1    3.61    1.20
   0 -12  -1    1.70    1.16
  -1 -12  -1    4.78    1.11
  -2 -12  -1    3.14    1.03
  -3 -12  -1    6.36    1.03
   3  12   1    6.60    0.83
  -4 -12  -1   45.66    2.14
   4  12   1   46.32    1.88
  -5 -12  -1   17.57    1.39
   5  12   1   18.63    1.07
  -6 -12  -1    0.62    0.98
   6  12   1    0.80    0.42
  -7 -12  -1   -0.11    0.99
   7  12   1   -0.41    0.42
   8  12   1    2.46    0.44
   9  12   1    8.82    0.84
  10  12   1    0.33    0.47
  11  12   1    0.24    0.53
  12  12   1    3.13    0.61
  13  12   1    4.10    0.68
  14  12   1    1.61    0.72
  15  12   1    2.22    0.81
  16  12   1   -0.39    0.90
  17  12   1   -0.56    0.98
  18  12   1   -0.20    1.08
   6 -13  -1    1.17    2.17
   5 -13  -1    3.69    1.99
   4 -13  -1    4.73    1.86
   3 -13  -1    4.94    1.67
   2 -13  -1    1.79    1.50
   1 -13  -1    7.09    1.44
   0 -13  -1   11.32    1.56
  -1 -13  -1   12.36    1.52
  -2 -13  -1    0.52    1.18
  -3 -13  -1    4.89    1.16
   3  13   1    5.15    0.92
  -4 -13  -1   15.22    1.44
   4  13   1   13.19    1.03
  -5 -13  -1    1.93    1.09
   5  13   1    0.84    0.50
  -6 -13  -1    0.76    1.09
   6  13   1   -0.12    0.50
  -7 -13  -1    0.50    1.11
   7  13   1   -0.44    0.48
  -8 -13  -1   -0.15    1.13
   8  13   1   -0.75    0.49
   9  13   1    1.79    0.51
  10  13   1    0.64    0.53
  11  13   1    0.06    0.56
  12  13   1    0.86    0.62
  13  13   1    8.21    1.24
  14  13   1   -0.20    0.76
  15  13   1   -0.57    0.85
  16  13   1    0.55    0.94
  17  13   1   -0.11    1.05
   6 -14  -1    1.70    2.41
   5 -14  -1   -1.35    2.29
   4 -14  -1    4.60    2.14
   3 -14  -1    1.85    1.97
   2 -14  -1    2.63    1.79
   1 -14  -1    4.01    1.62
   0 -14  -1   17.19    1.86
  -1 -14  -1   30.49    2.06
  -2 -14  -1    3.34    1.29
  -3 -14  -1   -0.10    1.23
  -4 -14  -1    1.44    1.23
   4  14   1    1.08    0.61
  -5 -14  -1    0.72    1.22
   5  14   1    1.56    0.59
  -6 -14  -1   -0.04    1.21
   6  14   1    0.27    0.55
  -7 -14  -1    0.36    1.22
   7  14   1   -0.64    0.55
   8  14   1    5.24    0.97
   9  14   1    0.49    0.57
  10  14   1   15.95    1.17
  11  14   1   -0.95    0.62
  12  14   1    0.05    0.67
  13  14   1   -0.22    0.74
  14  14   1    0.03    0.82
  15  14   1    0.25    0.91
  16  14   1    0.07    1.02
  17  14   1   -1.68    1.12
   5 -15  -1   -1.39    2.58
   4 -15  -1    2.96    2.48
   3 -15  -1    7.21    2.31
   2 -15  -1    5.74    2.16
   1 -15  -1    7.68    2.02
   0 -15  -1   11.49    1.86
  -1 -15  -1    2.82    1.63
  -2 -15  -1    1.21    1.54
  -3 -15  -1    1.47    1.47
  -4 -15  -1    4.58    1.43
   4  15   1    2.08    0.72
  -5 -15  -1    2.59    1.41
   5  15   1    0.77    0.68
  -6 -15  -1    4.53    1.42
  -7 -15  -1    3.73    1.44
   9  15   1   17.26    1.28
  10  15   1    1.27    0.67
  11  15   1   -0.09    0.67
  12  15   1   -0.70    0.73
  13  15   1    0.33    0.79
  14  15   1   -0.89    0.86
  15  15   1    0.00    0.96
  16  15   1   -0.36    1.05
   5 -16  -1    0.32    2.99
   4 -16  -1   10.93    2.85
   3 -16  -1    7.67    2.72
   2 -16  -1    1.16    2.44
   1 -16  -1    0.87    2.30
   0 -16  -1    4.94    2.15
  -1 -16  -1    3.53    1.97
  -2 -16  -1    1.48    1.81
  -3 -16  -1    0.23    1.71
  -4 -16  -1    2.35    1.65
  -5 -16  -1    1.10    1.61
   5  16   1   -0.49    0.79
  -6 -16  -1   10.51    1.91
   6  16   1    7.16    1.26
  -7 -16  -1    4.32    1.61
  -8 -16  -1    8.77    1.68
  -9 -16  -1    2.05    1.71
   9  16   1   -0.81    0.71
  10  16   1    0.64    0.72
  11  16   1    0.00    0.76
  12  16   1   -0.78    0.80
  13  16   1    0.53    0.86
  14  16   1   -1.16    0.93
  15  16   1   -0.53    1.03
   3 -17  -1    8.78    3.04
   2 -17  -1   -0.12    2.86
   1 -17  -1    5.12    2.64
   0 -17  -1    2.55    2.49
  -1 -17  -1    1.23    2.34
  -2 -17  -1    3.40    2.20
  -3 -17  -1    3.51    2.06
  -4 -17  -1    1.77    1.95
  -5 -17  -1    7.30    1.95
  -6 -17  -1    5.68    1.88
   6  17   1    2.33    0.86
  -7 -17  -1    0.81    1.88
   7  17   1    0.78    0.83
  -8 -17  -1    1.25    1.85
   8  17   1    1.39    0.79
  -9 -17  -1    6.59    1.98
  10  17   1    0.09    0.82
  11  17   1   -0.13    0.83
  12  17   1   -0.41    0.89
  13  17   1   -0.72    0.95
  14  17   1   -0.51    1.02
   1 -18  -1    1.13    3.00
   0 -18  -1    4.88    2.87
  -1 -18  -1    2.98    2.64
  -2 -18  -1    0.20    2.54
  -3 -18  -1    2.86    2.41
  -4 -18  -1    1.58    2.32
  -5 -18  -1    9.35    2.29
  -6 -18  -1    4.50    2.19
   6  18   1    1.77    1.01
  -7 -18  -1    4.06    2.14
   7  18   1    0.50    0.94
  -8 -18  -1    1.50    2.14
   8  18   1   -1.32    0.94
  -9 -18  -1    5.79    2.14
   9  18   1    3.33    0.91
 -10 -18  -1    2.51    2.22
  10  18   1   -1.29    0.90
  11  18   1   -0.58    0.96
  12  18   1   -0.20    0.97
  13  18   1   -1.61    1.04
  -1 -19  -1    3.06    3.06
  -2 -19  -1    5.66    2.94
  -3 -19  -1    2.33    2.77
  -4 -19  -1    3.91    2.57
  -5 -19  -1    3.97    2.55
  -6 -19  -1    0.56    2.45
  -7 -19  -1    2.71    2.39
   7  19   1   -0.08    1.09
  -8 -19  -1    1.01    2.38
   8  19   1    1.91    1.07
  -9 -19  -1    4.72    2.40
   9  19   1   -0.13    1.06
  10  19   1   -0.18    1.02
  11  19   1   -1.42    1.04
  10  19  -2    0.24    1.09
   9  19  -2   -1.56    1.04
  -9 -19   2    0.88    2.44
   8  19  -2    1.03    1.05
  -8 -19   2    0.59    2.40
   7  19  -2   -0.35    1.08
  -7 -19   2   -0.99    2.40
   6  19  -2    1.30    1.16
  -6 -19   2    0.01    2.44
  -5 -19   2   -1.80    2.55
  -4 -19   2   -0.11    2.66
  -3 -19   2   -1.20    2.74
  -2 -19   2    3.48    2.95
  -1 -19   2    2.71    3.06
  12  18  -2   -0.79    1.05
  11  18  -2   -0.17    1.00
  10  18  -2   -0.58    0.96
   9  18  -2    0.85    0.95
  -8 -18   2   -0.39    2.13
   7  18  -2    0.11    0.93
  -7 -18   2   -0.47    2.07
   6  18  -2    0.92    0.98
  -6 -18   2    3.43    2.10
   5  18  -2    0.08    1.05
  -5 -18   2    2.04    2.16
  -4 -18   2    4.08    2.22
  -3 -18   2   -0.52    2.26
  -2 -18   2   -0.12    2.38
  -1 -18   2    0.34    2.55
   0 -18   2    1.71    2.78
   1 -18   2    2.20    2.92
   2 -18   2    7.24    3.27
  14  17  -2   -0.95    1.10
  13  17  -2   -0.45    1.01
  12  17  -2   -0.17    0.95
  11  17  -2   -1.40    0.90
  10  17  -2   -1.03    0.86
   9  17  -2    0.71    0.82
  -9 -17   2    2.97    2.00
   8  17  -2    0.72    0.84
  -8 -17   2    2.69    1.86
   7  17  -2    0.67    0.81
  -7 -17   2    2.86    1.82
   6  17  -2    0.83    0.83
  -6 -17   2    0.70    1.80
   5  17  -2    0.14    0.87
  -5 -17   2   -0.09    1.83
   4  17  -2    0.18    0.93
  -4 -17   2   -1.10    1.87
  -3 -17   2    2.92    1.95
  -2 -17   2   -0.89    2.04
  -1 -17   2   -0.17    2.17
   0 -17   2    1.37    2.33
   1 -17   2    0.68    2.63
   2 -17   2    5.98    2.72
   3 -17   2    4.85    2.89
   4 -17   2    6.40    3.00
  15  16  -2    0.76    1.12
  14  16  -2    0.14    1.03
  13  16  -2   -0.05    0.93
  12  16  -2   -0.29    0.86
  11  16  -2   -0.55    0.81
  10  16  -2   -0.06    0.76
   9  16  -2   -1.34    0.74
   8  16  -2    1.84    0.72
  -8 -16   2    3.07    1.67
   7  16  -2    2.55    0.75
  -7 -16   2    3.62    1.63
   6  16  -2    7.15    1.22
  -6 -16   2   11.35    1.73
   5  16  -2   -0.23    0.76
  -5 -16   2   -1.65    1.63
   4  16  -2    1.66    0.80
  -4 -16   2    2.30    1.67
  -3 -16   2    0.10    1.71
  -2 -16   2    2.67    1.77
  -1 -16   2    2.79    1.83
   0 -16   2    0.07    1.98
   1 -16   2    2.06    2.17
   2 -16   2   -0.54    2.37
   3 -16   2    9.13    2.53
   4 -16   2    2.47    2.66
   5 -16   2    8.13    2.88
   6 -16   2    2.15    3.18
  15  15  -2   -0.78    1.06
  14  15  -2    1.35    0.95
  13  15  -2    0.13    0.86
  12  15  -2   -0.27    0.79
  11  15  -2   -0.15    0.73
  10  15  -2    0.21    0.69
   9  15  -2    0.03    0.66
   8  15  -2    0.71    0.65
  -8 -15   2    1.63    1.47
   7  15  -2    1.49    0.64
  -7 -15   2    3.63    1.45
   6  15  -2    1.46    0.66
  -6 -15   2   -0.04    1.45
   5  15  -2   -1.06    0.65
  -5 -15   2   -0.35    1.44
   4  15  -2    2.78    0.73
  -4 -15   2    4.38    1.51
   3  15  -2    0.55    0.74
  -3 -15   2   -0.62    1.52
  -2 -15   2    0.90    1.53
  -1 -15   2    2.90    1.60
   0 -15   2    1.51    1.69
   1 -15   2    1.33    1.81
   2 -15   2   17.15    2.40
   3 -15   2    0.53    2.18
   4 -15   2    0.78    2.29
   5 -15   2    4.26    2.49
   6 -15   2    5.80    2.74
  16  14  -2   -1.26    1.07
  15  14  -2   -0.57    0.97
  14  14  -2    2.97    0.90
  13  14  -2   -1.00    0.79
  12  14  -2    0.97    0.74
  11  14  -2    7.28    1.19
  10  14  -2    6.76    1.10
   9  14  -2    1.71    0.59
   8  14  -2    0.90    0.57
   7  14  -2   -0.68    0.57
  -7 -14   2   -0.09    1.31
   6  14  -2    0.05    0.56
  -6 -14   2    1.26    1.33
   5  14  -2    1.47    0.58
  -5 -14   2    2.89    1.31
   4  14  -2    2.01    0.60
  -4 -14   2    2.83    1.30
  -3 -14   2    4.12    1.32
   2  14  -2   -0.38    0.68
  -2 -14   2    1.68    1.35
  -1 -14   2   38.28    2.25
   0 -14   2    3.15    1.45
   1 -14   2   10.46    1.88
   2 -14   2    0.33    1.65
   3 -14   2    8.72    1.89
   4 -14   2    0.92    2.03
   5 -14   2    4.85    2.17
   6 -14   2    8.86    2.25
   7 -14   2    1.74    2.55
  17  13  -2    1.51    1.11
  16  13  -2   -0.18    1.01
  15  13  -2    0.45    0.91
  14  13  -2    1.70    0.83
  13  13  -2    0.01    0.74
  12  13  -2    1.90    0.66
  11  13  -2    1.73    0.62
  10  13  -2    6.67    1.02
   9  13  -2    0.49    0.53
   8  13  -2    1.08    0.50
  -7 -13   2    2.26    1.19
  -6 -13   2    6.38    1.20
  -5 -13   2    2.11    1.14
  -4 -13   2    2.33    1.11
   3  13  -2    0.61    0.54
  -3 -13   2    1.81    1.13
   2  13  -2   51.09    2.03
  -2 -13   2   50.67    2.40
  -1 -13   2    6.22    1.25
   0 -13   2    3.25    1.28
   1 -13   2   -1.38    1.31
   2 -13   2   25.54    1.99
   3 -13   2    6.29    1.56
   4 -13   2    0.43    1.74
   5 -13   2   10.68    1.93
   6 -13   2   11.03    2.29
  17  12  -2    1.88    1.01
  16  12  -2    0.16    0.91
  15  12  -2    0.80    0.83
  14  12  -2   -1.01    0.76
  13  12  -2    0.33    0.69
  12  12  -2    0.35    0.64
  11  12  -2    7.25    1.04
  10  12  -2    1.25    0.52
   9  12  -2    1.65    0.49
   8  12  -2    5.20    0.77
   7  12  -2   -0.08    0.43
   6  12  -2    0.29    0.43
  -6 -12   2    2.56    1.02
  -5 -12   2    1.76    1.00
  -4 -12   2    1.71    1.01
   3  12  -2   13.54    0.96
  -3 -12   2   12.50    1.31
   2  12  -2   20.60    1.15
  -2 -12   2   21.65    1.52
   1  12  -2   19.21    1.17
  -1 -12   2   21.80    1.54
   0 -12   2    4.70    1.10
   1 -12   2    2.60    1.19
   2 -12   2    6.45    1.28
   3 -12   2    1.27    1.34
   4 -12   2    1.57    1.48
   5 -12   2    5.93    1.70
   6 -12   2    5.41    1.81
   7 -12   2   11.86    2.23
  17  11  -2   -0.56    0.94
  16  11  -2    0.00    0.85
  15  11  -2   -0.16    0.78
  14  11  -2   17.62    1.45
  13  11  -2    0.54    0.64
  12  11  -2    5.62    1.04
  11  11  -2    0.88    0.51
  10  11  -2   -0.02    0.48
   9  11  -2    0.47    0.44
   8  11  -2    1.16    0.41
   7  11  -2    1.34    0.39
   6  11  -2    7.67    0.73
  -6 -11   2   10.32    1.17
   5  11  -2   23.08    1.15
  -5 -11   2   24.75    1.50
   4  11  -2    4.28    0.66
  -4 -11   2    4.56    0.90
   3  11  -2    0.87    0.43
  -3 -11   2    1.41    0.86
   2  11  -2   28.56    1.31
  -2 -11   2   28.21    1.60
   1  11  -2    7.32    0.81
  -1 -11   2    6.40    1.13
   0 -11   2    0.61    0.94
   1 -11   2    0.72    0.98
   2 -11   2   -0.13    1.11
   3 -11   2    0.07    1.17
   4 -11   2    5.89    1.29
   5 -11   2    6.49    1.45
   6 -11   2   11.34    1.85
   7 -11   2   21.33    2.03
  18  10  -2   -0.51    1.05
  17  10  -2   -0.67    0.94
  16  10  -2   -0.47    0.85
  15  10  -2    6.90    0.85
  14  10  -2    0.62    0.64
  13  10  -2   -0.62    0.59
  12  10  -2    5.55    0.98
  11  10  -2   -0.50    0.49
  10  10  -2   20.99    1.16
   9  10  -2   -0.22    0.39
   8  10  -2    0.86    0.38
   7  10  -2    5.98    0.66
   6  10  -2   63.80    2.27
  -6 -10   2   63.37    2.61
   5  10  -2   41.67    1.62
  -5 -10   2   41.51    2.00
   4  10  -2    1.49    0.35
   3  10  -2    4.69    0.69
  -3 -10   2    5.00    1.02
   2  10  -2    4.25    0.69
  -2 -10   2    5.85    1.02
   1  10  -2    0.16    0.43
  -1 -10   2   -0.02    0.78
   0 -10   2    0.32    0.80
   1 -10   2    7.41    1.08
   2 -10   2    1.43    0.94
   3 -10   2   16.66    1.39
   4 -10   2   13.75    1.42
   5 -10   2    1.62    1.21
   6 -10   2    7.14    1.38
  18   9  -2    2.03    0.97
  17   9  -2    0.47    0.86
  16   9  -2    0.33    0.77
  15   9  -2    0.71    0.70
  14   9  -2    1.63    0.62
  13   9  -2    0.97    0.57
  12   9  -2    8.95    1.00
  11   9  -2    1.25    0.46
  10   9  -2    3.00    0.44
   9   9  -2   12.69    0.88
   8   9  -2    0.26    0.32
   7   9  -2   10.99    0.74
   6   9  -2   39.49    1.55
   5   9  -2   24.75    1.14
  -5  -9   2   25.54    1.44
   4   9  -2   -0.11    0.28
  -4  -9   2    0.54    0.70
   3   9  -2    0.46    0.30
  -3  -9   2    0.47    0.73
   2   9  -2    0.67    0.31
  -2  -9   2   -0.07    0.74
   1   9  -2    6.27    0.65
  -1  -9   2    5.78    0.99
   0   9  -2    6.10    0.70
   0  -9   2    5.02    1.02
   1  -9   2   29.65    1.55
   2  -9   2   72.67    2.83
   3  -9   2   69.88    2.80
   4  -9   2   19.56    1.41
   5  -9   2    1.10    1.04
   6  -9   2    4.62    1.20
  12  -9   2    1.28    1.34
  13  -9   2    0.05    1.51
  18   8  -2    0.41    0.87
  17   8  -2    0.54    0.78
  16   8  -2    0.33    0.70
  15   8  -2    6.90    1.21
  14   8  -2    2.11    0.60
  13   8  -2    3.53    0.55
  12   8  -2    2.35    0.49
  11   8  -2   -0.13    0.42
  10   8  -2   15.71    0.95
   9   8  -2   11.32    0.79
   8   8  -2   33.61    1.41
   7   8  -2   26.12    1.19
   6   8  -2    1.76    0.31
   5   8  -2    5.59    0.54
   4   8  -2    0.00    0.24
  -4  -8   2    0.58    0.63
   3   8  -2    4.15    0.49
  -3  -8   2    4.93    0.74
   2   8  -2   23.55    1.03
  -2  -8   2   23.17    1.27
   1   8  -2   26.76    1.12
  -1  -8   2   26.55    1.39
   0   8  -2   31.90    1.27
   0  -8   2   30.40    1.56
   1  -8   2    1.63    0.68
   2  -8   2   11.35    1.08
   3  -8   2   49.37    2.19
   4  -8   2   46.50    2.06
   5  -8   2    1.21    0.91
   6  -8   2   -0.16    1.02
  11  -8   2    0.15    1.02
  13  -8   2   -2.44    1.33
  14  -8   2   -1.43    1.55
  18   7  -2    1.57    0.85
  17   7  -2    0.67    0.74
  16   7  -2    0.38    0.68
  15   7  -2    2.46    0.64
  14   7  -2    1.32    0.54
  13   7  -2    2.74    0.52
  12   7  -2    1.58    0.46
  11   7  -2    0.96    0.39
  10   7  -2   34.55    1.51
   9   7  -2   63.63    2.32
   8   7  -2    1.03    0.29
   7   7  -2    0.89    0.30
   6   7  -2    0.29    0.25
   5   7  -2   14.36    0.75
   4   7  -2   37.30    1.39
   3   7  -2   18.81    0.85
  -3  -7   2   19.19    1.07
   2   7  -2   74.63    2.39
  -2  -7   2   75.58    2.73
   1   7  -2   42.57    1.49
  -1  -7   2   41.92    1.77
   0   7  -2   44.51    1.55
   0  -7   2   43.15    1.84
   1  -7   2  116.16    4.01
   2  -7   2   50.12    2.07
   3  -7   2   22.01    1.29
   4  -7   2   24.02    1.35
   5  -7   2   10.69    1.14
   8  -7   2    2.03    0.60
  11  -7   2    8.92    1.27
  12  -7   2    0.14    1.05
  13  -7   2   -0.78    1.20
  14  -7   2   -1.53    1.36
  15  -7   2   -2.26    1.58
  18   6  -2   -0.12    0.83
  17   6  -2   -0.92    0.74
  16   6  -2   -1.17    0.65
  15   6  -2    0.23    0.59
  14   6  -2    0.21    0.53
  13   6  -2    0.05    0.47
  12   6  -2   14.80    1.00
  11   6  -2   29.72    1.41
  10   6  -2   33.21    1.48
   9   6  -2    0.03    0.31
   8   6  -2    8.38    0.69
   7   6  -2   -0.09    0.23
   6   6  -2   11.11    0.67
   5   6  -2    0.43    0.20
   4   6  -2    0.17    0.18
   3   6  -2    3.38    0.37
  -3  -6   2    3.70    0.58
   2   6  -2   39.39    1.37
  -2  -6   2   38.55    1.60
   1   6  -2  202.19    5.80
  -1  -6   2  209.51    6.57
   0   6  -2  156.36    4.56
   0  -6   2  162.71    5.21
   1  -6   2   36.00    1.54
   2  -6   2   25.23    1.25
   3  -6   2    7.96    0.83
   4  -6   2    8.15    0.87
   5  -6   2    8.56    0.97
   8  -6   2   43.51    1.68
   9  -6   2   31.79    1.44
  10  -6   2    0.90    0.72
  11  -6   2   -1.23    0.82
  12  -6   2    3.16    0.96
  14  -6   2   -0.22    1.27
  15  -6   2   -0.23    1.41
  18   5  -2   -0.24    1.19
  18   5  -2   -0.84    0.81
  17   5  -2   -2.04    1.10
  17   5  -2    0.15    0.70
  16   5  -2   -1.50    0.96
  13   5  -2   30.86    1.53
   7   5  -2    3.68    0.48
   6   5  -2    0.38    0.21
   5   5  -2   19.12    0.84
   4   5  -2  127.03    3.74
   3   5  -2    0.68    0.17
  -3  -5   2    1.51    0.43
   2   5  -2    6.22    0.41
  -2  -5   2    5.77    0.58
   1   5  -2  168.25    4.73
  -1  -5   2  167.11    5.35
   0   5  -2    0.85    0.17
   0  -5   2    1.25    0.43
   1  -5   2   15.03    0.85
   2  -5   2   14.31    0.88
   3  -5   2    4.55    0.64
   4  -5   2    5.46    0.73
   5  -5   2   55.60    1.87
   6  -5   2   18.99    0.91
   7  -5   2  123.22    3.86
   8  -5   2   39.64    1.53
   9  -5   2    0.95    0.53
  10  -5   2    2.32    0.64
  11  -5   2    6.20    1.07
  12  -5   2    1.29    0.85
  13  -5   2   -1.08    0.98
  14  -5   2   -0.57    1.12
  15  -5   2   -1.12    1.31
  16  -5   2   -2.54    1.47
  18   4  -2   -0.77    1.23
  17   4  -2    0.26    1.11
  16   4  -2    4.84    0.98
  15   4  -2    4.50    0.88
  14   4  -2    6.23    1.17
  13   4  -2   11.89    1.07
  12   4  -2    4.67    0.88
  11   4  -2    7.95    0.81
  10   4  -2    1.06    0.46
   9   4  -2   18.26    0.98
   4   4  -2  369.30   10.15
   3   4  -2    1.93    0.27
   2   4  -2   45.50    1.63
   2   4  -2   48.01    1.47
  -2  -4   2   45.23    1.44
  -2  -4   2   44.58    1.65
   1   4  -2   72.38    2.12
   1   4  -2   69.40    2.40
  -1  -4   2   71.05    2.10
  -1  -4   2   70.25    2.40
   0   4  -2    6.80    0.39
   0  -4   2    5.86    0.35
   0  -4   2    6.46    0.54
  -1   4  -2   62.09    1.87
   1  -4   2   59.71    1.85
   1  -4   2   65.12    2.20
   2  -4   2    4.21    0.50
   2  -4   2    4.25    0.35
   3  -4   2    6.21    0.59
   4  -4   2   30.85    1.12
   4  -4   2   32.10    1.35
   5  -4   2   56.92    1.89
   6  -4   2    0.38    0.35
   7  -4   2    1.66    0.44
   8  -4   2   53.71    1.92
   9  -4   2   18.40    1.00
  10  -4   2   15.00    1.02
  11  -4   2    5.34    0.97
  12  -4   2    0.85    0.78
  13  -4   2    0.99    0.90
  14  -4   2    1.15    1.03
  15  -4   2    0.61    1.17
  16  -4   2    2.36    1.36
  18   3  -2   -2.30    1.31
  17   3  -2    0.47    1.15
  16   3  -2    0.08    0.99
  15   3  -2   -0.27    0.87
  14   3  -2    2.62    0.81
  13   3  -2   17.78    1.19
  12   3  -2    2.15    0.63
  11   3  -2   -0.52    0.50
  10   3  -2   26.22    1.23
   9   3  -2    8.83    0.77
   8   3  -2   -0.32    0.36
   7   3  -2    0.65    0.33
   2   3  -2   14.79    0.58
   1   3  -2    2.55    0.33
   1   3  -2    2.87    0.24
  -1  -3   2    2.54    0.21
  -1  -3   2    2.08    0.35
   0   3  -2   48.55    1.46
   0   3  -2   48.49    1.71
   0  -3   2   48.55    1.72
   0  -3   2   50.20    1.46
  -1   3  -2    5.96    0.36
  -1   3  -2    5.26    0.45
   1  -3   2    6.28    0.33
   1  -3   2    6.71    0.48
  -2   3  -2   27.55    1.09
   2  -3   2   26.73    1.10
   3  -3   2  210.73    6.56
   4  -3   2   43.04    1.43
   5  -3   2  109.73    3.34
   6  -3   2   11.52    0.67
   7  -3   2   43.79    1.61
   8  -3   2    1.98    0.42
   9  -3   2    6.15    0.69
  10  -3   2    0.34    0.50
  11  -3   2    5.98    0.90
  12  -3   2    0.49    0.71
  13  -3   2    6.64    1.20
  14  -3   2    4.61    0.99
  15  -3   2   -0.43    1.08
  16  -3   2   -1.28    1.24
  17  -3   2    1.55    1.45
  18   2  -2   -1.65    1.37
  17   2  -2    1.96    1.21
  16   2  -2    5.77    1.06
  15   2  -2    7.03    1.01
  14   2  -2    4.34    0.86
  13   2  -2    5.53    0.78
  12   2  -2    1.02    0.60
  11   2  -2   -0.88    0.50
  10   2  -2   16.22    0.97
   9   2  -2    1.62    0.48
   8   2  -2  111.28    3.49
   7   2  -2   38.38    1.42
   6   2  -2   70.38    2.27
   5   2  -2   40.61    1.38
   4   2  -2    1.48    0.26
   1   2  -2   18.17    0.59
   1   2  -2   16.57    0.68
  -1  -2   2   17.21    0.70
   0   2  -2    0.07    0.06
   0   2  -2   -0.02    0.18
   0  -2   2    0.18    0.18
   0  -2   2    0.02    0.06
  -1   2  -2   45.57    1.56
  -1   2  -2   46.09    1.30
   1  -2   2   45.98    1.57
   1  -2   2   44.69    1.30
  -2   2  -2    5.64    0.40
  -2   2  -2    5.19    0.29
   2  -2   2    5.16    0.41
  -3   2  -2  109.87    3.22
   3  -2   2  109.11    3.21
   4  -2   2  521.73   14.67
   5  -2   2   38.51    1.34
   6  -2   2    2.67    0.44
   7  -2   2   25.06    1.07
   8  -2   2    0.16    0.36
   9  -2   2    2.01    0.42
  10  -2   2    2.22    0.48
  11  -2   2    0.81    0.55
  12  -2   2    5.38    0.95
  13  -2   2   26.60    1.49
  14  -2   2    1.30    0.87
  15  -2   2   -0.75    1.00
  16  -2   2   -1.17    1.14
  17  -2   2   -1.55    1.31
  17   1  -2    3.50    1.27
  16   1  -2    1.84    1.11
  15   1  -2    1.15    0.98
  14   1  -2    0.14    0.86
  13   1  -2    2.08    0.75
  12   1  -2    0.95    0.63
  11   1  -2    0.15    0.57
  10   1  -2   13.09    0.91
   9   1  -2  126.76    3.99
   8   1  -2   78.72    2.61
   7   1  -2    1.16    0.34
   6   1  -2    7.15    0.54
   5   1  -2   20.55    0.84
   4   1  -2   54.26    1.73
   3   1  -2   37.35    1.22
   2   1  -2   23.86    0.79
   0  -1   2   30.28    1.05
  -1   1  -2  150.17    4.56
   1  -1   2  167.95    4.97
   1  -1   2  168.56    4.57
  -2   1  -2   26.74    0.95
  -2   1  -2   25.62    0.83
   2  -1   2   26.08    0.84
   2  -1   2   26.64    0.96
  -3   1  -2  214.20    6.13
   3  -1   2  216.57    6.13
   4  -1   2   19.26    0.75
   5  -1   2    1.68    0.26
   6  -1   2    1.67    0.29
   7  -1   2   53.95    1.85
   8  -1   2   11.95    0.74
   9  -1   2    0.79    0.38
  10  -1   2   55.86    2.02
  11  -1   2    1.44    0.52
  12  -1   2   22.77    1.27
  13  -1   2   10.47    1.10
  14  -1   2    0.97    0.81
  15  -1   2   -0.96    0.93
  16  -1   2   -1.37    1.05
  17  -1   2   -0.73    1.25
  18  -1   2   -1.66    1.40
  17   0  -2    0.04    1.34
  16   0  -2   -0.35    1.18
  15   0  -2   -0.30    1.04
  14   0  -2   -0.18    0.91
  13   0  -2    4.91    0.81
  12   0  -2   11.41    1.05
  11   0  -2    2.91    0.62
  10   0  -2   34.14    1.48
   9   0  -2   28.88    1.28
   8   0  -2   51.12    1.87
   7   0  -2   17.46    0.87
   6   0  -2    3.90    0.49
   5   0  -2   13.80    0.68
   4   0  -2    3.90    0.35
   3   0  -2    0.39    0.17
  -3   0   2    0.32    0.20
   2   0  -2    5.60    0.31
   1   0   2   99.26    2.98
   1   0   2  110.17    3.23
  -2   0  -2   21.07    0.68
   2   0   2   21.38    0.69
  -3   0  -2    0.94    0.15
   3   0   2    1.10    0.17
   4   0   2   32.12    1.09
   5   0   2   15.96    0.69
   6   0   2   46.99    1.59
   7   0   2   58.24    1.95
   8   0   2   16.45    0.84
   9   0   2   71.25    2.43
  10   0   2    8.68    0.72
  11   0   2   12.03    0.88
  12   0   2    4.01    0.63
  13   0   2    5.45    0.98
  14   0   2   -0.22    0.76
  15   0   2   -0.48    0.88
  16   0   2   -1.01    0.99
  17   0   2   -1.72    1.16
  18   0   2    2.90    1.33
  17  -1  -2   -0.02    1.45
  16  -1  -2   -0.58    1.25
  15  -1  -2   -0.74    1.12
  14  -1  -2   -0.29    0.98
  13  -1  -2   12.44    1.31
  12  -1  -2   15.41    1.19
  11  -1  -2    8.33    0.99
  10  -1  -2    5.07    0.82
   9  -1  -2   62.56    2.23
   8  -1  -2    0.94    0.42
   7  -1  -2   22.52    1.04
   6  -1  -2   10.39    0.68
   5  -1  -2    0.89    0.28
   4  -1  -2   32.86    1.17
   3  -1  -2   66.74    2.07
   2  -1  -2   68.60    2.07
  -2   1   2   68.34    2.07
  -1  -1  -2   28.28    1.00
   1   1   2   30.84    0.88
  -2  -1  -2   10.81    0.39
  -2  -1  -2   11.02    0.38
   2   1   2   10.42    0.38
   2   1   2   11.01    0.38
  -3  -1  -2   43.17    1.33
   3   1   2   43.49    1.33
   3   1   2   43.96    1.29
  -4  -1  -2   14.29    0.58
   4   1   2   15.08    0.59
   5   1   2   14.21    0.61
   6   1   2   83.50    2.60
   7   1   2   52.15    1.77
   8   1   2   31.95    1.27
   9   1   2   60.71    2.13
  10   1   2  126.40    3.98
  11   1   2    0.75    0.48
  12   1   2   -0.24    0.54
  13   1   2    3.22    0.67
  14   1   2   -0.51    0.73
  15   1   2   -1.29    0.81
  16   1   2   -1.02    0.94
  17   1   2    0.16    1.10
  18   1   2   -0.19    1.25
  16  -2  -2   -0.14    1.33
  15  -2  -2   -1.48    1.21
  14  -2  -2   -0.08    1.06
  13  -2  -2    1.34    0.92
  12  -2  -2   38.67    1.78
  11  -2  -2   10.46    1.03
  10  -2  -2    8.56    0.91
   9  -2  -2    9.57    0.85
   8  -2  -2   10.70    0.77
   7  -2  -2   -0.19    0.39
   6  -2  -2    3.20    0.56
   5  -2  -2    6.44    0.52
   4  -2  -2   82.77    2.58
   3  -2  -2  206.81    5.97
   2  -2  -2   91.60    2.73
  -2   2   2   91.43    2.73
   1  -2  -2   61.21    2.00
   1  -2  -2   64.22    1.85
  -1   2   2   58.05    1.98
   0  -2  -2    9.64    0.46
   0   2   2    9.59    0.46
  -1  -2  -2   39.67    1.35
  -1  -2  -2   38.81    1.20
   1   2   2   39.18    1.34
   1   2   2   41.57    1.22
  -2  -2  -2   28.51    0.92
  -2  -2  -2   29.94    1.03
   2   2   2   30.12    1.03
   2   2   2   28.87    0.92
  -3  -2  -2   17.56    0.62
  -3  -2  -2   17.69    0.64
   3   2   2   18.61    0.65
  -4  -2  -2   11.55    0.49
   4   2   2   12.16    0.51
   4   2   2   12.20    0.50
   5   2   2   42.38    1.37
   5   2   2   42.22    1.38
   6   2   2    4.48    0.40
   7   2   2   49.52    1.69
   8   2   2   32.26    1.26
   9   2   2   56.65    2.00
  10   2   2    3.13    0.49
  11   2   2    0.04    0.47
  12   2   2   -0.33    0.53
  13   2   2    0.14    0.62
  14   2   2    0.94    0.71
  15   2   2    0.05    0.79
  16   2   2   -1.50    0.90
  17   2   2    1.95    1.06
  18   2   2    2.22    1.18
  16  -3  -2    0.96    1.46
  15  -3  -2    1.05    1.28
  13  -3  -2   22.98    1.63
  12  -3  -2    3.23    0.88
  11  -3  -2   -1.29    0.68
  10  -3  -2    0.11    0.64
   9  -3  -2    1.92    0.58
   8  -3  -2    1.82    0.48
   7  -3  -2    5.39    0.69
   6  -3  -2   26.02    1.14
   5  -3  -2   47.86    1.70
   4  -3  -2  117.38    3.57
   3  -3  -2  176.79    5.17
   2  -3  -2   24.07    0.88
   1  -3  -2    2.07    0.37
  -1   3   2    2.10    0.34
   0  -3  -2    9.38    0.53
   0   3   2    8.89    0.49
  -1  -3  -2   26.02    0.91
  -1  -3  -2   25.64    1.00
   1   3   2   25.55    1.00
   1   3   2   26.94    0.94
  -2  -3  -2    0.39    0.12
  -2  -3  -2    0.78    0.22
   2   3   2    0.51    0.15
   2   3   2    0.91    0.24
  -3  -3  -2    8.40    0.41
   3   3   2    8.52    0.44
  -4  -3  -2    0.36    0.13
   4   3   2    0.34    0.13
   5   3   2  162.90    4.60
   6   3   2  299.66    8.28
   7   3   2    3.03    0.39
   7   3   2    3.56    0.41
   8   3   2   25.43    1.06
   9   3   2    5.48    0.61
  10   3   2    8.18    0.74
  11   3   2    0.12    0.47
  12   3   2    0.74    0.54
  13   3   2    1.31    0.63
  14   3   2   20.85    1.27
  15   3   2    5.80    0.85
  16   3   2   -0.36    0.89
  17   3   2   -1.54    1.02
  17   3   2    0.12    0.64
  18   3   2    0.06    1.14
  18   3   2    1.40    0.75
  19   3   2   -2.21    1.24
  19   3   2   -1.20    0.87
  15  -4  -2    1.82    1.41
  14  -4  -2    1.39    1.28
  13  -4  -2    0.87    1.10
  12  -4  -2    1.59    0.95
  11  -4  -2    1.35    0.78
  10  -4  -2   12.08    1.12
   9  -4  -2   16.39    1.12
   8  -4  -2    6.17    0.78
   7  -4  -2   84.00    2.80
   6  -4  -2    4.80    0.65
   5  -4  -2   16.72    0.90
   4  -4  -2  169.20    5.04
   3  -4  -2   47.15    1.59
   2  -4  -2    9.17    0.64
   1  -4  -2    0.15    0.35
   0  -4  -2   -0.18    0.31
  -1  -4  -2   72.15    2.46
   1   4   2   74.25    2.25
  -2  -4  -2    0.29    0.15
  -2  -4  -2    0.25    0.28
   2   4   2    0.51    0.18
   2   4   2   -0.16    0.28
  -3  -4  -2   25.02    1.00
   3   4   2   25.69    0.94
   3   4   2   25.76    1.02
   4   4   2   55.70    1.77
   5   4   2  232.05    6.47
   6   4   2   64.55    2.07
   7   4   2   47.54    1.66
   8   4   2    1.68    0.25
   9   4   2    0.39    0.27
   9   4   2    0.42    0.35
  10   4   2   27.55    1.27
  10   4   2   28.41    1.22
  11   4   2    7.51    0.74
  11   4   2    7.26    0.71
  12   4   2    1.34    0.53
  12   4   2    1.24    0.39
  13   4   2    5.22    0.70
  13   4   2    5.83    0.81
  14   4   2   13.57    1.10
  14   4   2   11.89    0.99
  15   4   2    5.72    1.12
  15   4   2    5.61    0.99
  16   4   2   -0.04    0.59
  16   4   2   -0.65    0.87
  17   4   2    1.08    0.68
  17   4   2    1.05    0.98
  18   4   2    0.10    0.76
  18   4   2   -1.33    1.06
  19   4   2    1.22    0.87
  19   4   2   -1.99    1.18
  15  -5  -2   -1.27    1.53
  14  -5  -2   -1.17    1.41
  13  -5  -2    0.46    1.23
  12  -5  -2    0.64    1.06
  11  -5  -2   11.72    1.30
  10  -5  -2    6.97    0.84
   9  -5  -2    5.02    0.76
   8  -5  -2   63.35    2.32
   7  -5  -2   19.89    1.04
   6  -5  -2   41.45    1.63
   5  -5  -2    1.36    0.44
   4  -5  -2   26.95    1.13
   2  -5  -2   19.74    0.99
   1  -5  -2    1.56    0.45
   0  -5  -2    0.58    0.38
  -1  -5  -2   75.68    2.62
   1   5   2   77.73    2.38
  -2  -5  -2  189.12    5.96
   2   5   2  191.19    5.38
  -3  -5  -2   14.37    0.76
   3   5   2   15.45    0.70
  -4  -5  -2    1.94    0.36
   5   5   2    7.87    0.50
   6   5   2   19.70    0.85
   7   5   2   26.24    1.07
   8   5   2    2.65    0.45
   9   5   2    8.51    0.66
  10   5   2    4.22    0.61
  11   5   2   19.50    1.01
  12   5   2    1.10    0.53
  12   5   2    1.77    0.39
  13   5   2    9.08    0.86
  13   5   2    7.80    0.95
  14   5   2    6.76    0.89
  14   5   2    5.04    0.77
  15   5   2    6.31    1.00
  15   5   2    4.69    0.85
  16   5   2    0.63    0.61
  17   5   2    1.28    0.68
  17   5   2   -1.57    0.93
  18   5   2   -1.57    1.03
  18   5   2    0.64    0.77
  19   5   2   -0.75    0.87
  19   5   2   -1.08    1.15
  14  -6  -2    0.61    1.49
  13  -6  -2    1.43    1.33
  12  -6  -2    0.47    1.19
  11  -6  -2    6.46    1.07
  10  -6  -2   -0.49    0.85
   9  -6  -2    1.55    0.77
   8  -6  -2   30.57    1.49
   7  -6  -2  133.95    4.26
   6  -6  -2    2.15    0.52
   5  -6  -2    1.77    0.49
   4  -6  -2   10.53    0.97
   3  -6  -2    7.05    0.83
   2  -6  -2    4.15    0.68
   1  -6  -2    0.53    0.50
   0  -6  -2   22.74    1.10
  -1  -6  -2   54.22    2.03
  -2  -6  -2  145.06    4.69
   2   6   2  144.34    4.24
  -3  -6  -2   12.77    0.76
   3   6   2   12.39    0.67
  -4  -6  -2   20.99    0.98
   4   6   2   21.22    0.89
   5   6   2    1.36    0.23
   6   6   2   24.09    1.01
   7   6   2    0.55    0.22
   8   6   2    5.89    0.56
   9   6   2   23.37    1.12
  10   6   2   10.32    0.72
  11   6   2    8.28    0.74
  12   6   2    0.82    0.41
  13   6   2    4.99    0.85
  14   6   2   11.57    1.06
  14   6   2   11.82    1.14
  15   6   2    0.39    0.57
  16   6   2   -0.20    0.64
  17   6   2   -0.11    0.69
  18   6   2   -0.83    1.02
  18   6   2   -0.91    0.79
  19   6   2    0.23    0.87
  14  -7  -2   -1.27    1.66
  13  -7  -2   -1.66    1.46
  12  -7  -2   -0.35    1.33
  11  -7  -2   -0.34    1.15
  10  -7  -2   19.58    1.52
   9  -7  -2    0.88    0.83
   8  -7  -2   33.54    1.63
   7  -7  -2    2.15    0.70
   4  -7  -2    6.83    1.01
   3  -7  -2    1.24    0.68
   2  -7  -2    4.45    0.85
   1  -7  -2   27.28    1.32
   0  -7  -2   52.85    2.06
  -1  -7  -2  145.07    4.79
  -2  -7  -2   83.05    2.97
   2   7   2   86.32    2.72
  -3  -7  -2   11.63    0.80
   3   7   2   11.00    0.67
  -4  -7  -2   19.13    1.01
   4   7   2   19.68    0.90
  -5  -7  -2    4.36    0.60
   5   7   2    4.24    0.46
   6   7   2    0.04    0.23
   7   7   2    7.32    0.58
   8   7   2    1.43    0.30
   9   7   2    0.18    0.30
  10   7   2   42.96    1.70
  11   7   2   55.19    2.10
  12   7   2    0.23    0.42
  13   7   2    0.90    0.47
  14   7   2    2.22    0.53
  15   7   2    0.55    0.58
  16   7   2    0.75    0.63
  17   7   2    0.17    0.71
  18   7   2   -0.10    0.80
  19   7   2    1.84    0.91
  13  -8  -2   -0.15    1.64
  12  -8  -2    1.75    1.49
  11  -8  -2   16.49    1.82
   9  -8  -2    1.89    0.98
   5  -8  -2    9.41    1.27
   4  -8  -2    9.22    1.21
   3  -8  -2   29.72    1.62
   2  -8  -2   76.66    2.93
   1  -8  -2   13.95    1.11
   0  -8  -2    0.12    0.62
  -1  -8  -2   24.65    1.28
  -2  -8  -2   12.28    0.87
   2   8   2   11.44    0.73
  -3  -8  -2    1.24    0.55
   3   8   2    0.71    0.28
  -4  -8  -2    1.16    0.56
   4   8   2    1.22    0.32
  -5  -8  -2    4.34    0.63
   5   8   2    4.26    0.52
   6   8   2    1.32    0.27
   7   8   2    8.28    0.66
   8   8   2   17.00    0.94
   9   8   2   44.22    1.73
  10   8   2   39.14    1.60
  11   8   2   17.14    1.02
  12   8   2    1.49    0.47
  13   8   2    2.91    0.52
  14   8   2   -0.14    0.54
  15   8   2    6.23    1.13
  16   8   2    0.41    0.68
  17   8   2    0.20    0.76
  18   8   2   -0.56    0.86
  19   8   2    0.81    0.93
  12  -9  -2    7.23    1.65
  11  -9  -2    5.05    1.47
  10  -9  -2    4.94    1.35
   9  -9  -2    0.90    1.19
   4  -9  -2    8.87    1.32
   3  -9  -2   60.46    2.53
   2  -9  -2   49.73    2.16
   1  -9  -2   22.69    1.31
   0  -9  -2    1.55    0.80
  -1  -9  -2   -0.69    0.74
  -2  -9  -2    5.18    0.84
   2   9   2    4.96    0.65
  -3  -9  -2    8.40    0.87
   3   9   2    7.73    0.67
  -4  -9  -2    3.77    0.74
   4   9   2    3.66    0.58
  -5  -9  -2    0.80    0.59
   5   9   2    0.65    0.32
  -6  -9  -2   91.79    3.33
   6   9   2  100.87    3.16
   7   9   2   45.38    1.72
   8   9   2    3.08    0.55
   9   9   2    3.67    0.62
  10   9   2    4.51    0.68
  11   9   2    0.04    0.42
  12   9   2    0.40    0.46
  13   9   2   -0.28    0.52
  14   9   2   -0.24    0.59
  15   9   2    2.98    0.67
  16   9   2   -0.08    0.71
  17   9   2    0.30    0.78
  18   9   2   -0.13    0.87
  19   9   2    0.55    0.98
  12 -10  -2    1.86    1.74
  11 -10  -2    6.52    1.67
   5 -10  -2    2.55    1.34
   4 -10  -2    8.81    1.49
   3 -10  -2   34.57    1.93
   2 -10  -2   57.11    2.49
   1 -10  -2    1.40    0.88
   0 -10  -2    0.15    0.78
  -1 -10  -2    9.05    0.94
  -2 -10  -2   12.39    1.05
  -3 -10  -2    1.81    0.74
   3  10   2    0.17    0.37
  -4 -10  -2    0.70    0.71
   4  10   2   -0.06    0.34
  -5 -10  -2   11.48    1.09
   5  10   2   11.06    0.75
  -6 -10  -2   26.52    1.47
   6  10   2   25.11    1.20
  -7 -10  -2   79.44    2.94
   7  10   2   76.02    2.66
   8  10   2   15.50    0.89
   9  10   2    1.51    0.38
  10  10   2    0.74    0.41
  11  10   2   12.85    0.96
  12  10   2    0.87    0.51
  13  10   2    0.76    0.56
  14  10   2    1.36    0.62
  15  10   2    2.23    0.71
  16  10   2    4.00    0.77
  17  10   2    0.24    0.83
  18  10   2    2.01    0.94
  19  10   2    1.13    1.04
   6 -11  -2   10.40    1.75
   4 -11  -2    5.81    1.44
   3 -11  -2   14.47    1.62
   2 -11  -2    0.87    1.17
   1 -11  -2    3.41    1.07
   0 -11  -2    0.62    0.93
  -1 -11  -2    2.05    0.86
  -2 -11  -2    1.30    0.80
  -3 -11  -2   33.99    1.64
   3  11   2   31.70    1.44
  -4 -11  -2    9.93    0.99
   4  11   2   10.13    0.83
   5  11   2    2.16    0.41
  -6 -11  -2   41.87    1.84
   6  11   2   39.54    1.65
  -7 -11  -2    4.78    0.99
   7  11   2    3.76    0.69
   8  11   2    4.65    0.67
   9  11   2    1.59    0.40
  10  11   2    5.51    0.78
  11  11   2   -0.40    0.48
  12  11   2    1.41    0.54
  13  11   2    0.91    0.59
  14  11   2    0.47    0.67
  15  11   2   16.37    1.44
  16  11   2    1.22    0.82
  17  11   2   -0.36    0.90
  18  11   2   -0.79    0.98
   6 -12  -2   22.25    2.39
   5 -12  -2    1.80    1.74
   4 -12  -2    1.80    1.58
   3 -12  -2    0.54    1.44
   2 -12  -2    5.63    1.41
   1 -12  -2   -0.38    1.25
   0 -12  -2    0.81    1.14
  -1 -12  -2    5.82    1.08
  -2 -12  -2   34.00    1.85
   3  12   2    4.84    0.84
  -4 -12  -2   11.95    1.18
   4  12   2   11.54    0.93
  -5 -12  -2    1.45    0.87
  -6 -12  -2    1.03    0.89
   6  12   2   -0.13    0.43
  -7 -12  -2   -0.19    0.93
   7  12   2   -0.46    0.42
   8  12   2    1.57    0.44
   9  12   2    6.03    0.80
  10  12   2    0.16    0.47
  11  12   2   -0.09    0.51
  12  12   2    6.92    1.05
  13  12   2    0.73    0.64
  14  12   2    2.69    0.72
  15  12   2    0.80    0.78
  16  12   2    0.01    0.87
  17  12   2    0.00    0.97
  18  12   2    1.49    1.08
   5 -13  -2   12.83    2.43
   4 -13  -2    2.92    1.85
   3 -13  -2    3.69    1.70
   2 -13  -2   24.06    2.06
   1 -13  -2    6.86    1.52
   0 -13  -2   10.41    1.65
  -1 -13  -2    5.51    1.30
  -2 -13  -2   22.53    1.74
  -3 -13  -2   42.50    2.18
  -4 -13  -2    6.88    1.34
   4  13   2    9.42    0.94
  -5 -13  -2    1.11    1.05
   5  13   2    0.05    0.52
  -6 -13  -2    0.72    1.05
   6  13   2    0.53    0.48
  -7 -13  -2    1.10    1.08
   8  13   2    2.60    0.50
   9  13   2    0.95    0.50
  10  13   2    1.00    0.53
  11  13   2   24.18    1.35
  12  13   2    1.19    0.62
  13  13   2    2.27    0.68
  14  13   2    0.83    0.76
  15  13   2   -0.03    0.85
  16  13   2   -1.18    0.94
  17  13   2    2.01    1.07
  18  13   2    0.30    1.15
   5 -14  -2    6.65    2.38
   4 -14  -2    1.21    2.19
   3 -14  -2    7.07    1.97
   2 -14  -2   18.83    2.24
   1 -14  -2    3.34    1.69
   0 -14  -2   -0.28    1.53
  -1 -14  -2    1.74    1.48
  -2 -14  -2   22.53    1.86
  -3 -14  -2    1.32    1.31
  -4 -14  -2    0.02    1.27
   4  14   2    0.11    0.61
  -5 -14  -2    2.21    1.25
   5  14   2    2.52    0.59
  -6 -14  -2    8.42    1.32
   6  14   2    6.93    0.97
  -7 -14  -2    0.79    1.25
   7  14   2    0.38    0.54
  -8 -14  -2    1.50    1.27
   8  14   2    0.04    0.55
  -9 -14  -2    4.49    1.33
  10  14   2    2.50    0.60
  11  14   2    1.29    0.62
  12  14   2    2.52    0.66
  13  14   2   -0.35    0.72
  14  14   2    1.79    0.80
  15  14   2    0.43    0.87
  16  14   2    0.53    0.98
  17  14   2   -0.06    1.11
   6 -15  -2    3.69    2.87
   5 -15  -2    4.09    2.72
   4 -15  -2    2.51    2.49
   3 -15  -2    6.40    2.34
   2 -15  -2    1.00    2.10
   1 -15  -2   33.17    2.61
   0 -15  -2    8.61    1.87
  -1 -15  -2    2.41    1.64
  -2 -15  -2   -0.28    1.56
  -3 -15  -2    1.56    1.56
  -4 -15  -2    0.64    1.47
  -5 -15  -2    2.04    1.44
   5  15   2    1.45    0.70
  -6 -15  -2    2.25    1.43
   6  15   2    0.78    0.66
  -7 -15  -2    0.62    1.43
   7  15   2    0.32    0.62
  -8 -15  -2    7.13    1.46
   8  15   2    3.97    0.64
   9  15   2    0.27    0.63
  10  15   2   -0.09    0.66
  11  15   2    2.32    0.69
  12  15   2   -0.97    0.71
  13  15   2    0.19    0.78
  14  15   2    0.15    0.86
  15  15   2   -1.59    0.94
  16  15   2   -0.61    1.04
   5 -16  -2   -0.16    3.01
   4 -16  -2    6.50    2.93
   3 -16  -2    2.12    2.71
   2 -16  -2   19.82    2.97
   1 -16  -2    5.59    2.29
   0 -16  -2    2.71    2.12
  -1 -16  -2    6.46    1.99
  -2 -16  -2   -0.27    1.86
  -3 -16  -2    1.98    1.74
  -4 -16  -2    2.53    1.66
  -5 -16  -2   -1.33    1.63
   5  16   2   -0.62    0.82
  -6 -16  -2    2.43    1.61
   6  16   2    2.01    0.76
  -7 -16  -2   11.48    1.67
   7  16   2    7.78    1.20
   8  16   2    6.33    1.18
  -9 -16  -2    6.68    1.73
  10  16   2    0.31    0.72
  11  16   2   -0.64    0.74
  12  16   2   -0.68    0.79
  13  16   2   -0.29    0.87
  14  16   2   -1.16    0.93
  15  16   2   -1.45    1.00
  16  16   2   -1.01    1.10
   3 -17  -2    4.64    3.30
   2 -17  -2    2.06    2.92
   1 -17  -2    1.83    2.74
   0 -17  -2    3.43    2.45
  -1 -17  -2    3.92    2.31
  -2 -17  -2    3.27    2.16
  -3 -17  -2    4.28    2.08
  -4 -17  -2    6.52    1.98
  -5 -17  -2    5.07    1.92
  -6 -17  -2    4.85    1.91
  -7 -17  -2    7.56    1.92
   7  17   2    3.50    0.84
  -8 -17  -2   12.94    2.25
  -9 -17  -2    3.17    1.87
   9  17   2   -0.46    0.77
 -10 -17  -2    2.55    1.98
  11  17   2   -1.42    0.83
  12  17   2   -0.97    0.86
  13  17   2    0.17    0.94
  14  17   2   -0.41    1.01
  15  17   2   -1.42    1.09
   1 -18  -2   -0.95    3.11
   0 -18  -2    1.99    2.92
  -1 -18  -2    5.19    2.72
  -2 -18  -2    4.18    2.49
  -3 -18  -2    4.76    2.36
  -4 -18  -2    1.59    2.29
  -5 -18  -2    7.32    2.22
  -6 -18  -2    2.62    2.14
  -7 -18  -2    2.23    2.11
   7  18   2    1.38    0.99
  -8 -18  -2    0.94    2.10
   8  18   2    1.65    0.92
  -9 -18  -2    2.68    2.14
   9  18   2    0.74    0.91
 -10 -18  -2    2.19    2.18
  11  18   2   -0.65    0.92
  12  18   2   -1.30    0.98
  13  18   2   -0.73    1.02
  -1 -19  -2    2.06    3.21
  -2 -19  -2    1.41    2.96
  -3 -19  -2    5.15    2.80
  -4 -19  -2   11.22    2.73
  -5 -19  -2    5.99    2.60
  -6 -19  -2    0.72    2.49
  -7 -19  -2    3.07    2.43
  -8 -19  -2    0.07    2.40
   8  19   2    1.86    1.10
  -9 -19  -2    2.39    2.40
   9  19   2    2.00    1.05
  10  19   2   -0.02    1.03
 -11 -19  -2    3.59    2.53
  11  19   2   -0.68    1.03
  10  19  -3   -0.45    1.11
   9  19  -3    0.64    1.09
   8  19  -3    1.79    1.07
  -8 -19   3    3.68    2.42
   7  19  -3   -0.72    1.10
  -7 -19   3    3.09    2.32
   6  19  -3    1.58    1.13
  -6 -19   3    1.53    2.43
   5  19  -3    0.71    1.20
  -5 -19   3    3.51    2.53
  -4 -19   3    2.95    2.60
  -3 -19   3    1.59    2.72
  -2 -19   3    3.49    2.84
  -1 -19   3    4.54    2.87
  12  18  -3   -1.10    1.09
  11  18  -3   -0.47    1.03
  10  18  -3   -0.81    0.98
  -9 -18   3    5.23    2.21
   8  18  -3   -0.41    0.95
  -8 -18   3    3.62    2.13
   7  18  -3    1.24    0.94
  -7 -18   3    3.17    2.18
   6  18  -3   -0.97    0.99
  -6 -18   3    2.16    2.19
   5  18  -3    3.51    1.03
  -5 -18   3    4.45    2.19
  -4 -18   3    3.66    2.24
  -3 -18   3    1.44    2.35
  -2 -18   3    5.26    2.44
  -1 -18   3    5.09    2.54
   0 -18   3    5.56    2.70
   1 -18   3    8.38    2.98
   2 -18   3    7.52    3.11
  13  17  -3   -1.25    1.05
  12  17  -3    0.76    0.98
  11  17  -3   -0.74    0.91
  10  17  -3   -0.87    0.89
  -9 -17   3    5.18    2.03
  -8 -17   3    4.09    1.97
  -7 -17   3    5.18    1.92
   6  17  -3    2.29    0.84
  -6 -17   3    2.19    1.90
  -5 -17   3    3.50    1.93
   4  17  -3    4.22    0.97
  -4 -17   3    5.49    2.00
  -3 -17   3    0.32    2.05
  -2 -17   3    0.63    2.13
  -1 -17   3    2.87    2.21
   0 -17   3    1.52    2.32
   1 -17   3    4.57    2.59
   2 -17   3    9.79    2.62
   3 -17   3    7.10    2.91
   4 -17   3    5.32    3.17
  14  16  -3   -0.57    1.06
  13  16  -3   -0.88    0.98
  12  16  -3   -0.10    0.89
  11  16  -3   -1.13    0.82
  10  16  -3   -0.11    0.79
   9  16  -3    2.13    0.77
   8  16  -3   -0.23    0.74
   7  16  -3   -0.94    0.73
  -7 -16   3    1.61    1.71
   6  16  -3   -0.93    0.75
  -6 -16   3   -0.50    1.69
   5  16  -3    4.49    0.78
  -5 -16   3    7.09    1.72
   4  16  -3    1.23    0.81
  -4 -16   3   -0.67    1.69
   3  16  -3   -0.03    0.85
  -3 -16   3    2.21    1.76
  -2 -16   3    0.98    1.82
  -1 -16   3    1.98    1.92
   0 -16   3    0.48    2.04
   1 -16   3    6.62    2.16
   2 -16   3    5.12    2.33
   3 -16   3    7.55    2.48
   4 -16   3    5.39    2.72
   5 -16   3   -0.01    3.02
   6 -16   3   -0.95    3.11
  15  15  -3   -0.49    1.08
  14  15  -3   -1.38    0.99
  13  15  -3    0.83    0.90
  12  15  -3    0.40    0.83
  11  15  -3   -0.74    0.76
  10  15  -3    1.00    0.71
   9  15  -3    1.66    0.68
   8  15  -3   10.83    1.18
  -8 -15   3   14.16    1.95
   7  15  -3   -0.34    0.65
  -7 -15   3    0.74    1.54
   6  15  -3    1.08    0.66
  -6 -15   3    1.57    1.51
   5  15  -3   -0.33    0.66
  -5 -15   3    0.83    1.48
   4  15  -3    0.79    0.70
  -4 -15   3    0.26    1.46
   3  15  -3    0.91    0.73
  -3 -15   3    1.30    1.49
  -2 -15   3    1.69    1.55
  -1 -15   3    0.81    1.62
   0 -15   3    5.14    1.75
   1 -15   3    0.68    1.89
   2 -15   3    2.39    2.00
   3 -15   3    3.67    2.17
   4 -15   3   15.79    2.59
   5 -15   3    3.46    2.53
   6 -15   3   -0.43    2.74
  16  14  -3    2.07    1.12
  15  14  -3    0.28    1.00
  14  14  -3   -0.21    0.91
  13  14  -3    2.49    0.84
  12  14  -3   -0.31    0.76
  11  14  -3    0.02    0.70
  10  14  -3    1.07    0.65
   9  14  -3   13.74    1.13
   8  14  -3   -0.08    0.57
   7  14  -3    0.62    0.57
   6  14  -3    0.16    0.57
  -6 -14   3    0.26    1.32
   5  14  -3    0.05    0.59
  -5 -14   3    3.23    1.30
   4  14  -3    1.22    0.61
  -4 -14   3    2.08    1.27
   3  14  -3    6.71    1.06
  -3 -14   3    7.81    1.34
   2  14  -3    1.05    0.68
  -2 -14   3    0.97    1.31
  -1 -14   3    2.69    1.37
   0 -14   3    5.54    1.50
   1 -14   3   17.87    1.99
   2 -14   3    2.16    1.74
   3 -14   3   11.42    1.92
   4 -14   3    2.79    2.00
   5 -14   3    5.12    2.18
   6 -14   3    3.45    2.38
   7 -14   3    2.58    2.60
   8 -14   3   -1.86    2.77
  16  13  -3   -0.47    1.03
  15  13  -3    0.16    0.94
  14  13  -3   -0.84    0.85
  13  13  -3   -0.67    0.78
  12  13  -3    4.31    0.73
  11  13  -3    1.68    0.64
  10  13  -3    2.52    0.59
   9  13  -3    0.56    0.55
   8  13  -3    1.93    0.52
   7  13  -3    0.75    0.50
  -7 -13   3    1.98    1.25
   6  13  -3   -0.72    0.49
  -6 -13   3   -0.03    1.19
   5  13  -3    1.76    0.51
  -5 -13   3    3.01    1.14
   4  13  -3   -0.14    0.53
  -4 -13   3   -0.29    1.12
   3  13  -3    0.28    0.54
  -3 -13   3   -1.67    1.11
   2  13  -3    0.35    0.58
  -2 -13   3   -0.59    1.14
  -1 -13   3    0.88    1.16
   0 -13   3   15.01    1.61
   1 -13   3    0.13    1.33
   2 -13   3    1.53    1.47
   3 -13   3    3.91    1.61
   4 -13   3    5.75    1.71
   5 -13   3    2.61    1.82
   6 -13   3    3.11    2.05
   7 -13   3    3.02    2.23
  17  12  -3   -0.37    1.05
  16  12  -3    0.55    0.95
  15  12  -3    0.16    0.86
  14  12  -3    0.25    0.77
  13  12  -3   11.05    1.28
  12  12  -3    3.21    0.65
  11  12  -3    0.94    0.61
  10  12  -3    1.53    0.54
   9  12  -3    5.31    0.87
   8  12  -3    0.12    0.46
   7  12  -3    2.71    0.45
   6  12  -3    0.86    0.44
  -6 -12   3    2.24    1.05
   5  12  -3    0.23    0.43
  -5 -12   3    0.45    1.01
   4  12  -3    6.08    0.81
  -4 -12   3    8.08    1.08
   3  12  -3   29.27    1.36
  -3 -12   3   27.82    1.69
   2  12  -3    0.73    0.50
  -2 -12   3    0.30    1.01
   1  12  -3    1.72    0.54
  -1 -12   3    0.87    1.04
   0 -12   3   -0.40    1.07
   1 -12   3    2.59    1.14
   2 -12   3    0.14    1.24
   3 -12   3    9.32    1.67
   4 -12   3    8.99    1.75
   5 -12   3    5.19    1.60
   6 -12   3   17.08    2.12
  17  11  -3    0.14    0.96
  16  11  -3    0.62    0.87
  15  11  -3   -0.65    0.79
  14  11  -3    0.39    0.72
  13  11  -3   -0.24    0.66
  12  11  -3    7.55    1.07
  11  11  -3    0.68    0.53
  10  11  -3    1.50    0.50
   9  11  -3   10.42    0.91
   8  11  -3   12.11    0.89
   7  11  -3    5.72    0.73
   6  11  -3    0.41    0.38
   5  11  -3    7.78    0.76
  -5 -11   3    8.93    1.16
   4  11  -3   49.07    1.87
  -4 -11   3   48.52    2.18
   3  11  -3   40.83    1.65
  -3 -11   3   40.39    1.95
   2  11  -3    0.17    0.43
  -2 -11   3   -0.36    0.87
   1  11  -3    2.47    0.49
  -1 -11   3    0.90    0.90
   0 -11   3    0.69    0.93
   1 -11   3    3.26    0.99
   2 -11   3    0.51    1.06
   3 -11   3    8.44    1.44
   4 -11   3    2.90    1.29
   5 -11   3   19.43    1.79
   6 -11   3    2.72    1.53
   7 -11   3    2.41    1.68
  17  10  -3    1.28    0.99
  16  10  -3    1.37    0.90
  15  10  -3    0.70    0.80
  14  10  -3    0.76    0.72
  13  10  -3    3.37    0.66
  12  10  -3    0.47    0.54
  11  10  -3    1.01    0.50
  10  10  -3    1.89    0.48
   9  10  -3   10.24    0.83
   8  10  -3    1.89    0.39
   7  10  -3    0.42    0.38
   6  10  -3   29.74    1.31
  -6 -10   3   31.05    1.73
   5  10  -3    3.19    0.58
  -5 -10   3    4.14    0.97
   4  10  -3   23.73    1.13
  -4 -10   3   22.96    1.46
   3  10  -3    0.78    0.37
  -3 -10   3   -0.23    0.76
   2  10  -3    1.23    0.42
  -2 -10   3    1.27    0.77
   1  10  -3    1.90    0.48
  -1 -10   3    1.54    0.78
   0  10  -3    7.91    0.84
   0 -10   3    5.05    1.04
   1 -10   3    4.19    0.90
   2 -10   3    1.60    0.91
   3 -10   3   -0.28    1.00
   4 -10   3    6.58    1.17
   5 -10   3   23.13    1.68
   6 -10   3   58.89    2.66
  18   9  -3    0.14    1.01
  17   9  -3    0.04    0.92
  16   9  -3    5.46    0.79
  15   9  -3   -0.20    0.68
  14   9  -3    1.05    0.66
  13   9  -3    2.12    0.61
  12   9  -3    0.49    0.51
  11   9  -3    0.60    0.49
  10   9  -3   10.43    0.90
   9   9  -3    6.27    0.75
   8   9  -3   22.79    1.15
   7   9  -3  105.99    3.44
   6   9  -3    2.49    0.35
   5   9  -3    5.29    0.62
  -5  -9   3    5.67    0.87
   4   9  -3    0.85    0.30
  -4  -9   3    1.60    0.71
  -3  -9   3    0.84    0.72
   2   9  -3    0.95    0.33
  -2  -9   3    0.89    0.73
   1   9  -3   -0.14    0.35
  -1  -9   3    0.67    0.73
   0   9  -3    2.47    0.42
   0  -9   3    2.62    0.76
   1  -9   3   11.17    1.04
   2  -9   3   11.24    1.11
   3  -9   3   25.45    1.53
   4  -9   3    5.82    1.20
   5  -9   3   27.84    1.65
   6  -9   3    1.35    1.13
   7  -9   3    5.66    1.33
  11  -9   3   -1.38    1.12
  12  -9   3   -1.77    1.24
  13  -9   3    2.26    1.45
  18   8  -3    0.18    0.92
  17   8  -3    2.52    0.82
  16   8  -3    0.49    0.72
  15   8  -3    0.41    0.65
  14   8  -3    1.78    0.59
  13   8  -3    1.55    0.54
  12   8  -3    1.42    0.48
  11   8  -3    0.17    0.43
  10   8  -3    4.48    0.73
   9   8  -3    7.43    0.73
   8   8  -3   44.00    1.75
   7   8  -3    6.02    0.57
   6   8  -3    4.61    0.59
   5   8  -3    0.44    0.27
   4   8  -3    0.95    0.26
  -4  -8   3    1.90    0.67
   3   8  -3   27.31    1.14
  -3  -8   3   28.88    1.41
   2   8  -3    6.37    0.56
  -2  -8   3    5.06    0.82
   1   8  -3    3.77    0.53
  -1  -8   3    5.09    0.79
   0   8  -3    9.96    0.71
   0  -8   3    9.70    0.94
   1  -8   3   38.21    1.75
   2  -8   3   60.97    2.46
   3  -8   3    1.65    0.80
   4  -8   3    1.57    0.84
   5  -8   3    3.33    0.91
  13  -8   3   -1.55    1.31
  14  -8   3    1.25    1.47
  18   7  -3    2.00    0.87
  17   7  -3    0.30    0.76
  16   7  -3    1.07    0.71
  15   7  -3    0.95    0.65
  14   7  -3    0.60    0.57
  13   7  -3    1.61    0.53
  12   7  -3    2.36    0.50
  11   7  -3    5.17    0.76
  10   7  -3    0.55    0.37
   9   7  -3    1.34    0.33
   8   7  -3    8.13    0.64
   7   7  -3   78.82    2.69
   6   7  -3    2.70    0.48
   5   7  -3    0.90    0.25
   4   7  -3   10.72    0.63
   3   7  -3    5.42    0.48
  -3  -7   3    7.08    0.75
   2   7  -3   27.33    1.06
  -2  -7   3   25.61    1.29
   1   7  -3    0.80    0.24
  -1  -7   3    1.77    0.54
   0   7  -3   23.74    1.01
   0  -7   3   24.49    1.26
  -1   7  -3  116.67    3.46
   1  -7   3  113.24    3.96
   2  -7   3   31.73    1.53
   3  -7   3   12.57    1.05
   4  -7   3    0.39    0.77
   5  -7   3    4.74    0.98
  11  -7   3    4.41    0.90
  12  -7   3   -1.23    1.00
  13  -7   3    2.37    1.15
  14  -7   3   -1.18    1.35
  15  -7   3   -1.20    1.54
  18   6  -3   -0.63    0.86
  17   6  -3   -1.31    0.74
  16   6  -3    2.09    0.67
  15   6  -3    0.18    0.60
  14   6  -3    2.52    0.56
  11   6  -3   26.78    1.32
  10   6  -3   41.19    1.71
   9   6  -3    3.27    0.59
   8   6  -3   20.92    1.03
   7   6  -3   43.64    1.69
   6   6  -3    2.47    0.43
   5   6  -3    7.02    0.51
   4   6  -3    0.26    0.19
   3   6  -3   18.43    0.81
  -3  -6   3   20.06    1.04
   2   6  -3  223.66    6.19
  -2  -6   3  215.54    6.96
   1   6  -3   33.51    1.20
  -1  -6   3   34.26    1.47
   0   6  -3   12.49    0.61
   0  -6   3   11.71    0.84
  -1   6  -3   20.21    0.85
   1  -6   3   21.43    1.11
   2  -6   3   18.28    1.06
   3  -6   3   40.57    1.76
   4  -6   3    4.98    0.83
   7  -6   3    2.21    0.46
   8  -6   3    1.53    0.56
   9  -6   3   -0.84    0.59
  10  -6   3   27.76    1.38
  11  -6   3    0.29    0.78
  12  -6   3   -0.34    0.91
  13  -6   3   -1.23    1.03
  14  -6   3   -0.86    1.24
  15  -6   3   -1.52    1.40
  18   5  -3   -0.91    0.82
  18   5  -3   -0.82    1.29
  17   5  -3   -1.44    1.10
  16   5  -3   -0.09    1.00
  14   5  -3   -0.89    0.82
  12   5  -3   29.08    1.38
  11   5  -3   21.51    1.15
   6   5  -3   12.55    0.71
   5   5  -3    2.89    0.39
   4   5  -3    0.62    0.17
   3   5  -3  129.42    3.78
   2   5  -3   98.24    2.85
  -2  -5   3   93.62    3.23
   1   5  -3   28.45    1.02
  -1  -5   3   27.66    1.24
   0   5  -3    2.12    0.31
   0  -5   3    2.82    0.52
  -1   5  -3    2.15    0.32
   1  -5   3    1.29    0.19
   2  -5   3    3.97    0.62
   3  -5   3   -0.19    0.48
   4  -5   3    9.61    0.81
   5  -5   3   12.06    0.95
   6  -5   3    3.51    0.56
   7  -5   3   78.50    2.61
   8  -5   3   14.52    0.89
   9  -5   3   57.87    2.11
  10  -5   3    1.42    0.63
  11  -5   3    0.22    0.71
  12  -5   3    1.18    0.80
  13  -5   3   -0.73    0.95
  15  -5   3   -0.08    1.24
  16  -5   3    0.61    1.42
  18   4  -3    0.21    1.31
  17   4  -3    0.29    1.13
  16   4  -3   -0.24    1.01
  15   4  -3    3.54    0.93
  14   4  -3   12.09    1.31
  13   4  -3    5.50    1.06
  12   4  -3    1.87    0.62
  10   4  -3    3.38    0.55
   3   4  -3  105.38    3.10
   2   4  -3   95.47    3.26
   2   4  -3  102.78    2.91
  -2  -4   3  101.29    3.29
   1   4  -3    0.19    0.12
  -1  -4   3    0.19    0.12
  -1  -4   3    0.18    0.35
   0   4  -3   27.29    0.91
   0  -4   3   26.71    0.90
   0  -4   3   25.99    1.13
  -1   4  -3   27.53    0.92
   1  -4   3   27.43    0.92
   1  -4   3   27.34    1.18
   2  -4   3    2.62    0.30
   2  -4   3    2.47    0.50
   3  -4   3    1.12    0.47
   3  -4   3    0.52    0.19
   4  -4   3    1.90    0.48
   4  -4   3    1.81    0.34
   5  -4   3   24.54    0.98
   6  -4   3  203.39    5.99
   7  -4   3   21.92    1.04
   8  -4   3   11.24    0.78
   9  -4   3    9.75    0.81
  10  -4   3    5.54    0.84
  11  -4   3    2.83    0.68
  12  -4   3    2.44    0.77
  13  -4   3    1.48    0.86
  14  -4   3   -0.53    0.98
  15  -4   3    2.67    1.15
  16  -4   3   -0.61    1.32
  17   3  -3    0.09    1.19
  16   3  -3    3.69    1.10
  15   3  -3   12.26    1.50
  14   3  -3    1.86    0.85
  13   3  -3    2.66    0.71
  12   3  -3    0.05    0.61
  11   3  -3    7.67    0.90
  10   3  -3   12.03    0.88
   9   3  -3    1.24    0.46
   8   3  -3    9.89    0.70
   7   3  -3  128.06    3.92
   1   3  -3    4.61    0.28
   1   3  -3    3.89    0.42
  -1  -3   3    4.13    0.43
   0   3  -3    3.98    0.26
   0   3  -3    3.17    0.42
   0  -3   3    3.28    0.42
   0  -3   3    3.19    0.22
  -1   3  -3    1.67    0.35
  -1   3  -3    1.60    0.23
   1  -3   3    2.20    0.41
   1  -3   3    1.69    0.20
   2  -3   3    0.49    0.13
   2  -3   3    0.75    0.33
   3  -3   3   14.29    0.78
   3  -3   3   13.99    0.58
   4  -3   3   16.14    0.68
   4  -3   3   16.29    0.86
   5  -3   3   17.29    0.76
   6  -3   3   94.60    2.96
   7  -3   3   33.76    1.32
   8  -3   3    6.41    0.66
   9  -3   3   12.05    0.83
  10  -3   3    2.33    0.54
  11  -3   3   -0.19    0.60
  12  -3   3   34.77    1.62
  13  -3   3   -0.95    0.78
  14  -3   3    5.10    0.95
  15  -3   3    1.27    1.06
  16  -3   3   -0.60    1.22
  17  -3   3    0.11    1.39
  17   2  -3    0.77    1.26
  16   2  -3    1.66    1.15
  15   2  -3    8.18    1.49
  14   2  -3    4.77    0.93
  13   2  -3    0.42    0.72
  12   2  -3    0.38    0.67
  11   2  -3   18.48    1.13
  10   2  -3    2.82    0.51
   9   2  -3    3.82    0.54
   8   2  -3   18.44    0.94
   7   2  -3    3.13    0.56
   6   2  -3  240.32    6.98
   5   2  -3   67.13    2.12
   4   2  -3   19.76    0.78
   1   2  -3  129.07    4.05
  -1  -2   3  130.51    4.06
   0   2  -3   18.65    0.58
   0   2  -3   16.67    0.74
   0  -2   3   17.98    0.77
  -1   2  -3    2.50    0.33
   1  -2   3    2.29    0.32
  -2   2  -3  378.15   11.31
  -2   2  -3  359.88   10.45
   2  -2   3  375.06   11.32
   2  -2   3  378.37   10.46
  -3   2  -3  162.47    5.09
  -3   2  -3  160.60    4.67
   3  -2   3  163.70    4.68
   3  -2   3  162.95    5.10
   4  -2   3  100.04    3.00
   5  -2   3    9.41    0.51
   6  -2   3   16.67    0.77
   7  -2   3    0.37    0.33
   8  -2   3   26.15    1.15
   9  -2   3   22.04    1.05
  10  -2   3    0.23    0.47
  11  -2   3    3.31    0.60
  12  -2   3    5.34    0.77
  13  -2   3    2.63    0.73
  14  -2   3    0.94    0.83
  15  -2   3    7.48    1.07
  16  -2   3   -1.94    1.13
  17  -2   3    0.70    1.28
  17   1  -3    1.53    1.33
  16   1  -3   -1.14    1.19
  15   1  -3   -0.16    1.06
  14   1  -3    2.86    0.92
  13   1  -3    0.05    0.77
  12   1  -3    5.30    0.79
  11   1  -3    8.48    0.96
  10   1  -3   12.20    0.91
   9   1  -3    7.57    0.74
   8   1  -3    0.94    0.42
   7   1  -3  121.42    3.79
   6   1  -3   71.48    2.32
   5   1  -3   15.56    0.72
   4   1  -3    8.45    0.48
   3   1  -3   -0.06    0.17
  -1  -1   3    1.16    0.21
   0   1  -3    0.75    0.19
   0   1  -3    0.91    0.14
   0  -1   3    1.02    0.21
  -1   1  -3   59.65    1.73
  -1   1  -3   56.85    1.93
   1  -1   3   58.36    1.94
   1  -1   3   59.32    1.73
  -2   1  -3   43.39    1.49
  -2   1  -3   42.53    1.31
   2  -1   3   42.25    1.32
   2  -1   3   44.25    1.50
  -3   1  -3  243.81    7.52
  -3   1  -3  245.45    6.98
   3  -1   3  245.48    7.53
   3  -1   3  250.85    6.98
   4  -1   3   89.41    2.69
   5  -1   3   23.74    0.90
   6  -1   3    0.86    0.28
   7  -1   3   21.66    0.95
   8  -1   3    0.88    0.38
   9  -1   3    8.50    0.68
  10  -1   3    3.77    0.67
  11  -1   3   22.28    1.16
  12  -1   3   18.85    1.17
  13  -1   3    1.91    0.68
  14  -1   3    6.32    0.87
  15  -1   3   -0.77    0.91
  16  -1   3   -0.87    1.05
  17  -1   3   -0.85    1.20
  17   0  -3    0.30    1.42
  16   0  -3   -0.06    1.27
  15   0  -3   -1.29    1.13
  14   0  -3    0.19    0.96
  13   0  -3   -0.02    0.81
  12   0  -3    2.26    0.74
  11   0  -3    3.29    0.66
  10   0  -3   39.20    1.62
   9   0  -3   52.40    1.94
   8   0  -3   11.77    0.82
   7   0  -3    2.49    0.44
   6   0  -3    0.77    0.31
   5   0  -3   20.06    0.85
   4   0  -3   26.12    0.99
   3   0  -3   32.10    1.12
   0   0  -3   18.79    0.72
  -1   0  -3   67.34    2.22
  -1   0  -3   70.99    2.03
   1   0   3   67.17    2.22
   1   0   3   69.20    2.03
  -2   0  -3   61.86    1.91
   2   0   3   67.77    1.93
  -3   0  -3   11.05    0.46
   3   0   3   12.07    0.49
   4   0   3    7.07    0.39
   5   0   3   15.52    0.67
   6   0   3    1.60    0.27
   7   0   3    6.10    0.53
   8   0   3    1.13    0.37
   9   0   3   14.71    0.89
  10   0   3    9.93    0.78
  11   0   3   43.56    1.73
  12   0   3    3.63    0.63
  13   0   3   -0.71    0.62
  14   0   3    3.74    0.76
  15   0   3   -0.08    0.85
  16   0   3   -1.58    0.98
  17   0   3   -0.80    1.12
  16  -1  -3   -1.33    1.37
  15  -1  -3    0.95    1.21
  14  -1  -3   -0.57    1.04
  13  -1  -3    2.64    0.87
  12  -1  -3    1.82    0.78
  11  -1  -3   41.27    1.80
  10  -1  -3   22.45    1.19
   9  -1  -3    1.49    0.50
   8  -1  -3    6.26    0.69
   7  -1  -3    5.79    0.70
   6  -1  -3    0.85    0.33
   5  -1  -3   41.30    1.47
   4  -1  -3   25.53    1.00
   3  -1  -3    1.01    0.24
   2  -1  -3  272.47    7.75
   0  -1  -3   29.07    1.02
   0   1   3   27.10    1.01
  -1  -1  -3    3.04    0.19
  -1  -1  -3    3.06    0.27
   1   1   3    3.46    0.20
   1   1   3    3.15    0.27
   1   1   3    2.89    0.19
  -2  -1  -3    8.52    0.32
  -2  -1  -3    8.48    0.43
  -2  -1  -3    8.52    0.35
   2   1   3    8.53    0.36
   2   1   3    8.88    0.33
   2   1   3    8.25    0.44
   2   1   3    8.45    0.31
  -3  -1  -3   18.19    0.60
  -3  -1  -3   18.25    0.65
   3   1   3   19.50    0.61
   3   1   3   17.86    0.65
  -4  -1  -3    0.02    0.16
   4   1   3    0.28    0.16
   4   1   3    0.16    0.08
   5   1   3   18.99    0.74
   6   1   3    4.57    0.40
   7   1   3   13.27    0.67
   8   1   3  215.94    6.37
   9   1   3    0.15    0.39
  10   1   3   18.14    0.97
  11   1   3    3.12    0.55
  12   1   3    0.15    0.52
  13   1   3    0.86    0.61
  14   1   3    8.96    1.08
  15   1   3    3.69    0.84
  16   1   3    1.71    0.95
  17   1   3    3.77    1.10
  18   1   3   -2.02    1.21
  16  -2  -3   -1.65    1.47
  15  -2  -3    0.08    1.31
  14  -2  -3    6.57    1.17
  13  -2  -3    1.91    0.93
  12  -2  -3    6.70    1.25
  11  -2  -3    2.90    0.75
  10  -2  -3   42.29    1.77
   9  -2  -3    5.24    0.78
   8  -2  -3   19.76    1.03
   7  -2  -3    3.46    0.51
   6  -2  -3   22.37    1.02
   5  -2  -3   28.08    1.12
   4  -2  -3    0.23    0.26
   3  -2  -3   23.10    0.90
   2  -2  -3  315.81    8.98
   1  -2  -3  358.29   10.31
  -1   2   3  321.58   10.27
   0  -2  -3   37.87    1.31
   0   2   3   34.90    1.28
  -1  -2  -3   45.19    1.54
  -1  -2  -3   46.24    1.36
   1   2   3   43.03    1.52
  -2  -2  -3    1.59    0.18
  -2  -2  -3    2.05    0.26
  -2  -2  -3    2.00    0.20
   2   2   3    1.61    0.18
   2   2   3    1.66    0.27
   2   2   3    1.90    0.23
  -3  -2  -3   85.80    2.69
  -3  -2  -3   92.64    2.95
  -3  -2  -3   92.58    2.63
   3   2   3   96.25    2.64
   3   2   3   95.33    2.72
  -4  -2  -3   61.85    1.93
  -4  -2  -3   63.57    1.89
   4   2   3   64.16    1.89
   4   2   3   67.02    1.95
   5   2   3   30.08    1.02
   5   2   3   29.58    1.02
   6   2   3   22.74    0.89
   6   2   3   24.44    0.91
   7   2   3  136.29    4.09
   8   2   3   41.23    1.50
   9   2   3   21.45    1.00
  10   2   3    3.57    0.51
  11   2   3   40.57    1.61
  12   2   3    1.12    0.53
  13   2   3   -0.80    0.59
  14   2   3    4.91    0.77
  15   2   3    3.23    0.83
  16   2   3    3.15    0.92
  17   2   3    0.90    1.02
  18   2   3    0.28    0.74
  19   2   3   -0.70    1.25
  16  -3  -3   -0.53    1.57
  15  -3  -3   -0.66    1.40
  14  -3  -3    7.75    1.30
  13  -3  -3    4.66    1.07
  12  -3  -3   -1.25    0.85
  11  -3  -3   12.46    1.21
  10  -3  -3    5.62    1.00
   9  -3  -3    0.63    0.58
   8  -3  -3    3.34    0.52
   7  -3  -3    3.70    0.53
   6  -3  -3   56.59    2.02
   5  -3  -3   55.91    1.92
   4  -3  -3   89.12    2.81
   3  -3  -3    0.32    0.27
   2  -3  -3  134.26    3.97
   1  -3  -3   53.13    1.82
  -1   3   3   50.51    1.79
   0  -3  -3   24.49    0.98
   0   3   3   23.31    0.96
  -1  -3  -3   13.41    0.59
  -1  -3  -3   13.80    0.68
   1   3   3   13.18    0.66
  -2  -3  -3    9.45    0.54
  -2  -3  -3    8.70    0.44
   2   3   3    8.79    0.51
   2   3   3    9.25    0.51
  -3  -3  -3   25.96    0.91
  -3  -3  -3   26.73    1.02
   3   3   3   26.33    1.02
   3   3   3   26.94    0.93
  -4  -3  -3    1.10    0.16
   4   3   3    1.45    0.24
   5   3   3    2.01    0.27
   6   3   3    0.43    0.15
   6   3   3    0.26    0.20
   7   3   3   23.82    0.94
   7   3   3   23.04    0.94
   8   3   3  137.99    4.17
   8   3   3  142.49    4.24
   9   3   3    3.19    0.54
   9   3   3    2.28    0.34
  10   3   3    1.59    0.36
  11   3   3   31.74    1.37
  12   3   3   -0.22    0.52
  13   3   3   -1.07    0.59
  14   3   3    1.44    0.69
  15   3   3   -0.04    0.50
  15   3   3    0.05    0.78
  16   3   3    3.72    0.60
  17   3   3    4.45    0.71
  17   3   3    5.47    1.04
  18   3   3    0.09    0.76
  19   3   3   -1.34    1.17
  19   3   3    0.79    0.86
  15  -4  -3    0.64    1.53
  14  -4  -3   10.81    1.89
  13  -4  -3    5.92    1.20
  12  -4  -3    0.69    0.96
  11  -4  -3    0.61    0.86
  10  -4  -3   -0.08    0.76
   9  -4  -3    2.87    0.63
   8  -4  -3    0.68    0.55
   7  -4  -3    4.72    0.57
   6  -4  -3   28.00    1.30
   5  -4  -3  170.91    5.17
   4  -4  -3   49.82    1.73
   3  -4  -3   15.77    0.75
   2  -4  -3    8.73    0.63
   1  -4  -3    0.95    0.36
   0  -4  -3    1.74    0.37
  -1  -4  -3    5.73    0.49
  -2  -4  -3    1.08    0.32
   2   4   3    0.75    0.20
  -3  -4  -3   33.60    1.29
   3   4   3   35.26    1.20
   4   4   3   90.90    2.70
   5   4   3   21.03    0.83
   6   4   3   51.80    1.70
   7   4   3   72.02    2.30
   8   4   3    3.32    0.46
   8   4   3    4.10    0.46
   9   4   3    5.95    0.59
   9   4   3    5.03    0.55
  10   4   3    2.18    0.38
  11   4   3   15.57    0.95
  11   4   3   14.90    0.92
  12   4   3    0.07    0.53
  12   4   3    0.64    0.38
  13   4   3    5.05    0.81
  13   4   3    5.91    0.90
  14   4   3   14.84    1.08
  14   4   3   15.32    1.15
  15   4   3    6.34    0.85
  15   4   3    5.87    1.01
  16   4   3    3.45    0.89
  16   4   3    3.92    0.65
  17   4   3    0.94    0.65
  18   4   3   -1.33    1.04
  18   4   3    1.54    0.75
  19   4   3    0.56    0.87
  19   4   3    0.12    1.16
  15  -5  -3    1.49    1.66
  14  -5  -3   -1.54    1.46
  13  -5  -3    1.03    1.29
  12  -5  -3   -0.15    1.08
  10  -5  -3    1.10    0.84
   9  -5  -3    8.26    1.08
   8  -5  -3   21.32    1.20
   7  -5  -3    1.39    0.53
   6  -5  -3  112.51    3.63
   5  -5  -3   17.95    0.96
   4  -5  -3   12.22    0.73
   3  -5  -3    0.79    0.57
   3  -5  -3    0.13    0.32
   2  -5  -3    8.54    0.73
   1  -5  -3   45.29    1.75
   0  -5  -3    2.01    0.41
  -1  -5  -3   14.04    0.78
  -2  -5  -3   37.66    1.49
   2   5   3   40.30    1.39
  -3  -5  -3  351.86   10.89
   3   5   3  361.60    9.81
  -4  -5  -3   70.47    2.40
   4   5   3   70.29    2.20
   5   5   3   98.00    2.96
   6   5   3    3.21    0.38
   7   5   3    3.76    0.42
   8   5   3    1.52    0.28
   9   5   3    5.48    0.57
  10   5   3    6.11    0.67
  11   5   3    4.10    0.54
  11   5   3    2.99    0.38
  12   5   3   42.24    1.72
  13   5   3   10.77    0.89
  13   5   3    9.58    0.97
  14   5   3   -0.42    0.48
  14   5   3   -0.95    0.67
  15   5   3    0.48    0.54
  16   5   3   -1.23    0.83
  16   5   3   -0.33    0.61
  17   5   3    0.12    0.68
  17   5   3   -0.58    0.91
  18   5   3   -0.97    1.01
  18   5   3   -0.16    0.78
  19   5   3   -0.79    1.13
  19   5   3   -0.12    0.87
  14  -6  -3    0.15    1.63
  13  -6  -3   -0.79    1.44
  12  -6  -3    0.87    1.27
  11  -6  -3   -1.77    1.03
  10  -6  -3    0.85    0.95
   9  -6  -3   55.85    2.28
   8  -6  -3    6.48    0.99
   7  -6  -3    0.35    0.61
   6  -6  -3    0.47    0.53
   5  -6  -3   30.03    1.38
   4  -6  -3    5.27    0.64
   3  -6  -3    7.38    0.86
   2  -6  -3   21.08    1.14
   1  -6  -3    0.34    0.52
   0  -6  -3   95.52    3.28
  -1  -6  -3    0.55    0.47
  -2  -6  -3    5.88    0.61
   2   6   3    5.74    0.49
  -3  -6  -3  172.16    5.50
   3   6   3  171.85    4.97
  -4  -6  -3   90.42    3.06
   4   6   3   91.32    2.81
   5   6   3   12.94    0.66
   6   6   3    8.85    0.57
   7   6   3    0.33    0.24
   8   6   3   17.91    0.89
   9   6   3    4.34    0.57
  10   6   3   18.77    1.01
  11   6   3   27.56    1.27
  12   6   3   14.15    0.94
  13   6   3   20.97    1.19
  14   6   3    6.58    0.99
  14   6   3    5.75    0.96
  15   6   3    0.78    0.56
  16   6   3    0.46    0.62
  16   6   3    1.01    0.82
  17   6   3    2.04    0.91
  17   6   3    0.87    0.70
  18   6   3   -0.73    1.01
  18   6   3   -1.55    0.78
  19   6   3    0.70    1.11
  19   6   3    0.80    0.86
  14  -7  -3   -0.68    1.80
  13  -7  -3   -1.09    1.60
  12  -7  -3    2.04    1.42
  11  -7  -3    1.04    1.22
  10  -7  -3    8.63    1.48
   9  -7  -3    9.80    1.34
   8  -7  -3   32.42    1.62
   7  -7  -3    0.77    0.68
   3  -7  -3    8.41    0.97
   2  -7  -3   13.58    1.03
   1  -7  -3   51.41    2.08
   0  -7  -3   51.37    2.05
  -1  -7  -3  157.15    5.18
  -2  -7  -3    6.07    0.67
   2   7   3    4.36    0.51
  -3  -7  -3   11.22    0.79
   3   7   3   11.15    0.67
  -4  -7  -3    2.27    0.51
   4   7   3    2.92    0.44
  -5  -7  -3    0.99    0.51
   6   7   3    0.23    0.23
   7   7   3    4.77    0.50
   8   7   3    0.19    0.27
   9   7   3   26.40    1.23
  10   7   3    1.16    0.33
  11   7   3   -0.21    0.37
  12   7   3   22.84    1.23
  13   7   3    6.41    0.88
  14   7   3    5.85    0.99
  15   7   3    0.23    0.59
  16   7   3    2.30    0.67
  17   7   3    0.51    0.74
  17   7   3    0.09    0.91
  18   7   3    0.89    0.82
  18   7   3    0.86    1.02
  19   7   3    0.18    0.93
  13  -8  -3    1.44    1.72
  12  -8  -3    2.05    1.56
  11  -8  -3    0.72    1.39
   8  -8  -3   -0.65    0.94
   4  -8  -3    4.41    0.91
   3  -8  -3    8.11    1.19
   2  -8  -3    0.28    0.76
   1  -8  -3   70.44    2.70
   0  -8  -3  180.42    5.96
  -1  -8  -3   -0.06    0.60
  -2  -8  -3   -0.39    0.59
   2   8   3    0.33    0.32
  -3  -8  -3   11.14    0.88
   3   8   3   11.23    0.77
  -4  -8  -3    0.41    0.56
   4   8   3   -0.34    0.29
  -5  -8  -3    3.42    0.70
   5   8   3    3.81    0.50
  -6  -8  -3    0.60    0.58
   6   8   3    0.73    0.27
   7   8   3    8.66    0.67
   8   8   3   35.59    1.47
   9   8   3   28.60    1.26
  10   8   3   12.12    0.83
  11   8   3   -0.14    0.38
  12   8   3    0.17    0.43
  13   8   3   -0.26    0.50
  14   8   3    0.64    0.55
  15   8   3    0.24    0.61
  16   8   3    0.99    0.68
  17   8   3   -0.75    0.75
  18   8   3    1.63    0.84
  19   8   3   -0.43    0.94
  11  -9  -3    1.67    1.55
  10  -9  -3    2.76    1.37
   4  -9  -3   10.05    1.34
   3  -9  -3   90.79    3.41
   2  -9  -3   13.57    1.23
   1  -9  -3   47.70    2.05
   0  -9  -3    8.10    0.94
  -1  -9  -3    4.67    0.90
  -2  -9  -3    0.57    0.67
  -3  -9  -3    1.12    0.66
   3   9   3    0.70    0.37
  -4  -9  -3    8.49    0.87
   4   9   3    8.88    0.72
  -5  -9  -3   -0.01    0.64
   5   9   3    0.56    0.33
  -6  -9  -3    8.08    0.88
   6   9   3    8.84    0.71
   7   9   3    4.94    0.56
   8   9   3   42.44    1.67
   9   9   3  102.14    3.35
  10   9   3   -0.04    0.37
  11   9   3    0.77    0.42
  12   9   3   -0.59    0.47
  13   9   3    0.21    0.51
  14   9   3    1.14    0.58
  15   9   3   -0.01    0.64
  16   9   3   -0.31    0.72
  17   9   3   10.30    1.51
  18   9   3    0.56    0.88
  19   9   3    0.33    0.98
   5 -10  -3   18.28    1.77
   4 -10  -3   44.18    2.26
   3 -10  -3    5.12    1.11
   2 -10  -3    2.17    0.98
   1 -10  -3    6.97    1.18
   0 -10  -3   22.27    1.39
  -1 -10  -3   26.54    1.42
  -2 -10  -3    3.16    0.72
  -3 -10  -3    0.44    0.67
   3  10   3   -0.36    0.37
  -4 -10  -3   20.06    1.15
   4  10   3   18.44    0.99
  -5 -10  -3   19.21    1.24
   5  10   3   21.83    1.08
  -6 -10  -3   16.81    1.19
   6  10   3   16.06    0.92
  -7 -10  -3    3.97    0.85
   7  10   3    2.23    0.37
   8  10   3    7.75    0.69
   9  10   3   -0.50    0.36
  10  10   3    0.81    0.41
  11  10   3    0.02    0.44
  12  10   3    0.03    0.48
  13  10   3    3.94    0.60
  14  10   3    2.91    0.63
  15  10   3    2.15    0.70
  16  10   3    1.07    0.75
  17  10   3   -0.33    0.84
  18  10   3    1.68    0.94
  19  10   3   -1.26    1.03
   4 -11  -3   21.62    1.91
   3 -11  -3   10.80    1.62
   2 -11  -3    0.21    1.15
   1 -11  -3    0.87    1.01
   0 -11  -3   33.15    1.74
  -1 -11  -3    6.50    1.16
  -2 -11  -3    1.96    0.87
  -3 -11  -3    9.90    1.05
   3  11   3    7.85    0.78
  -4 -11  -3   17.74    1.17
   4  11   3   16.85    1.00
  -5 -11  -3   31.39    1.54
   5  11   3   31.65    1.39
  -6 -11  -3   15.65    1.08
   6  11   3   12.34    0.88
  -7 -11  -3    1.00    0.77
   7  11   3    0.23    0.39
  -8 -11  -3   14.49    1.15
   8  11   3   15.41    0.93
   9  11   3    0.76    0.41
  10  11   3    1.31    0.44
  11  11   3    2.93    0.50
  12  11   3   -0.09    0.53
  13  11   3   12.97    1.17
  14  11   3    2.13    0.66
  15  11   3   -0.24    0.73
  16  11   3    0.33    0.82
  17  11   3    3.80    0.93
  18  11   3    0.14    1.03
   5 -12  -3   14.04    2.17
   4 -12  -3   20.82    2.13
   3 -12  -3    3.56    1.54
   2 -12  -3   -1.28    1.40
   1 -12  -3    2.62    1.24
   0 -12  -3    1.84    1.13
  -1 -12  -3    1.36    1.01
  -2 -12  -3    2.70    0.93
  -3 -12  -3    3.11    1.00
  -4 -12  -3   46.05    2.14
   4  12   3   47.09    1.88
  -5 -12  -3   37.69    1.87
   5  12   3   36.47    1.61
   6  12   3    2.75    0.47
  -7 -12  -3    0.02    0.92
   7  12   3   -0.07    0.44
  -8 -12  -3    3.60    0.96
   8  12   3    2.28    0.47
   9  12   3   -0.26    0.45
  10  12   3    0.07    0.47
  11  12   3    0.32    0.51
  12  12   3    2.00    0.57
  13  12   3    2.36    0.64
  14  12   3    8.73    1.28
  15  12   3    1.10    0.79
  16  12   3    2.95    0.88
  17  12   3    0.54    0.97
  18  12   3    1.13    1.08
   6 -13  -3    2.71    2.34
   5 -13  -3    5.51    2.08
   4 -13  -3    7.17    1.94
   3 -13  -3    0.54    1.76
   2 -13  -3    4.28    1.66
   1 -13  -3    5.86    1.56
   0 -13  -3   -0.24    1.35
  -1 -13  -3   29.76    1.91
  -2 -13  -3    7.62    1.40
  -3 -13  -3    1.63    1.06
  -4 -13  -3    3.11    1.05
   4  13   3    1.91    0.55
  -5 -13  -3    2.32    1.03
   5  13   3    0.96    0.53
  -6 -13  -3    5.22    1.03
   6  13   3    2.87    0.52
  -7 -13  -3    1.01    1.02
   7  13   3   -0.71    0.48
  -8 -13  -3    3.56    1.05
   9  13   3   -0.40    0.51
  10  13   3    0.58    0.53
  11  13   3    0.72    0.56
  12  13   3    0.12    0.61
  13  13   3   15.49    1.32
  14  13   3    0.01    0.73
  15  13   3    1.15    0.83
  16  13   3   -0.24    0.93
  17  13   3   -0.96    1.04
  18  13   3   -1.35    1.14
   5 -14  -3    1.32    2.44
   4 -14  -3    2.94    2.16
   3 -14  -3    5.10    2.06
   2 -14  -3    0.96    1.90
   1 -14  -3    5.10    1.77
   0 -14  -3   51.37    2.74
  -1 -14  -3   15.29    1.87
  -2 -14  -3    6.76    1.41
  -3 -14  -3    2.28    1.29
  -4 -14  -3    1.23    1.22
  -5 -14  -3    1.12    1.21
   5  14   3    0.48    0.61
  -6 -14  -3    0.40    1.20
   6  14   3   -0.08    0.59
  -7 -14  -3    4.15    1.22
   7  14   3    2.10    0.55
  -8 -14  -3    1.95    1.23
   8  14   3    0.04    0.55
  -9 -14  -3    4.22    1.31
  10  14   3    2.62    0.60
  11  14   3    2.81    0.63
  12  14   3    0.27    0.66
  13  14   3   -0.77    0.71
  14  14   3    0.39    0.79
  15  14   3   -0.84    0.87
  16  14   3    0.38    0.97
  17  14   3    0.07    1.08
   5 -15  -3    0.21    2.84
   4 -15  -3    2.61    2.53
   3 -15  -3    5.44    2.33
   2 -15  -3   10.10    2.21
   1 -15  -3    8.76    2.04
   0 -15  -3   -0.32    1.87
  -1 -15  -3   10.89    2.08
  -2 -15  -3   10.65    1.69
  -3 -15  -3    8.38    1.60
  -4 -15  -3   -1.01    1.48
  -5 -15  -3    7.98    1.50
   5  15   3    6.34    1.17
  -6 -15  -3   -0.37    1.42
   6  15   3    0.45    0.66
  -7 -15  -3    0.23    1.42
   7  15   3    0.55    0.64
  -8 -15  -3    3.27    1.46
   8  15   3    1.33    0.62
  -9 -15  -3    6.20    1.49
   9  15   3    3.09    0.66
  10  15   3   10.77    1.17
  11  15   3    1.09    0.68
  12  15   3   -0.08    0.73
  13  15   3   -0.03    0.79
  14  15   3    0.23    0.85
  15  15   3   -0.02    0.91
  16  15   3    2.20    1.05
  17  15   3   -0.54    1.14
   5 -16  -3    8.16    3.17
   4 -16  -3    4.87    2.92
   3 -16  -3    9.93    2.73
   2 -16  -3    7.07    2.50
   1 -16  -3    6.59    2.37
   0 -16  -3   13.48    2.59
  -1 -16  -3    0.22    2.03
  -2 -16  -3    9.40    1.95
  -3 -16  -3    6.34    1.83
  -4 -16  -3    2.68    1.74
  -5 -16  -3    4.46    1.69
  -6 -16  -3    1.77    1.64
   6  16   3   -0.12    0.77
  -7 -16  -3    3.32    1.62
   7  16   3    2.18    0.74
  -8 -16  -3    1.32    1.64
   8  16   3    1.54    0.71
  -9 -16  -3    7.47    1.67
   9  16   3    3.74    0.72
  10  16   3   -0.01    0.72
  11  16   3   -0.64    0.75
  12  16   3   -0.82    0.79
  13  16   3    0.38    0.85
  14  16   3   -0.51    0.92
  15  16   3   -1.28    1.00
  16  16   3    0.07    1.09
   3 -17  -3   12.26    3.17
   2 -17  -3    9.95    2.98
   1 -17  -3    3.41    2.69
   0 -17  -3    4.63    2.48
  -1 -17  -3    2.62    2.40
  -2 -17  -3    1.43    2.26
  -3 -17  -3    1.46    2.09
  -4 -17  -3    0.97    1.99
  -5 -17  -3    3.73    1.96
  -6 -17  -3   11.92    2.19
  -7 -17  -3    2.34    1.87
   7  17   3    2.51    0.86
  -8 -17  -3    0.55    1.86
   8  17   3    1.95    0.83
  -9 -17  -3   -1.25    1.88
   9  17   3    0.14    0.79
 -10 -17  -3    2.06    2.00
  11  17   3    0.91    0.84
  12  17   3   -0.99    0.86
  13  17   3   -0.35    0.92
  14  17   3    0.32    1.00
  15  17   3   -1.18    1.10
   1 -18  -3    2.85    3.27
   0 -18  -3    4.04    2.96
  -1 -18  -3    2.10    2.65
  -2 -18  -3    2.50    2.50
  -3 -18  -3    7.74    2.48
  -4 -18  -3    4.75    2.41
  -5 -18  -3   13.22    2.69
  -6 -18  -3    3.16    2.27
  -7 -18  -3    4.81    2.20
   7  18   3    2.32    1.01
  -8 -18  -3    5.91    2.21
  -9 -18  -3    4.86    2.16
   9  18   3    0.00    0.94
 -10 -18  -3    3.47    2.19
  11  18   3   -0.70    0.91
  12  18   3   -0.45    0.97
  13  18   3    0.34    1.02
  -2 -19  -3    9.56    3.06
  -3 -19  -3   -0.29    2.84
  -4 -19  -3    2.41    2.65
  -5 -19  -3    2.22    2.50
  -6 -19  -3    7.11    2.48
  -7 -19  -3    2.71    2.43
  -8 -19  -3    1.88    2.37
   8  19   3    0.70    1.11
  -9 -19  -3   -0.63    2.44
   9  19   3    1.72    1.08
 -10 -19  -3    1.47    2.49
  10  19   3    0.18    1.06
  11  19   3   -0.47    1.03
   9  19  -4   -0.88    1.13
   8  19  -4   -0.58    1.09
  -8 -19   4    1.97    2.69
   7  19  -4    0.19    1.10
  -7 -19   4   -1.35    2.49
   6  19  -4    1.01    1.15
  -6 -19   4   -0.82    2.49
   5  19  -4    2.00    1.23
  -5 -19   4    4.00    2.56
  -4 -19   4    3.31    2.71
  -3 -19   4    2.97    2.84
  -2 -19   4    0.27    2.96
  -1 -19   4   -3.17    3.21
  11  18  -4   -0.94    1.08
  10  18  -4    0.26    1.03
   9  18  -4   -0.57    0.99
   8  18  -4   -0.58    1.01
   7  18  -4   -0.30    0.96
  -7 -18   4    0.43    2.20
  -6 -18   4    4.27    2.22
   5  18  -4    1.72    1.03
  -5 -18   4    4.20    2.30
  -4 -18   4    5.82    2.30
  -3 -18   4    5.27    2.38
  -2 -18   4    6.27    2.59
  -1 -18   4    2.11    2.60
   0 -18   4    1.49    2.74
   1 -18   4   -0.69    3.04
   2 -18   4    0.64    3.24
  13  17  -4    0.00    1.10
  12  17  -4   -1.63    1.01
  11  17  -4    0.34    0.95
  10  17  -4   -0.44    0.91
   9  17  -4   -1.38    0.89
   8  17  -4    0.20    0.85
   7  17  -4   -0.21    0.88
  -7 -17   4    1.94    1.95
   6  17  -4    2.99    0.89
  -6 -17   4    6.80    1.96
   5  17  -4    0.23    0.90
  -5 -17   4    4.80    1.95
   4  17  -4    2.57    0.94
  -4 -17   4    1.16    2.00
  -3 -17   4    2.14    2.05
  -2 -17   4    5.46    2.14
  -1 -17   4    6.12    2.24
   0 -17   4    4.55    2.39
   1 -17   4    4.79    2.64
   2 -17   4    1.14    2.85
   3 -17   4   -4.42    2.98
   4 -17   4   -1.41    3.21
  14  16  -4    1.07    1.11
  13  16  -4   -0.14    1.01
  12  16  -4   -0.12    0.93
  11  16  -4    0.85    0.87
  10  16  -4   -1.33    0.80
   9  16  -4   -0.37    0.78
   8  16  -4   -0.32    0.76
   7  16  -4    4.15    0.77
   6  16  -4    0.08    0.78
  -6 -16   4    3.72    1.74
   5  16  -4    0.50    0.77
  -5 -16   4    2.19    1.75
   4  16  -4    0.37    0.82
  -4 -16   4    1.53    1.78
  -3 -16   4    4.59    1.79
  -2 -16   4    3.41    1.87
  -1 -16   4    3.24    1.95
   0 -16   4    4.71    2.03
   1 -16   4    5.77    2.15
   2 -16   4    4.87    2.40
   3 -16   4    2.65    2.57
   4 -16   4   -3.67    2.74
   5 -16   4    3.20    2.91
   6 -16   4    1.62    3.12
  15  15  -4    0.53    1.14
  14  15  -4    0.03    1.03
  13  15  -4   -0.75    0.94
  12  15  -4    0.62    0.86
  11  15  -4    2.47    0.80
  10  15  -4    2.13    0.74
   9  15  -4   -0.40    0.70
   8  15  -4    1.58    0.69
   7  15  -4   -0.54    0.67
  -7 -15   4    2.02    1.56
   6  15  -4    4.32    0.69
   5  15  -4   -0.75    0.69
  -5 -15   4    2.17    1.50
  -4 -15   4    2.71    1.53
   3  15  -4    0.30    0.75
  -3 -15   4    4.00    1.56
   2  15  -4    0.50    0.78
  -2 -15   4    3.25    1.60
  -1 -15   4    2.18    1.67
   0 -15   4    4.39    1.76
   1 -15   4    6.13    1.89
   2 -15   4   17.25    2.36
   3 -15   4    5.88    2.21
   4 -15   4   -1.57    2.37
   5 -15   4    0.92    2.55
   6 -15   4    9.07    2.75
   7 -15   4   -1.38    2.95
  15  14  -4    0.24    1.06
  14  14  -4   -0.26    0.95
  13  14  -4    0.26    0.87
  12  14  -4    0.20    0.79
  11  14  -4    9.88    1.30
  10  14  -4    0.92    0.68
   9  14  -4   -0.27    0.62
   8  14  -4    1.00    0.60
   7  14  -4    2.60    0.60
   6  14  -4   -0.59    0.59
  -6 -14   4    1.49    1.39
   5  14  -4    7.16    1.00
  -5 -14   4    7.81    1.63
   4  14  -4   -0.62    0.61
  -4 -14   4    1.70    1.36
   3  14  -4    1.92    0.65
  -3 -14   4    3.92    1.37
   2  14  -4    1.06    0.67
  -2 -14   4    0.78    1.39
  -1 -14   4    3.38    1.43
   0 -14   4    0.76    1.49
   1 -14   4    3.37    1.55
   2 -14   4    5.69    1.73
   3 -14   4   10.53    2.20
   4 -14   4    3.66    2.05
   5 -14   4   -0.14    2.23
   6 -14   4    2.94    2.40
   7 -14   4    2.61    2.52
   8 -14   4    3.73    2.73
  16  13  -4   -0.30    1.04
  15  13  -4    0.53    0.96
  14  13  -4   -0.89    0.88
  13  13  -4   -0.50    0.81
  12  13  -4    0.06    0.75
  11  13  -4    0.97    0.68
  10  13  -4   12.14    1.15
   9  13  -4    1.73    0.58
   8  13  -4    9.73    0.99
   7  13  -4    2.43    0.52
  -6 -13   4    3.44    1.24
  -5 -13   4    3.82    1.23
   4  13  -4    0.45    0.52
  -4 -13   4    1.02    1.20
   3  13  -4    0.46    0.55
  -3 -13   4   -0.05    1.19
   2  13  -4   11.91    1.10
  -2 -13   4   13.03    1.57
   1  13  -4   14.25    1.10
  -1 -13   4   17.69    1.65
   0 -13   4    2.85    1.29
   1 -13   4    8.85    1.65
   2 -13   4    4.28    1.47
   3 -13   4    3.35    1.55
   4 -13   4    3.89    1.75
   5 -13   4    3.18    1.93
   6 -13   4    2.13    2.07
   7 -13   4    3.39    2.20
  15  12  -4   -0.10    0.90
  14  12  -4   -0.32    0.81
  13  12  -4    1.30    0.73
  12  12  -4    0.51    0.67
  11  12  -4    3.44    0.63
  10  12  -4    0.44    0.57
   9  12  -4    0.55    0.51
   8  12  -4    4.72    0.83
   7  12  -4    1.95    0.46
  -6 -12   4    3.13    1.12
   5  12  -4    0.32    0.45
  -5 -12   4    0.38    1.09
   4  12  -4   -0.09    0.46
  -4 -12   4    1.10    1.06
  -3 -12   4    1.65    1.06
   2  12  -4   33.87    1.45
  -2 -12   4   30.51    1.87
   1  12  -4   11.11    0.97
  -1 -12   4   10.84    1.39
   0 -12   4    1.01    1.11
   1 -12   4    1.20    1.17
   2 -12   4    0.95    1.22
   3 -12   4    3.27    1.35
   4 -12   4   13.26    1.80
   5 -12   4    7.77    1.68
   6 -12   4    1.29    1.78
   7 -12   4    3.04    1.93
  17  11  -4   -1.18    0.99
  16  11  -4    1.55    0.90
  15  11  -4    0.38    0.82
  14  11  -4    3.04    0.76
  13  11  -4    0.67    0.68
  12  11  -4    0.49    0.62
  11  11  -4   -0.24    0.57
  10  11  -4    0.16    0.50
   9  11  -4   -0.21    0.47
   8  11  -4    6.63    0.82
   7  11  -4    6.13    0.77
   6  11  -4    8.49    0.76
   5  11  -4   13.69    0.87
  -5 -11   4   15.93    1.34
   4  11  -4    2.41    0.42
  -4 -11   4    3.83    0.96
   3  11  -4   -0.56    0.41
  -3 -11   4    0.36    0.93
   2  11  -4    2.92    0.51
  -2 -11   4    3.46    0.97
   1  11  -4   28.19    1.31
  -1 -11   4   26.26    1.63
   0  11  -4    0.30    0.49
   0 -11   4    0.05    0.96
   1 -11   4    0.28    1.01
   2 -11   4    0.41    1.08
   3 -11   4    9.46    1.43
   4 -11   4    3.53    1.27
   5 -11   4   12.09    1.70
   6 -11   4   14.19    1.88
  17  10  -4    2.27    1.02
  16  10  -4    0.56    0.91
  15  10  -4    3.05    0.84
  14  10  -4    1.72    0.75
  13  10  -4    0.55    0.67
  12  10  -4    1.28    0.61
  11  10  -4    1.59    0.52
  10  10  -4    0.39    0.47
   9  10  -4    2.89    0.47
   8  10  -4   11.59    0.86
   7  10  -4    9.52    0.79
   6  10  -4   21.75    1.09
   5  10  -4   12.33    0.82
  -5 -10   4   12.32    1.27
   4  10  -4   26.79    1.19
  -4 -10   4   27.03    1.58
   3  10  -4    1.06    0.39
  -3 -10   4    0.55    0.83
   2  10  -4   16.98    1.01
  -2 -10   4   14.38    1.24
   1  10  -4   13.22    0.96
  -1 -10   4   10.98    1.15
   0  10  -4   -0.23    0.45
   0 -10   4    0.41    0.83
   1 -10   4    1.84    0.89
   2 -10   4    4.65    0.98
   3 -10   4   11.95    1.30
   4 -10   4   26.10    1.66
   5 -10   4    1.35    1.23
   6 -10   4   -0.38    1.33
  17   9  -4   -0.23    0.86
  16   9  -4    0.30    0.78
  15   9  -4    0.88    0.72
  14   9  -4    2.31    0.65
  13   9  -4    0.77    0.58
  12   9  -4   10.38    1.00
  11   9  -4    3.36    0.51
  10   9  -4    0.20    0.45
   9   9  -4   28.50    1.36
   8   9  -4    0.21    0.36
   7   9  -4    1.31    0.37
   6   9  -4   12.48    0.79
   5   9  -4   64.58    2.27
   4   9  -4    0.39    0.30
  -4  -9   4    0.92    0.76
   3   9  -4    1.50    0.31
  -3  -9   4    1.38    0.80
   2   9  -4    3.52    0.60
  -2  -9   4    4.12    0.82
   1   9  -4    8.16    0.72
  -1  -9   4    7.83    1.04
   0   9  -4    4.10    0.66
   0  -9   4    3.37    0.76
   1  -9   4   13.47    1.12
   2  -9   4    8.54    1.10
   3  -9   4   19.06    1.32
   4  -9   4   17.26    1.34
   5  -9   4    4.72    1.11
   6  -9   4   11.39    1.45
  17   8  -4    0.60    0.82
  16   8  -4   -0.06    0.74
  15   8  -4    0.69    0.66
  14   8  -4    0.84    0.60
  13   8  -4    7.03    1.00
  12   8  -4    1.71    0.50
  11   8  -4    1.46    0.45
  10   8  -4    9.26    0.86
   9   8  -4    1.55    0.40
   8   8  -4   97.14    3.25
   7   8  -4    3.04    0.56
   6   8  -4   61.61    2.19
   5   8  -4   -0.05    0.26
   4   8  -4    3.21    0.50
  -4  -8   4    3.88    0.78
   3   8  -4    0.11    0.26
  -3  -8   4   -0.24    0.67
   2   8  -4   10.85    0.68
  -2  -8   4   10.85    1.01
   1   8  -4    0.25    0.30
  -1  -8   4    0.50    0.67
   0   8  -4   17.52    0.88
   0  -8   4   17.68    1.20
  -1   8  -4    8.51    0.68
   1  -8   4    8.69    1.02
   2  -8   4   13.13    1.12
   3  -8   4   41.56    1.91
   4  -8   4   41.17    1.89
   5  -8   4    0.17    0.94
   6  -8   4    1.01    1.03
  12  -8   4    9.83    1.50
  17   7  -4    0.97    0.81
  16   7  -4    0.09    0.73
  15   7  -4   -0.25    0.65
  14   7  -4   -0.08    0.58
  13   7  -4    0.93    0.52
  12   7  -4    0.16    0.48
  11   7  -4    0.07    0.43
  10   7  -4   18.18    1.08
   9   7  -4   93.36    3.18
   8   7  -4    0.56    0.31
   7   7  -4    0.73    0.29
   6   7  -4   20.56    1.01
   5   7  -4    0.65    0.25
   4   7  -4    5.98    0.53
   3   7  -4    0.62    0.24
  -3  -7   4    1.48    0.62
   2   7  -4   29.86    1.14
  -2  -7   4   27.84    1.40
   1   7  -4   31.76    1.21
  -1  -7   4   32.40    1.50
   0   7  -4   72.84    2.31
   0  -7   4   71.66    2.71
  -1   7  -4    1.30    0.30
   2  -7   4    3.34    0.67
   3  -7   4    5.50    0.93
   4  -7   4    0.49    0.77
   5  -7   4    0.95    0.83
   6  -7   4    2.76    0.94
   9  -7   4   13.17    1.00
  10  -7   4    2.60    0.75
  11  -7   4    7.59    1.16
  14  -7   4    0.71    1.25
  15  -7   4   -2.69    1.43
  17   6  -4    0.25    0.78
  16   6  -4   -0.04    0.68
   8   6  -4   16.17    0.90
   7   6  -4    1.09    0.30
   6   6  -4   -0.04    0.25
   5   6  -4    7.82    0.56
   4   6  -4    0.42    0.21
   3   6  -4   18.15    0.81
  -3  -6   4   18.26    1.05
   2   6  -4   71.25    2.21
  -2  -6   4   67.94    2.55
   1   6  -4   48.37    1.58
  -1  -6   4   47.05    1.92
   0   6  -4  113.08    3.32
   0  -6   4  112.41    3.86
  -1   6  -4   75.22    2.33
   1  -6   4   76.01    2.78
   2  -6   4   22.52    1.20
   3  -6   4    4.33    0.78
   4  -6   4   -0.36    0.64
   5  -6   4    0.61    0.74
   7  -6   4    6.98    0.67
   8  -6   4   31.56    1.34
   9  -6   4    7.56    0.88
  10  -6   4   -1.09    0.66
  11  -6   4    0.07    0.77
  12  -6   4    4.45    0.91
  13  -6   4    0.44    0.99
  14  -6   4   -0.11    1.15
  15  -6   4   -0.57    1.33
  17   5  -4    0.19    1.18
  16   5  -4   -0.63    1.06
  14   5  -4    3.56    0.89
  13   5  -4   18.02    1.33
   5   5  -4    6.34    0.50
   4   5  -4   35.82    1.32
   3   5  -4   45.46    1.55
   2   5  -4    6.97    0.43
  -2  -5   4    6.80    0.70
   1   5  -4  112.42    3.22
  -1  -5   4  108.00    3.71
   0   5  -4   72.97    2.24
   0  -5   4   75.02    2.26
   0  -5   4   76.86    2.69
  -1   5  -4   19.59    0.74
   1  -5   4   18.17    1.00
   1  -5   4   19.43    0.74
   2  -5   4    3.47    0.64
   2  -5   4    2.70    0.36
   3  -5   4    4.13    0.42
   3  -5   4    4.63    0.68
   4  -5   4    0.91    0.60
   5  -5   4    9.18    0.92
   6  -5   4    7.98    0.62
   7  -5   4   28.07    1.22
   8  -5   4    1.33    0.46
   9  -5   4   57.51    2.09
  10  -5   4    1.82    0.61
  11  -5   4    5.45    0.76
  12  -5   4   -0.95    0.80
  13  -5   4   -0.89    0.93
  14  -5   4    2.58    1.07
  16  -5   4    0.93    1.37
  17   4  -4   -0.65    1.23
  16   4  -4   -0.23    1.10
  15   4  -4    0.30    1.01
  14   4  -4    7.11    1.32
  13   4  -4    6.58    1.12
  12   4  -4   19.24    1.28
   9   4  -4   19.31    1.03
   3   4  -4  124.27    3.62
   2   4  -4    0.58    0.14
  -2  -4   4    0.34    0.39
   1   4  -4    6.59    0.37
  -1  -4   4    6.50    0.61
   0   4  -4    3.21    0.28
   0  -4   4    3.21    0.52
   0  -4   4    3.14    0.27
  -1   4  -4    0.27    0.14
   1  -4   4    0.01    0.12
   1  -4   4    0.33    0.42
   2  -4   4    7.59    0.40
   2  -4   4    8.79    0.68
   3  -4   4   22.78    1.11
   4  -4   4   55.86    2.09
   4  -4   4   53.86    1.76
   5  -4   4   23.28    1.18
   5  -4   4   23.78    0.94
   6  -4   4    6.97    0.57
   7  -4   4    3.56    0.56
   8  -4   4   91.70    2.97
   9  -4   4    2.08    0.48
  10  -4   4    0.42    0.55
  11  -4   4    5.73    0.94
  12  -4   4   -1.31    0.73
  13  -4   4    3.58    0.87
  14  -4   4   -1.36    0.96
  15  -4   4   -0.51    1.12
  17   3  -4   -0.76    1.28
  16   3  -4    3.47    1.20
  15   3  -4    1.13    1.03
  14   3  -4    4.15    0.88
  13   3  -4   12.70    1.31
  12   3  -4    0.27    0.69
  11   3  -4    8.40    0.95
  10   3  -4    1.57    0.52
   9   3  -4    0.36    0.45
   8   3  -4    3.37    0.64
   6   3  -4   19.63    0.86
   1   3  -4    1.67    0.36
   1   3  -4    1.21    0.20
  -1  -3   4    1.63    0.35
   0   3  -4   20.06    0.67
   0  -3   4   18.29    0.89
   1  -3   4   19.95    0.65
   1  -3   4   20.03    0.93
   2  -3   4    1.85    0.39
   3  -3   4    3.74    0.50
   4  -3   4   89.83    3.03
   4  -3   4   87.92    2.69
   5  -3   4  138.17    4.11
   6  -3   4   40.18    1.44
   7  -3   4   21.93    0.98
   8  -3   4    1.95    0.41
   9  -3   4    0.10    0.42
  10  -3   4    0.50    0.50
  11  -3   4   -0.02    0.58
  12  -3   4    0.33    0.67
  13  -3   4   -0.53    0.78
  14  -3   4   18.56    1.44
  15  -3   4    0.38    1.03
  16  -3   4    5.50    1.23
  17  -3   4   -1.95    1.34
  17   2  -4    0.60    1.36
  16   2  -4   -0.77    1.24
  15   2  -4    0.98    1.08
  14   2  -4    4.02    0.93
  13   2  -4    0.06    0.83
  12   2  -4    0.90    0.73
  11   2  -4    2.18    0.60
  10   2  -4   -0.55    0.52
   9   2  -4   -0.02    0.45
   8   2  -4   64.93    2.29
   7   2  -4   45.69    1.66
   6   2  -4   60.23    2.00
   5   2  -4   30.97    1.16
   1   2  -4   26.83    1.07
  -1  -2   4   27.77    1.08
   0   2  -4  132.17    4.21
   0  -2   4  133.77    4.22
  -1   2  -4  182.45    5.91
   1  -2   4  198.02    5.96
  -2   2  -4   13.23    0.69
   2  -2   4   13.65    0.72
   3  -2   4    1.39    0.24
   3  -2   4    1.25    0.33
   4  -2   4   72.12    2.22
   4  -2   4   72.56    2.49
   5  -2   4   36.23    1.26
   6  -2   4    4.85    0.45
   7  -2   4   10.73    0.65
   8  -2   4   10.46    0.70
   9  -2   4   -0.26    0.39
  10  -2   4    0.19    0.46
  11  -2   4    0.87    0.53
  12  -2   4    0.60    0.62
  13  -2   4   36.67    1.71
  14  -2   4   -0.58    0.84
  15  -2   4    0.65    0.96
  17  -2   4   -0.20    1.26
  17   1  -4    2.42    1.46
  16   1  -4    3.28    1.31
  15   1  -4    1.44    1.14
  14   1  -4   -0.34    0.96
  13   1  -4    2.17    0.86
  12   1  -4    0.03    0.75
  11   1  -4    1.37    0.61
  10   1  -4    0.43    0.53
   9   1  -4   50.61    1.91
   8   1  -4   25.45    1.18
   7   1  -4   47.60    1.72
   6   1  -4   33.56    1.28
   5   1  -4    5.79    0.48
   4   1  -4    0.23    0.23
   3   1  -4   64.35    2.02
  -1  -1   4   45.44    1.57
   0   1  -4  532.05   15.64
   0   1  -4  512.39   14.52
   0  -1   4  514.79   15.63
  -1   1  -4  213.17    5.82
  -1   1  -4  197.19    6.32
   1  -1   4  208.59    5.82
   1  -1   4  200.70    6.32
  -2   1  -4  106.53    3.42
  -2   1  -4  102.63    3.09
   2  -1   4  109.99    3.11
   2  -1   4  106.93    3.43
  -3   1  -4    9.39    0.56
  -3   1  -4    9.03    0.41
   3  -1   4    8.94    0.43
   3  -1   4    8.69    0.55
   4  -1   4   35.34    1.19
   5  -1   4   14.05    0.62
   6  -1   4    4.09    0.42
   7  -1   4    5.04    0.49
   8  -1   4    0.72    0.36
   9  -1   4    2.75    0.43
  10  -1   4   35.53    1.46
  11  -1   4    1.22    0.51
  12  -1   4    0.88    0.60
  13  -1   4   -0.07    0.67
  14  -1   4   19.72    1.35
  15  -1   4   -0.99    0.90
  16  -1   4   -1.04    1.03
  17  -1   4   -0.46    1.16
  18  -1   4   -0.84    1.29
  16   0  -4   -0.99    1.39
  15   0  -4    0.36    1.20
  14   0  -4    0.23    1.02
  13   0  -4   -0.28    0.90
  12   0  -4    0.60    0.78
  11   0  -4    6.34    0.97
  10   0  -4    2.30    0.58
   9   0  -4   16.87    1.00
   8   0  -4  137.90    4.33
   7   0  -4   31.41    1.29
   6   0  -4   27.95    1.14
   5   0  -4    3.62    0.45
   4   0  -4   40.37    1.41
   3   0  -4    7.47    0.46
   1   0  -4    8.60    0.51
   0   0  -4  169.04    5.36
   0   0  -4  175.61    3.77
   0   0  -4  171.33    5.33
  -1   0  -4  786.28   22.08
  -1   0  -4  798.24   23.71
   1   0   4  796.68   22.14
   1   0   4  789.46   23.70
  -2   0  -4  158.29    4.39
  -2   0  -4  146.69    4.76
   2   0   4  151.43    4.77
   2   0   4  154.73    4.39
  -3   0  -4  135.68    4.00
   3   0   4  139.24    4.36
   3   0   4  141.12    4.02
   4   0   4    2.58    0.27
   5   0   4    2.19    0.28
   6   0   4    0.97    0.25
   7   0   4    2.11    0.42
   8   0   4    3.97    0.53
   9   0   4   41.92    1.61
  10   0   4    4.81    0.65
  11   0   4    3.97    0.72
  12   0   4    4.01    0.64
  13   0   4   29.46    1.47
  14   0   4    1.33    0.74
  15   0   4    0.03    0.86
  16   0   4   -0.62    0.96
  17   0   4   -1.66    1.08
  18   0   4    0.58    1.22
  16  -1  -4   -0.30    1.48
  15  -1  -4    0.11    1.29
  14  -1  -4    0.42    1.07
  13  -1  -4    0.07    0.96
  12  -1  -4   10.73    1.29
  11  -1  -4   17.61    1.22
  10  -1  -4   -0.01    0.59
   9  -1  -4   19.47    1.10
   8  -1  -4    4.83    0.72
   7  -1  -4    6.09    0.68
   6  -1  -4    0.60    0.35
   5  -1  -4    6.45    0.53
   4  -1  -4    7.93    0.51
   3  -1  -4   20.78    0.84
   1  -1  -4    2.30    0.31
  -1   1   4    1.80    0.32
   0  -1  -4  944.23   28.85
   0   1   4  955.99   28.87
   0   1   4 1000.00   20.26
  -1  -1  -4   24.99    0.86
  -1  -1  -4   26.23    1.01
   1   1   4   26.70    0.71
   1   1   4   26.86    1.02
  -2  -1  -4   54.77    1.64
  -2  -1  -4   54.66    1.86
  -2  -1  -4   56.21    1.31
  -2  -1  -4   54.88    1.54
   2   1   4   54.98    1.65
   2   1   4   48.01    1.83
   2   1   4   51.39    1.29
  -3  -1  -4   17.31    0.67
  -3  -1  -4   19.04    0.62
  -3  -1  -4   19.09    0.58
  -3  -1  -4   19.29    0.83
   3   1   4   19.54    0.64
   3   1   4   19.09    0.70
   4   1   4   36.59    1.11
   4   1   4   36.84    1.21
   5   1   4    1.45    0.22
   5   1   4    1.52    0.27
   6   1   4    4.51    0.39
   6   1   4    4.52    0.34
   7   1   4    2.82    0.41
   8   1   4    0.89    0.34
   9   1   4   65.27    2.24
  10   1   4  117.50    3.73
  11   1   4    9.34    0.81
  12   1   4    2.09    0.58
  13   1   4    0.70    0.62
  14   1   4    1.43    0.72
  15   1   4    2.02    0.81
  16   1   4   -0.59    0.91
  17   1   4   -0.26    1.04
  18   1   4    0.88    1.13
  16  -2  -4   -1.21    1.59
  15  -2  -4    1.15    1.38
  14  -2  -4    0.76    1.19
  13  -2  -4    1.99    1.00
  12  -2  -4   33.16    1.79
  11  -2  -4   13.75    1.19
  10  -2  -4   -0.34    0.63
   9  -2  -4   -0.50    0.55
   8  -2  -4    0.84    0.51
   7  -2  -4    0.10    0.41
   6  -2  -4    0.74    0.37
   5  -2  -4   10.77    0.66
   4  -2  -4   -0.11    0.29
   3  -2  -4  337.47    9.66
   2  -2  -4   69.83    2.20
   1  -2  -4   15.13    0.71
  -1   2   4   13.76    0.67
   0  -2  -4   42.37    1.49
   0   2   4   38.68    1.44
  -1  -2  -4   15.56    0.70
   1   2   4   13.50    0.68
  -2  -2  -4   98.80    3.17
  -2  -2  -4   98.89    2.88
  -2  -2  -4  102.08    2.79
   2   2   4   93.61    3.16
   2   2   4   97.49    2.88
  -3  -2  -4   12.38    0.50
  -3  -2  -4   12.36    0.62
  -3  -2  -4   12.49    0.51
   3   2   4   12.87    0.53
   3   2   4   13.18    0.54
   4   2   4    2.26    0.23
   4   2   4    2.06    0.25
   5   2   4    3.42    0.29
   5   2   4    2.87    0.28
   6   2   4   55.50    1.81
   6   2   4   56.57    1.75
   7   2   4   24.92    0.99
   7   2   4   25.84    0.98
   8   2   4   12.41    0.69
   8   2   4   11.01    0.65
   9   2   4   38.76    1.48
  10   2   4    0.52    0.42
  11   2   4    1.39    0.48
  12   2   4   -0.11    0.53
  13   2   4   -0.55    0.60
  14   2   4   -1.22    0.68
  15   2   4   -0.86    0.77
  16   2   4    7.53    1.25
  17   2   4    1.45    0.98
  17   2   4    1.11    0.66
  18   2   4    0.41    0.75
  18   2   4    2.58    1.10
  19   2   4   -0.15    1.22
  19   2   4   -0.32    0.89
  15  -3  -4    3.24    1.51
  14  -3  -4    1.17    1.31
  13  -3  -4    1.67    1.08
  12  -3  -4   16.92    1.55
  11  -3  -4    0.37    0.84
  10  -3  -4    0.72    0.69
   9  -3  -4    1.90    0.60
   8  -3  -4   12.97    0.97
   7  -3  -4   10.14    0.80
   6  -3  -4    7.74    0.69
   5  -3  -4   -0.04    0.37
   4  -3  -4  188.28    5.60
   3  -3  -4   74.24    2.38
   2  -3  -4   88.78    2.74
   1  -3  -4    0.81    0.33
   0  -3  -4    4.01    0.45
  -1  -3  -4   42.33    1.57
  -2  -3  -4    1.76    0.28
  -2  -3  -4    2.23    0.35
  -2  -3  -4    1.59    0.22
   2   3   4    1.51    0.24
   2   3   4    2.54    0.37
  -3  -3  -4   63.69    2.14
  -3  -3  -4   58.18    1.87
   3   3   4   66.14    1.92
  -4  -3  -4    6.85    0.40
   4   3   4    7.95    0.39
   4   3   4    8.46    0.42
   5   3   4  243.27    6.64
   5   3   4  237.17    6.85
   6   3   4   85.10    2.60
   6   3   4   85.29    2.56
   7   3   4   58.13    1.90
   7   3   4   57.69    1.88
   8   3   4    7.17    0.54
   8   3   4    6.46    0.52
   9   3   4    2.26    0.31
  10   3   4    6.18    0.64
  10   3   4    6.89    0.68
  11   3   4    0.85    0.35
  11   3   4    0.20    0.45
  12   3   4    0.25    0.38
  12   3   4    0.47    0.52
  13   3   4    0.58    0.42
  13   3   4    1.07    0.59
  14   3   4    0.77    0.47
  14   3   4   -0.34    0.66
  15   3   4   11.17    1.19
  15   3   4   10.87    1.06
  16   3   4    0.16    0.60
  16   3   4   -0.57    0.84
  17   3   4    0.66    0.67
  17   3   4   -0.59    0.93
  18   3   4   -0.01    1.06
  18   3   4    1.55    0.76
  19   3   4   -0.19    1.17
  19   3   4    1.93    0.86
  15  -4  -4    0.13    1.65
  14  -4  -4    1.30    1.42
  13  -4  -4    3.32    1.21
  12  -4  -4    0.64    1.07
  11  -4  -4    0.37    0.93
  10  -4  -4    4.02    0.76
   9  -4  -4    2.11    0.68
   8  -4  -4    0.09    0.59
   7  -4  -4   31.76    1.42
   6  -4  -4    7.14    0.69
   5  -4  -4    3.54    0.58
   4  -4  -4   31.77    1.25
   3  -4  -4  126.64    3.85
   2  -4  -4    6.02    0.47
   2  -4  -4    4.78    0.59
   1  -4  -4   39.55    1.53
   0  -4  -4   16.12    0.84
  -1  -4  -4    1.58    0.37
  -2  -4  -4   12.58    0.69
   2   4   4   12.91    0.64
  -3  -4  -4   31.86    1.26
   3   4   4   32.04    1.13
  -4  -4  -4   10.91    0.64
   4   4   4   10.76    0.55
   5   4   4   97.19    2.88
   6   4   4  175.46    5.00
   7   4   4   18.12    0.82
   8   4   4    1.87    0.32
   8   4   4    1.60    0.25
   9   4   4    3.28    0.50
   9   4   4    3.23    0.51
  10   4   4    5.26    0.63
  10   4   4    5.72    0.64
  11   4   4    0.73    0.37
  11   4   4    0.90    0.43
  12   4   4    4.72    0.75
  12   4   4    4.42    0.70
  13   4   4    5.37    0.87
  13   4   4    7.15    0.79
  14   4   4   14.12    1.01
  14   4   4   11.76    1.08
  15   4   4    1.33    0.51
  15   4   4   -0.30    0.74
  16   4   4    5.39    0.87
  16   4   4    6.50    1.10
  17   4   4    1.07    0.67
  17   4   4   -1.05    0.93
  18   4   4    1.11    0.76
  18   4   4   -0.80    1.02
  19   4   4   -0.39    0.85
  19   4   4    0.40    1.12
  14  -5  -4    1.82    1.56
  13  -5  -4    1.35    1.36
  11  -5  -4    1.34    1.03
  10  -5  -4    1.03    0.87
   9  -5  -4    0.46    0.73
   8  -5  -4    6.36    0.94
   7  -5  -4   29.44    1.41
   6  -5  -4   79.97    2.72
   5  -5  -4    2.64    0.50
   4  -5  -4   31.51    1.29
   3  -5  -4    3.54    0.53
   3  -5  -4    4.03    0.75
   2  -5  -4    0.73    0.53
   1  -5  -4    5.59    0.63
   0  -5  -4   24.22    1.12
  -1  -5  -4   10.55    0.72
  -2  -5  -4   48.90    1.82
  -3  -5  -4  120.98    3.98
   3   5   4  123.60    3.61
  -4  -5  -4    9.26    0.64
   4   5   4    9.79    0.54
   5   5   4   33.85    1.23
   6   5   4   32.41    1.21
   7   5   4    4.99    0.47
   8   5   4    3.70    0.45
   9   5   4    0.84    0.35
   9   5   4    0.96    0.30
  10   5   4    1.30    0.41
  11   5   4    0.04    0.36
  11   5   4    0.43    0.44
  12   5   4    0.58    0.38
  12   5   4    0.15    0.50
  13   5   4   -0.78    0.57
  13   5   4    0.37    0.44
  14   5   4   14.56    1.08
  14   5   4   13.80    1.08
  15   5   4   20.78    1.34
  15   5   4   22.43    1.36
  16   5   4    0.69    0.81
  16   5   4    0.81    0.61
  17   5   4   -0.20    0.91
  17   5   4    0.38    0.68
  18   5   4    0.55    0.99
  18   5   4    0.42    0.76
  19   5   4   -0.57    0.86
  19   5   4    1.16    1.11
  14  -6  -4    0.74    1.71
  13  -6  -4   -0.09    1.51
  11  -6  -4    0.07    1.14
  10  -6  -4    3.41    1.03
   9  -6  -4    2.35    0.83
   8  -6  -4    5.64    1.04
   7  -6  -4   79.67    2.80
   6  -6  -4   18.31    1.09
   5  -6  -4   11.95    0.87
   4  -6  -4   14.52    0.86
   3  -6  -4    1.17    0.71
   2  -6  -4   27.89    1.36
   1  -6  -4   15.40    1.00
   0  -6  -4   12.74    0.85
  -1  -6  -4   16.33    0.93
  -2  -6  -4  265.71    8.32
  -3  -6  -4   64.17    2.32
   3   6   4   65.18    2.14
  -4  -6  -4    1.17    0.44
  -5  -6  -4   19.04    0.98
   5   6   4   19.66    0.87
   6   6   4    0.27    0.21
   7   6   4    0.42    0.24
   8   6   4    2.19    0.34
   9   6   4    1.20    0.29
  10   6   4    0.59    0.34
  11   6   4   38.80    1.58
  12   6   4   21.21    1.15
  13   6   4    6.72    0.85
  14   6   4    1.53    0.52
  15   6   4    1.92    0.74
  15   6   4    0.52    0.57
  16   6   4    1.11    0.84
  16   6   4    0.78    0.63
  17   6   4    0.78    0.92
  17   6   4    0.31    0.70
  18   6   4    0.69    1.03
  18   6   4    1.23    0.79
  19   6   4    0.47    0.90
  13  -7  -4    0.43    1.68
  12  -7  -4    1.39    1.43
  11  -7  -4    9.62    1.33
  10  -7  -4    6.52    1.17
   9  -7  -4    1.29    0.98
   8  -7  -4   36.91    1.73
   7  -7  -4    5.22    1.01
   6  -7  -4    1.19    0.68
   3  -7  -4    9.42    1.07
   2  -7  -4    1.11    0.74
   1  -7  -4   36.81    1.67
   0  -7  -4   17.26    1.10
  -1  -7  -4  212.95    6.85
  -2  -7  -4   27.03    1.30
  -3  -7  -4   83.81    2.94
   3   7   4   81.62    2.67
  -4  -7  -4    2.45    0.55
   4   7   4    1.31    0.30
  -5  -7  -4   12.00    0.82
   5   7   4   11.17    0.68
  -6  -7  -4    9.55    0.78
   6   7   4   10.32    0.64
   7   7   4    4.06    0.49
   8   7   4    1.33    0.30
   9   7   4   10.08    0.75
  10   7   4   32.74    1.39
  11   7   4   28.46    1.33
  12   7   4    2.72    0.46
  13   7   4   -0.15    0.47
  14   7   4   -0.67    0.52
  15   7   4    2.03    0.59
  16   7   4   -0.41    0.65
  17   7   4   -0.46    0.72
  17   7   4    0.80    0.98
  18   7   4   -1.40    0.81
  19   7   4    0.91    0.90
  13  -8  -4   -1.59    1.84
  12  -8  -4    4.55    1.66
  11  -8  -4    4.22    1.42
  10  -8  -4    9.41    1.72
   9  -8  -4   -0.73    1.11
   7  -8  -4    0.29    0.82
   6  -8  -4    0.49    0.72
   4  -8  -4    4.42    0.99
   3  -8  -4   16.80    1.23
   2  -8  -4   88.68    3.34
   1  -8  -4    9.27    1.01
   0  -8  -4    1.44    0.71
  -1  -8  -4    3.70    0.68
  -2  -8  -4   84.78    3.09
  -3  -8  -4   20.70    1.15
   3   8   4   19.85    1.02
  -4  -8  -4    1.31    0.59
  -5  -8  -4   15.63    0.99
   5   8   4   15.74    0.85
   6   8   4    1.85    0.32
   7   8   4   19.39    0.98
   8   8   4    1.21    0.35
   9   8   4    1.68    0.35
  10   8   4   32.92    1.42
  11   8   4   21.08    1.11
  12   8   4    0.57    0.44
  13   8   4    0.10    0.49
  14   8   4    0.53    0.54
  15   8   4    2.16    0.62
  16   8   4    0.63    0.69
  17   8   4    0.46    0.76
  18   8   4    1.03    0.85
  19   8   4   -1.02    0.94
  12  -9  -4    2.08    1.83
  11  -9  -4   20.66    2.32
  10  -9  -4   -1.44    1.39
   3  -9  -4   17.79    1.39
   2  -9  -4   72.72    2.81
   1  -9  -4  104.64    3.77
   0  -9  -4    0.78    0.75
  -1  -9  -4   15.04    1.14
  -2  -9  -4   31.63    1.60
  -3  -9  -4   10.66    1.00
   3   9   4   11.09    0.84
  -4  -9  -4   -0.44    0.67
   4   9   4    0.29    0.35
  -5  -9  -4   21.62    1.26
   5   9   4   23.13    1.14
  -6  -9  -4    7.59    0.86
   6   9   4    5.94    0.69
  -7  -9  -4   28.52    1.45
   7   9   4   28.99    1.28
   8   9   4   43.22    1.67
   9   9   4    4.44    0.63
  10   9   4    2.03    0.39
  11   9   4    0.28    0.41
  12   9   4    2.16    0.47
  13   9   4    0.06    0.53
  14   9   4    1.02    0.58
  15   9   4    0.52    0.64
  16   9   4    1.20    0.72
  17   9   4    0.95    0.80
  18   9   4    1.11    0.89
  19   9   4    3.02    1.00
  11 -10  -4    1.25    1.90
  10 -10  -4    3.26    1.69
   3 -10  -4   12.55    1.41
   2 -10  -4   82.15    3.23
   1 -10  -4    1.60    0.90
   0 -10  -4    7.15    1.04
  -1 -10  -4    5.31    0.98
  -2 -10  -4    2.22    0.76
  -3 -10  -4    6.43    0.90
  -4 -10  -4    0.90    0.71
   4  10   4    1.26    0.40
  -5 -10  -4    3.37    0.72
   5  10   4    2.03    0.39
  -6 -10  -4   45.03    2.01
   6  10   4   50.32    1.87
  -7 -10  -4   65.41    2.62
   7  10   4   67.90    2.38
   8  10   4    3.53    0.61
   9  10   4    1.08    0.37
  10  10   4   10.51    0.82
  11  10   4    0.83    0.45
  12  10   4    0.01    0.49
  13  10   4    2.26    0.56
  14  10   4    1.18    0.62
  15  10   4    0.85    0.70
  16  10   4    3.81    0.80
  17  10   4    0.07    0.85
  18  10   4   -0.01    0.95
  19  10   4   -1.38    1.06
   5 -11  -4   34.22    2.29
   4 -11  -4   -0.11    1.48
   3 -11  -4    4.68    1.33
   2 -11  -4    0.61    1.17
   1 -11  -4    4.38    1.14
   0 -11  -4    3.61    1.02
  -1 -11  -4    7.04    1.10
  -2 -11  -4   14.70    1.18
  -3 -11  -4   11.31    1.09
  -4 -11  -4   15.24    1.15
   4  11   4   14.17    0.93
  -5 -11  -4   15.77    1.16
   5  11   4   14.38    0.96
  -6 -11  -4   24.22    1.35
   6  11   4   23.15    1.18
  -7 -11  -4    6.04    0.97
   7  11   4    6.38    0.71
   8  11   4   33.69    1.49
   9  11   4    0.52    0.41
  10  11   4    5.04    0.78
  11  11   4   -0.06    0.47
  12  11   4    0.23    0.52
  13  11   4    0.67    0.59
  14  11   4   -0.35    0.66
  15  11   4   15.23    1.42
  16  11   4    1.61    0.82
  17  11   4   -0.10    0.91
  18  11   4    0.32    1.01
  19  11   4   -0.46    1.13
   4 -12  -4    1.45    1.72
   3 -12  -4   -0.10    1.58
   2 -12  -4    0.98    1.41
   1 -12  -4    7.59    1.52
   0 -12  -4    0.76    1.10
  -1 -12  -4    3.86    1.14
  -2 -12  -4   22.18    1.54
  -3 -12  -4   46.08    2.10
  -4 -12  -4    7.05    1.07
   4  12   4    5.64    0.84
  -5 -12  -4    3.57    0.88
   5  12   4    4.50    0.80
  -6 -12  -4    8.05    1.05
   6  12   4    8.23    0.81
  -7 -12  -4    0.65    0.83
   7  12   4    0.27    0.44
  -8 -12  -4    8.33    1.07
   8  12   4    6.66    0.80
   9  12   4    0.28    0.47
  10  12   4   -0.18    0.47
  11  12   4   -0.28    0.50
  12  12   4    9.00    1.03
  13  12   4    0.48    0.62
  14  12   4    1.14    0.70
  15  12   4    0.61    0.78
  16  12   4   -0.83    0.88
  17  12   4   -1.43    0.97
  18  12   4   -0.21    1.10
   5 -13  -4    4.75    2.15
   4 -13  -4    1.04    2.00
   3 -13  -4    0.25    1.83
   2 -13  -4    2.23    1.70
   1 -13  -4    2.36    1.51
   0 -13  -4    1.76    1.34
  -1 -13  -4    2.04    1.21
  -2 -13  -4   20.92    1.59
  -3 -13  -4   42.55    2.15
  -4 -13  -4   31.20    1.82
  -5 -13  -4    5.27    1.07
   5  13   4    2.72    0.56
  -6 -13  -4    6.13    1.24
   6  13   4    5.34    0.90
  -7 -13  -4    0.41    1.02
   7  13   4   -0.21    0.49
  -8 -13  -4    0.83    1.05
   8  13   4    0.35    0.51
   9  13   4    0.45    0.51
  10  13   4    0.16    0.54
  11  13   4    0.88    0.56
  12  13   4    6.57    1.04
  13  13   4    3.53    0.70
  14  13   4    0.04    0.74
  15  13   4   -0.26    0.81
  16  13   4    0.80    0.91
  17  13   4    1.45    1.02
  18  13   4    1.01    1.15
   6 -14  -4    2.67    2.72
   5 -14  -4    2.85    2.41
   4 -14  -4    3.58    2.28
   3 -14  -4    1.63    2.14
   2 -14  -4    8.03    2.00
   1 -14  -4    1.01    1.81
   0 -14  -4   10.26    1.71
  -1 -14  -4   10.22    1.80
  -2 -14  -4   20.22    1.78
  -3 -14  -4    8.31    1.52
  -4 -14  -4    2.63    1.21
  -5 -14  -4    6.19    1.18
   5  14   4    3.34    0.64
  -6 -14  -4    1.35    1.13
   6  14   4    0.35    0.59
  -7 -14  -4    0.52    1.15
   7  14   4   -0.01    0.57
  -8 -14  -4    3.19    1.19
  -9 -14  -4    5.43    1.27
  10  14   4    0.15    0.60
  11  14   4    6.56    1.10
  12  14   4    2.88    0.69
  13  14   4    0.43    0.71
  14  14   4   -1.40    0.76
  15  14   4    1.30    0.88
  16  14   4    0.78    0.98
  17  14   4   -0.28    1.07
   5 -15  -4    2.80    2.81
   4 -15  -4    2.60    2.52
   3 -15  -4    2.10    2.47
   2 -15  -4    0.30    2.27
   1 -15  -4   20.63    2.59
   0 -15  -4   12.61    2.34
  -1 -15  -4    0.74    1.80
  -2 -15  -4    1.48    1.65
  -3 -15  -4    0.08    1.51
  -4 -15  -4    3.01    1.46
  -5 -15  -4    5.78    1.41
  -6 -15  -4   -0.08    1.35
   6  15   4    0.06    0.69
  -7 -15  -4    1.48    1.36
   7  15   4    0.09    0.65
   8  15   4    8.95    1.10
  -9 -15  -4    3.86    1.44
  10  15   4   -0.47    0.66
  11  15   4   -0.12    0.67
  12  15   4    1.49    0.73
  13  15   4   -1.09    0.78
  14  15   4   -0.74    0.83
  15  15   4   -0.03    0.92
  16  15   4   -0.44    0.99
  17  15   4   -0.77    1.13
   4 -16  -4    1.04    2.97
   3 -16  -4    2.54    2.69
   2 -16  -4   12.25    2.76
   1 -16  -4    5.50    2.44
   0 -16  -4    2.92    2.25
  -1 -16  -4    6.24    2.12
  -2 -16  -4   -2.20    1.97
  -3 -16  -4   -1.99    1.86
  -4 -16  -4   10.16    1.85
  -5 -16  -4    2.39    1.72
  -6 -16  -4   -0.48    1.65
  -7 -16  -4   12.42    1.99
   7  16   4   11.72    1.25
  -8 -16  -4    4.89    1.67
   8  16   4    1.90    0.75
  -9 -16  -4    3.43    1.71
   9  16   4    2.06    0.71
  10  16   4   -1.27    0.71
  11  16   4   -0.70    0.77
  12  16   4    0.97    0.79
  13  16   4   -1.20    0.84
  14  16   4   -1.07    0.91
  15  16   4   -1.59    1.00
  16  16   4    0.57    1.08
   3 -17  -4    2.81    3.15
   2 -17  -4    3.03    2.94
   1 -17  -4    2.37    2.75
   0 -17  -4    3.98    2.68
  -1 -17  -4   -0.82    2.44
  -2 -17  -4    3.21    2.30
  -3 -17  -4    5.93    2.17
  -4 -17  -4    7.39    2.06
  -5 -17  -4    1.39    2.00
  -6 -17  -4    0.13    1.94
  -7 -17  -4    1.69    1.90
   7  17   4    2.14    0.87
  -8 -17  -4   14.08    2.00
   8  17   4   11.00    1.41
  -9 -17  -4    2.09    1.91
   9  17   4    0.92    0.84
 -10 -17  -4    1.48    1.90
  10  17   4    0.03    0.80
  11  17   4   -1.08    0.82
  12  17   4   -0.36    0.88
  13  17   4   -0.92    0.92
  14  17   4    0.80    0.98
  15  17   4    0.70    1.09
   1 -18  -4   -0.29    3.17
   0 -18  -4    8.55    2.99
  -1 -18  -4    3.65    2.86
  -2 -18  -4    1.86    2.67
  -3 -18  -4    1.97    2.53
  -4 -18  -4    1.73    2.40
  -5 -18  -4    5.61    2.30
  -6 -18  -4    1.59    2.18
  -7 -18  -4    3.22    2.21
  -8 -18  -4    0.31    2.14
   8  18   4    0.02    0.96
  -9 -18  -4   -0.79    2.17
   9  18   4    1.26    0.94
 -10 -18  -4   -1.50    2.20
  10  18   4   -0.64    0.95
  11  18   4    0.36    0.93
  12  18   4   -0.93    0.96
  13  18   4   -0.63    1.01
  -2 -19  -4    2.69    2.98
  -3 -19  -4    7.86    2.92
  -4 -19  -4   15.92    3.25
  -5 -19  -4    4.16    2.66
  -6 -19  -4    3.71    2.58
  -7 -19  -4    4.80    2.56
  -8 -19  -4   -0.11    2.51
  -9 -19  -4    6.88    2.54
 -10 -19  -4    6.05    2.52
 -11 -19  -4    4.14    2.53
  11  19   4   -1.19    1.10
   8  19  -5   -2.20    1.12
  -8 -19   5    2.15    2.66
   7  19  -5    0.55    1.11
  -7 -19   5    1.94    2.61
   6  19  -5    0.23    1.18
  -6 -19   5   -0.21    2.61
   5  19  -5    1.18    1.24
  -5 -19   5   -0.42    2.75
  -4 -19   5    2.53    2.73
  -3 -19   5    3.47    2.79
  -2 -19   5   -2.63    3.03
  11  18  -5    0.07    1.11
   9  18  -5   -0.50    1.03
  -8 -18   5    4.52    2.40
  -7 -18   5    0.29    2.35
   6  18  -5    1.23    1.00
  -6 -18   5    1.16    2.28
   5  18  -5    0.98    1.06
  -5 -18   5    0.76    2.32
   4  18  -5    2.98    1.13
  -4 -18   5    2.01    2.40
  -3 -18   5   -0.61    2.44
  -2 -18   5    1.00    2.61
  -1 -18   5   -2.32    2.72
   0 -18   5    2.52    2.99
   1 -18   5    0.11    3.02
   2 -18   5    2.77    3.42
  12  17  -5    0.34    1.07
  11  17  -5   -0.95    0.99
  10  17  -5   -0.47    0.95
   9  17  -5   -0.48    0.92
   8  17  -5    0.38    0.89
   7  17  -5   -0.29    0.87
  -7 -17   5    0.22    2.07
   6  17  -5   -0.50    0.88
  -6 -17   5    3.51    2.06
   5  17  -5   -0.12    0.90
  -5 -17   5    0.18    2.03
   4  17  -5    1.79    0.96
  -4 -17   5    2.94    2.09
   3  17  -5    1.02    0.99
  -3 -17   5   -1.86    2.14
  -2 -17   5    0.30    2.23
  -1 -17   5   -3.35    2.34
   0 -17   5   -1.12    2.53
   1 -17   5   -1.67    2.61
   2 -17   5    0.28    2.87
   3 -17   5    1.04    2.96
   4 -17   5    1.63    3.21
  13  16  -5    0.28    1.05
  12  16  -5   -1.17    0.97
  11  16  -5    0.59    0.91
  10  16  -5   -1.35    0.85
   9  16  -5    0.78    0.82
   8  16  -5    0.11    0.79
  -8 -16   5   -0.26    1.96
   7  16  -5    0.57    0.79
  -7 -16   5    2.27    1.85
   6  16  -5    0.84    0.78
  -6 -16   5    1.44    1.83
   5  16  -5    5.78    0.84
  -5 -16   5    9.22    1.88
   4  16  -5    0.17    0.81
  -4 -16   5    0.27    1.82
   3  16  -5    1.73    0.86
  -3 -16   5   -0.88    1.85
  -2 -16   5    2.98    1.94
  -1 -16   5   -0.63    2.01
   0 -16   5   -0.83    2.11
   1 -16   5    0.18    2.27
   2 -16   5   -1.09    2.45
   3 -16   5   -1.17    2.59
   4 -16   5    1.55    2.75
   5 -16   5    0.42    2.93
   6 -16   5    1.12    3.17
  14  15  -5    0.10    1.08
  13  15  -5    0.15    0.99
  12  15  -5    0.06    0.90
  11  15  -5    1.16    0.83
  10  15  -5    0.40    0.77
   9  15  -5   -0.26    0.73
   8  15  -5    3.61    0.70
   7  15  -5    1.65    0.70
  -7 -15   5    3.93    1.69
   6  15  -5    3.89    0.72
  -6 -15   5    7.59    1.66
   5  15  -5   -0.64    0.69
  -5 -15   5    0.42    1.61
  -4 -15   5    2.25    1.61
   3  15  -5    0.46    0.76
  -3 -15   5    1.83    1.64
  -2 -15   5    4.33    1.70
  -1 -15   5    2.89    1.74
   0 -15   5    1.92    1.80
   1 -15   5    5.81    1.97
   2 -15   5    1.12    2.10
   3 -15   5   -0.54    2.24
   4 -15   5    2.72    2.42
   5 -15   5   -0.99    2.53
   6 -15   5   -1.65    2.70
   7 -15   5    3.94    2.94
  15  14  -5   -0.57    1.10
  14  14  -5    0.41    1.01
  13  14  -5    0.74    0.91
  12  14  -5   -1.02    0.84
  11  14  -5    0.47    0.77
  10  14  -5   -0.19    0.71
   9  14  -5   10.87    1.16
   8  14  -5    1.75    0.62
   7  14  -5   -0.37    0.60
   6  14  -5    3.55    0.63
  -6 -14   5    6.49    1.49
   5  14  -5   -0.37    0.60
  -5 -14   5    0.99    1.44
   4  14  -5    0.77    0.62
  -4 -14   5    3.98    1.42
   3  14  -5    3.04    0.66
  -3 -14   5    4.70    1.45
   2  14  -5    3.45    0.71
  -1 -14   5    4.79    1.49
   0 -14   5   16.98    1.98
   1 -14   5    2.35    1.65
   2 -14   5    6.24    1.82
   3 -14   5   -1.29    1.95
   4 -14   5   -0.40    2.07
   5 -14   5    1.24    2.21
   6 -14   5    0.05    2.38
   7 -14   5    4.04    2.56
  16  13  -5    1.46    1.08
  15  13  -5    0.13    0.99
  14  13  -5   -0.44    0.90
  13  13  -5   -0.23    0.84
  12  13  -5    1.60    0.80
  11  13  -5    2.34    0.72
  10  13  -5    0.72    0.65
   9  13  -5    0.29    0.60
   8  13  -5    2.85    0.57
   7  13  -5    6.28    0.93
   6  13  -5    4.20    0.57
  -6 -13   5    7.20    1.35
  -5 -13   5    4.41    1.31
  -4 -13   5    8.67    1.56
   3  13  -5   12.48    1.10
  -3 -13   5   15.46    1.62
   2  13  -5    0.67    0.59
  -2 -13   5    1.34    1.21
   1  13  -5    1.06    0.63
  -1 -13   5    2.37    1.25
   0 -13   5    3.64    1.32
   1 -13   5   11.44    1.76
   2 -13   5   -0.90    1.52
   3 -13   5    0.51    1.64
   4 -13   5    0.40    1.74
   5 -13   5   -0.30    1.91
   6 -13   5   -0.64    2.07
   7 -13   5    5.09    2.26
   8 -13   5    0.84    2.39
  16  12  -5   -0.63    1.00
  15  12  -5   -1.58    0.91
  14  12  -5   -1.28    0.83
  13  12  -5    1.16    0.79
  12  12  -5    2.44    0.71
  11  12  -5    2.10    0.65
  10  12  -5    0.92    0.59
   9  12  -5    1.69    0.56
   8  12  -5    3.33    0.53
   7  12  -5    3.06    0.50
   6  12  -5    0.70    0.45
  -5 -12   5    1.92    1.16
   4  12  -5    2.78    0.48
   3  12  -5    7.70    0.89
  -3 -12   5    9.81    1.37
   2  12  -5   14.19    1.01
  -2 -12   5   18.63    1.49
   1  12  -5    0.69    0.55
  -1 -12   5    1.79    1.09
   0  12  -5    9.32    1.01
   0 -12   5   11.24    1.43
   1 -12   5    9.82    1.52
   2 -12   5    1.84    1.29
   3 -12   5   -0.06    1.41
   4 -12   5   -1.11    1.48
   5 -12   5    1.09    1.63
   6 -12   5    3.61    1.81
   7 -12   5    0.18    1.97
  16  11  -5    0.14    1.03
  15  11  -5    2.96    0.93
  14  11  -5    0.08    0.83
  13  11  -5    1.26    0.71
  12  11  -5    4.06    0.67
  11  11  -5   -0.06    0.59
  10  11  -5    0.43    0.56
   9  11  -5    1.60    0.50
   8  11  -5    5.17    0.84
   7  11  -5    0.99    0.44
   6  11  -5   -0.08    0.41
   5  11  -5    1.40    0.40
  -5 -11   5    2.95    1.05
   4  11  -5    5.12    0.71
  -4 -11   5    5.51    1.04
   3  11  -5   75.38    2.60
  -3 -11   5   73.88    3.00
   2  11  -5    0.22    0.44
  -2 -11   5    2.04    0.94
   1  11  -5    1.49    0.47
  -1 -11   5    2.15    0.95
   0  11  -5    1.57    0.58
   0 -11   5    2.69    0.98
   1 -11   5    1.43    1.05
   2 -11   5    1.08    1.12
   3 -11   5    1.13    1.21
   4 -11   5    3.84    1.29
   5 -11   5    5.39    1.44
   6 -11   5    9.24    1.63
   7 -11   5    4.88    1.73
  17  10  -5   -0.50    1.05
  16  10  -5    2.38    0.95
  15  10  -5    0.34    0.85
  14  10  -5    0.17    0.76
  13  10  -5    8.73    1.26
  12  10  -5    0.19    0.64
  11  10  -5   -0.09    0.57
  10  10  -5    0.21    0.50
   9  10  -5   -0.49    0.46
   8  10  -5   -0.28    0.43
   7  10  -5    1.35    0.39
   6  10  -5   26.12    1.23
   5  10  -5    1.68    0.36
  -5 -10   5    1.71    0.95
   4  10  -5   44.71    1.70
  -4 -10   5   45.19    2.10
   3  10  -5    0.91    0.40
  -3 -10   5    0.11    0.89
   2  10  -5   16.71    1.03
  -2 -10   5   15.07    1.27
   1  10  -5    1.10    0.44
  -1 -10   5    2.73    0.86
   0  10  -5   14.73    1.01
   0 -10   5   13.62    1.24
   1 -10   5    6.49    1.17
   2 -10   5    3.37    0.99
   3 -10   5    0.27    1.06
   4 -10   5    8.84    1.39
   5 -10   5   16.89    1.61
   6 -10   5    8.47    1.65
  17   9  -5    1.61    0.90
  16   9  -5    0.07    0.80
  15   9  -5    0.92    0.75
  14   9  -5   -0.12    0.68
  13   9  -5    0.36    0.61
  12   9  -5    1.97    0.57
  11   9  -5    0.10    0.51
  10   9  -5    0.13    0.47
   9   9  -5    0.61    0.43
   8   9  -5    2.74    0.43
   7   9  -5   35.43    1.51
   6   9  -5   10.56    0.75
   5   9  -5    0.88    0.32
   4   9  -5    0.51    0.32
  -4  -9   5    0.43    0.83
   3   9  -5   26.43    1.17
  -3  -9   5   27.19    1.60
   2   9  -5    5.39    0.65
  -2  -9   5    5.83    1.00
   1   9  -5    0.49    0.37
  -1  -9   5    0.67    0.78
   0   9  -5    1.02    0.38
   0  -9   5    1.77    0.79
  -1   9  -5    9.00    0.79
   1  -9   5   10.64    1.09
   2  -9   5   34.19    1.73
   3  -9   5    3.03    0.95
   4  -9   5    0.33    0.96
   5  -9   5   11.88    1.39
   6  -9   5    7.07    1.26
   7  -9   5    1.19    1.32
  17   8  -5    1.18    0.85
  16   8  -5    3.70    0.79
  15   8  -5   -0.09    0.70
  14   8  -5    0.97    0.63
  13   8  -5    0.54    0.58
  12   8  -5    2.48    0.53
  11   8  -5    1.17    0.47
  10   8  -5    6.62    0.82
   9   8  -5    0.72    0.39
   8   8  -5   43.22    1.76
   7   8  -5    3.93    0.61
   6   8  -5   27.12    1.20
   5   8  -5    1.03    0.33
   4   8  -5    7.48    0.60
  -4  -8   5    7.38    1.02
   3   8  -5   32.82    1.31
  -3  -8   5   32.99    1.64
   2   8  -5    0.29    0.26
  -2  -8   5   -0.32    0.73
   1   8  -5    7.66    0.62
  -1  -8   5    7.33    0.99
   0   8  -5    1.14    0.35
   0  -8   5    1.42    0.74
  -1   8  -5   24.91    1.10
   1  -8   5   25.63    1.52
   2  -8   5   21.45    1.38
   3  -8   5   19.53    1.30
   4  -8   5    5.18    1.08
   5  -8   5    5.11    1.00
   6  -8   5    1.23    1.04
   7  -8   5    0.60    1.16
  10  -8   5    4.62    0.79
  12  -8   5   -0.62    1.01
  14  -8   5   -1.19    1.30
  17   7  -5    0.63    0.84
  16   7  -5   -0.98    0.74
  15   7  -5   -0.20    0.66
  14   7  -5    0.22    0.60
  13   7  -5    0.20    0.55
  12   7  -5    0.84    0.50
  11   7  -5   12.95    0.99
  10   7  -5    4.83    0.75
   9   7  -5    1.14    0.38
   8   7  -5    0.43    0.34
   7   7  -5   78.70    2.68
   6   7  -5    1.44    0.32
   5   7  -5   18.30    0.90
   4   7  -5    7.71    0.57
  -4  -7   5    7.91    0.94
   3   7  -5    1.97    0.27
   2   7  -5    0.14    0.23
  -2  -7   5   -0.21    0.63
   1   7  -5    3.47    0.46
  -1  -7   5    3.29    0.66
   0   7  -5   25.49    1.05
   0  -7   5   25.76    1.36
  -1   7  -5  113.77    3.43
   1  -7   5  117.05    4.08
   2  -7   5   85.24    3.17
   3  -7   5   16.59    1.20
   4  -7   5    3.99    0.89
   5  -7   5    1.86    0.85
   6  -7   5    1.59    0.93
   9  -7   5    0.09    0.61
  10  -7   5    3.89    0.74
  11  -7   5    4.09    0.82
  13  -7   5    7.69    1.40
  14  -7   5    0.05    1.22
  15  -7   5   -0.19    1.36
  17   6  -5    0.27    0.80
   7   6  -5    3.99    0.56
   6   6  -5    0.38    0.28
   5   6  -5    2.82    0.45
   4   6  -5    6.37    0.51
  -3  -6   5    1.71    0.61
   2   6  -5   93.83    2.85
  -2  -6   5   93.34    3.31
   1   6  -5  145.83    4.14
  -1  -6   5  139.46    4.77
   0   6  -5   29.08    1.08
   0  -6   5   28.16    1.40
  -1   6  -5   16.36    0.75
   1  -6   5   16.54    1.09
   2  -6   5    0.98    0.64
   3  -6   5   25.18    1.36
   4  -6   5    1.39    0.71
   5  -6   5    2.57    0.80
   6  -6   5    0.99    0.86
   9  -6   5   -0.75    0.55
  10  -6   5   12.74    1.00
  11  -6   5    9.06    1.04
  12  -6   5   -0.41    0.83
  13  -6   5   -0.92    0.96
  14  -6   5   -0.95    1.07
  15  -6   5    1.30    1.27
  16   5  -5   -0.84    1.20
  14   5  -5    7.67    1.40
  13   5  -5    0.32    0.86
   4   5  -5    2.40    0.40
   3   5  -5   95.10    2.84
  -3  -5   5   91.43    3.21
   2   5  -5  142.18    4.06
  -2  -5   5  139.26    4.64
  -1  -5   5    2.48    0.55
   0   5  -5   35.87    1.21
   0  -5   5   36.27    1.58
  -1   5  -5    2.90    0.35
   1  -5   5    3.09    0.33
   1  -5   5    4.33    0.68
  -2   5  -5    6.86    0.42
   2  -5   5    6.70    0.74
   2  -5   5    6.30    0.42
   3  -5   5    1.64    0.59
   3  -5   5    0.99    0.22
   4  -5   5    0.55    0.25
   4  -5   5    0.86    0.62
   5  -5   5    3.90    0.71
   6  -5   5   14.63    1.10
   7  -5   5   28.16    1.22
   8  -5   5   -0.50    0.43
   9  -5   5    7.07    0.78
  10  -5   5   -0.69    0.58
  11  -5   5   -0.92    0.67
  12  -5   5    1.64    0.78
  13  -5   5   -0.42    0.88
  14  -5   5   -0.93    1.00
  15  -5   5    0.69    1.15
  16  -5   5    7.23    1.37
  17   4  -5   -1.55    1.33
  16   4  -5   -0.78    1.22
  15   4  -5    4.08    1.11
  14   4  -5   -0.46    0.91
  13   4  -5    0.68    0.86
  11   4  -5    8.47    0.96
   9   4  -5    1.97    0.49
   8   4  -5    0.30    0.42
   2   4  -5   30.17    1.07
  -2  -4   5   29.65    1.29
   1   4  -5  139.35    3.90
  -1  -4   5  135.32    4.51
   0   4  -5   28.34    0.93
   0  -4   5   25.75    1.21
  -1   4  -5    3.48    0.29
   1  -4   5    3.42    0.27
   1  -4   5    3.73    0.54
   2  -4   5   20.33    1.04
   3  -4   5    8.53    0.72
   4  -4   5   23.14    0.92
   4  -4   5   24.60    1.19
   5  -4   5    4.04    0.75
   6  -4   5   28.09    1.11
   7  -4   5   50.92    1.80
   8  -4   5   10.01    0.73
   9  -4   5    0.83    0.46
  10  -4   5    3.67    0.60
  11  -4   5    0.98    0.62
  12  -4   5    1.65    0.74
  13  -4   5    0.01    0.82
  14  -4   5   -1.03    0.93
  15  -4   5    7.36    1.12
  16  -4   5    0.45    1.20
  17  -4   5   -1.24    1.35
  16   3  -5    0.69    1.28
  15   3  -5    6.01    1.13
  14   3  -5   10.18    1.08
  13   3  -5    0.66    0.87
  12   3  -5    0.86    0.74
  11   3  -5    0.83    0.61
  10   3  -5    5.85    0.82
   9   3  -5    0.68    0.50
   8   3  -5   -0.20    0.40
   7   3  -5   18.85    0.91
   6   3  -5   41.20    1.49
  -2  -3   5  131.80    4.25
  -1  -3   5   38.70    1.51
   0   3  -5    2.87    0.23
   0  -3   5    3.03    0.48
   1  -3   5   17.62    0.89
   2  -3   5   12.96    0.76
   3  -3   5    3.59    0.56
   4  -3   5   25.73    0.96
   4  -3   5   26.97    1.21
   5  -3   5   21.72    1.13
   5  -3   5   23.15    0.90
   6  -3   5   87.98    2.76
   7  -3   5   82.96    2.67
   8  -3   5    1.07    0.38
   9  -3   5    3.05    0.48
  11  -3   5    3.41    0.64
  12  -3   5    6.98    0.97
  13  -3   5   -1.18    0.75
  14  -3   5    0.37    0.86
  15  -3   5   -0.45    0.98
  16  -3   5    8.28    1.19
  17  -3   5    1.97    1.30
  17   2  -5   -1.33    1.50
  16   2  -5    5.23    1.33
  15   2  -5   20.95    1.78
  14   2  -5   -0.67    1.03
  13   2  -5    0.40    0.90
  12   2  -5    4.07    0.77
  11   2  -5    2.21    0.64
  10   2  -5    0.67    0.55
   9   2  -5    0.46    0.50
   8   2  -5    2.79    0.47
   7   2  -5   34.92    1.37
   6   2  -5   79.64    2.58
   5   2  -5  105.01    3.23
   4   2  -5    1.86    0.32
   1   2  -5    2.40    0.39
  -1  -2   5    1.72    0.34
   0  -2   5   42.07    1.57
   1  -2   5    3.35    0.44
  -2   2  -5   37.17    1.24
   2  -2   5   40.08    1.52
   2  -2   5   40.01    1.28
   3  -2   5  122.92    4.04
   3  -2   5  124.56    3.64
   4  -2   5   91.20    3.04
   4  -2   5   87.52    2.70
   5  -2   5    5.40    0.42
   6  -2   5   25.04    0.98
   7  -2   5    2.36    0.43
   8  -2   5    1.03    0.38
   9  -2   5    0.02    0.39
  10  -2   5    3.06    0.49
  11  -2   5    0.58    0.52
  12  -2   5    1.76    0.61
  13  -2   5    6.27    0.81
  14  -2   5   -1.06    0.80
  15  -2   5    7.34    1.03
  16  -2   5   -0.86    1.02
  17  -2   5   -0.04    1.18
  16   1  -5    0.47    1.39
  15   1  -5    0.80    1.18
  14   1  -5    1.25    1.08
  13   1  -5    4.37    0.96
  12   1  -5    1.63    0.78
  11   1  -5    1.01    0.65
  10   1  -5    5.76    0.72
   9   1  -5   20.95    1.15
   8   1  -5    1.00    0.43
   7   1  -5   25.22    1.14
   6   1  -5   67.35    2.26
   5   1  -5    0.59    0.28
   4   1  -5    1.85    0.29
   1   1  -5  301.60    9.16
  -1  -1   5  296.82    9.14
   0   1  -5  462.10   13.94
   0  -1   5  458.68   13.93
  -1   1  -5   41.64    1.57
  -1   1  -5   43.55    1.36
   1  -1   5   42.32    1.57
   1  -1   5   43.49    1.36
  -2   1  -5    3.43    0.29
   2  -1   5    3.29    0.40
   2  -1   5    3.62    0.29
   3  -1   5  248.94    7.81
   3  -1   5  256.25    7.21
   4  -1   5   28.17    1.01
   4  -1   5   28.76    1.18
   5  -1   5   10.39    0.54
   6  -1   5    0.98    0.24
   7  -1   5    1.56    0.32
   8  -1   5    0.83    0.34
   9  -1   5    1.61    0.38
  10  -1   5    0.02    0.43
  11  -1   5   22.89    1.17
  12  -1   5   34.66    1.55
  13  -1   5   -0.45    0.65
  14  -1   5    3.22    0.77
  15  -1   5   -0.71    0.85
  16  -1   5   -0.26    0.96
  17  -1   5    0.16    1.10
  18  -1   5   -0.55    1.28
  16   0  -5    1.96    1.47
  15   0  -5    3.29    1.26
  14   0  -5    2.37    1.14
  13   0  -5    2.03    0.99
  12   0  -5    2.28    0.83
  11   0  -5   -0.68    0.68
  10   0  -5   37.92    1.66
   9   0  -5   44.26    1.80
   8   0  -5    1.23    0.45
   7   0  -5    0.07    0.38
   6   0  -5    1.45    0.36
   5   0  -5    3.09    0.48
   4   0  -5   33.65    1.25
   3   0  -5   14.46    0.70
   1   0  -5  627.05   13.06
   1   0  -5  616.15   18.61
   1   0  -5  611.34   18.58
   0   0  -5    2.16    0.39
   0   0  -5    2.89    0.26
   0   0  -5    2.53    0.39
  -1   0  -5  174.63    5.07
  -1   0  -5  178.31    5.53
  -2   0  -5  134.79    3.90
  -2   0  -5  131.83    4.27
   2   0   5  136.93    3.91
   2   0   5  132.22    4.27
   3   0   5   76.41    2.30
   3   0   5   73.95    2.53
   4   0   5    1.61    0.29
   4   0   5    2.11    0.34
   5   0   5   16.53    0.70
   6   0   5   13.93    0.66
   7   0   5   18.17    0.82
   8   0   5   21.46    0.97
   9   0   5    6.63    0.65
  10   0   5    1.24    0.42
  11   0   5   40.82    1.63
  12   0   5    5.72    0.83
  13   0   5   10.15    1.01
  14   0   5   -1.25    0.72
  15   0   5    1.61    0.82
  16   0   5   -1.29    0.91
  17   0   5   -1.26    1.05
  18   0   5    0.52    1.18
  16  -1  -5   -0.64    1.58
  15  -1  -5    2.84    1.37
  14  -1  -5   -0.95    1.17
  13  -1  -5    4.65    1.06
  12  -1  -5    2.88    0.89
  11  -1  -5    5.69    1.05
  10  -1  -5   25.00    1.32
   9  -1  -5   15.11    1.04
   8  -1  -5    1.68    0.48
   7  -1  -5    0.14    0.40
   6  -1  -5    0.79    0.39
   5  -1  -5   24.86    1.09
   4  -1  -5    0.42    0.30
   3  -1  -5    1.15    0.28
   1  -1  -5  177.85    5.45
  -1   1   5  169.38    5.45
   0  -1  -5   18.90    0.85
   0   1   5   19.59    0.60
   0   1   5   18.53    0.85
  -1  -1  -5  764.16   21.38
  -1  -1  -5  771.12   22.98
   1   1   5  774.16   16.13
   1   1   5  751.79   22.98
  -2  -1  -5  302.97    8.64
  -2  -1  -5  294.27    9.37
  -2  -1  -5  322.86    8.23
  -2  -1  -5  296.71    6.58
   2   1   5  308.88    8.65
  -3  -1  -5    1.23    0.19
  -3  -1  -5    0.80    0.31
  -3  -1  -5    1.15    0.31
  -3  -1  -5    0.99    0.22
   3   1   5    1.02    0.20
  -4  -1  -5    9.59    0.59
  -4  -1  -5   10.02    0.42
  -4  -1  -5   10.63    0.63
   4   1   5   10.20    0.50
   5   1   5   12.52    0.58
   5   1   5   12.89    0.50
   6   1   5    5.16    0.41
   6   1   5    5.27    0.34
   7   1   5   29.93    1.05
   7   1   5   28.53    1.12
   8   1   5   10.61    0.66
   9   1   5   10.81    0.73
  10   1   5    0.64    0.41
  11   1   5    4.20    0.57
  12   1   5    9.23    0.86
  13   1   5   -0.94    0.59
  14   1   5    1.43    0.69
  15   1   5    5.95    0.85
  16   1   5    0.60    0.87
  17   1   5    2.33    1.01
  17   1   5    1.05    0.66
  18   1   5    0.60    1.13
  18   1   5   -1.08    0.77
  15  -2  -5    0.42    1.48
  14  -2  -5   -2.15    1.24
  13  -2  -5    4.82    1.14
  12  -2  -5    4.68    0.97
  11  -2  -5    7.33    1.14
  10  -2  -5   39.65    1.74
   9  -2  -5    1.54    0.61
   8  -2  -5    0.06    0.50
   7  -2  -5    0.71    0.44
   6  -2  -5   11.17    0.78
   5  -2  -5    4.01    0.54
   4  -2  -5   17.69    0.85
   3  -2  -5    2.29    0.40
   1  -2  -5  224.30    6.97
   0  -2  -5  184.19    5.78
  -1  -2  -5  173.73    5.46
  -2  -2  -5    1.65    0.24
  -2  -2  -5    1.29    0.27
  -2  -2  -5    2.17    0.27
   2   2   5    1.52    0.24
  -3  -2  -5    0.67    0.26
  -3  -2  -5    0.50    0.13
   3   2   5    0.50    0.16
   3   2   5    0.56    0.19
  -4  -2  -5    0.48    0.29
  -4  -2  -5    0.66    0.14
   4   2   5    0.98    0.15
   4   2   5    0.75    0.19
  -5  -2  -5   20.19    0.77
   5   2   5   23.01    0.79
   5   2   5   22.80    0.84
   6   2   5    3.99    0.35
   6   2   5    2.87    0.31
   7   2   5   37.35    1.34
   7   2   5   37.78    1.28
   8   2   5  148.34    4.18
   8   2   5  138.99    4.35
   9   2   5   42.03    1.60
   9   2   5   45.26    1.58
  10   2   5    2.74    0.40
  10   2   5    3.25    0.47
  11   2   5    4.75    0.66
  11   2   5    3.75    0.63
  12   2   5    0.72    0.38
  12   2   5    0.57    0.48
  13   2   5    3.78    0.62
  13   2   5    2.31    0.44
  14   2   5    0.38    0.46
  14   2   5    1.60    0.68
  15   2   5    2.81    0.75
  15   2   5    1.68    0.52
  16   2   5    0.89    0.85
  16   2   5   -0.03    0.59
  17   2   5    1.00    0.68
  17   2   5    0.43    0.96
  18   2   5    2.91    1.08
  19   2   5    0.95    0.87
  19   2   5    1.70    1.24
  15  -3  -5    0.02    1.59
  14  -3  -5   14.87    1.97
  13  -3  -5   13.46    1.77
  12  -3  -5   -0.67    1.06
  11  -3  -5    1.14    0.83
  10  -3  -5    0.07    0.71
   9  -3  -5   -0.13    0.66
   8  -3  -5    4.52    0.84
   7  -3  -5    1.59    0.50
   6  -3  -5   13.58    0.81
   5  -3  -5   40.26    1.56
   4  -3  -5   87.43    2.81
   3  -3  -5    8.55    0.57
   2  -3  -5  119.66    3.63
   1  -3  -5   23.52    1.05
   0  -3  -5    6.52    0.54
  -1  -3  -5    6.80    0.54
  -2  -3  -5    1.80    0.28
  -2  -3  -5    2.10    0.31
  -2  -3  -5    2.19    0.39
  -3  -3  -5   37.62    1.29
  -3  -3  -5   40.97    1.53
   3   3   5   43.54    1.35
   3   3   5   41.14    1.34
  -4  -3  -5   10.36    0.61
  -4  -3  -5    9.74    0.50
   4   3   5   10.23    0.50
   4   3   5    9.78    0.48
   5   3   5   68.21    2.04
   5   3   5   66.53    2.09
   6   3   5    0.82    0.25
   6   3   5    1.03    0.18
   7   3   5  109.08    3.34
   7   3   5  111.16    3.25
   8   3   5   14.65    0.73
   8   3   5   14.35    0.76
   9   3   5   22.31    0.99
   9   3   5   22.39    1.01
  10   3   5    1.86    0.41
  10   3   5    1.45    0.32
  11   3   5    0.11    0.33
  11   3   5   -0.17    0.43
  12   3   5    2.05    0.42
  12   3   5    2.03    0.52
  13   3   5    1.34    0.42
  13   3   5    0.70    0.56
  14   3   5    1.18    0.46
  14   3   5    0.19    0.64
  15   3   5    0.95    0.52
  15   3   5   -0.58    0.73
  16   3   5    3.02    0.85
  17   3   5    7.81    1.33
  17   3   5    8.88    1.26
  18   3   5    0.88    0.76
  18   3   5    0.38    1.05
  19   3   5    0.17    0.89
  19   3   5    0.11    1.20
  15  -4  -5    5.77    1.78
  14  -4  -5    4.17    1.49
  13  -4  -5    1.43    1.32
  12  -4  -5    2.34    1.15
  11  -4  -5    5.07    0.98
  10  -4  -5    0.85    0.81
   9  -4  -5    5.32    0.77
   8  -4  -5    0.04    0.66
   7  -4  -5    2.59    0.57
   6  -4  -5   24.40    1.15
   5  -4  -5   89.70    2.96
   4  -4  -5   50.38    1.83
   3  -4  -5   10.96    0.66
   2  -4  -5    0.70    0.50
   2  -4  -5    0.27    0.28
   1  -4  -5    2.74    0.56
   0  -4  -5    9.96    0.69
  -1  -4  -5   24.23    1.10
  -2  -4  -5   18.02    0.91
  -3  -4  -5    9.70    0.63
   3   4   5   10.16    0.56
  -4  -4  -5  168.18    5.41
   4   4   5  173.42    4.86
  -5  -4  -5   56.64    2.02
   5   4   5   56.99    1.81
   6   4   5   10.95    0.57
   7   4   5    1.46    0.24
   8   4   5   44.97    1.55
   8   4   5   43.64    1.56
   9   4   5    7.92    0.60
   9   4   5    6.86    0.62
  10   4   5    0.86    0.43
  10   4   5    1.21    0.32
  11   4   5    3.83    0.63
  11   4   5    2.88    0.39
  12   4   5    1.28    0.39
  12   4   5    2.27    0.52
  13   4   5   10.25    0.91
  13   4   5   11.34    0.92
  14   4   5   11.86    1.02
  14   4   5   11.03    1.01
  15   4   5    1.98    0.54
  16   4   5    8.57    1.17
  16   4   5   10.73    1.21
  17   4   5    0.10    0.68
  17   4   5    1.64    0.94
  18   4   5    0.90    0.77
  18   4   5    1.25    1.05
  19   4   5    0.21    1.18
  19   4   5    0.52    0.86
  14  -5  -5    8.56    1.68
  13  -5  -5   -1.52    1.39
  12  -5  -5    3.43    1.25
  11  -5  -5    1.23    1.08
  10  -5  -5    1.26    0.89
   9  -5  -5    7.35    1.10
   8  -5  -5   13.52    1.16
   7  -5  -5   -0.17    0.61
   6  -5  -5   36.98    1.53
   5  -5  -5   76.99    2.61
   4  -5  -5   74.66    2.53
   3  -5  -5    2.22    0.41
   2  -5  -5    1.68    0.35
   2  -5  -5    1.87    0.57
   1  -5  -5   71.42    2.58
   0  -5  -5    6.83    0.67
  -1  -5  -5    1.81    0.48
  -2  -5  -5    5.97    0.61
  -3  -5  -5   92.08    3.21
   3   5   5   98.32    2.92
  -4  -5  -5   66.06    2.32
   4   5   5   63.64    2.08
  -5  -5  -5   77.44    2.68
   5   5   5   78.70    2.44
   6   5   5    1.39    0.24
   7   5   5   25.25    1.03
   8   5   5    2.20    0.29
   9   5   5    4.39    0.53
   9   5   5    4.22    0.55
  10   5   5    3.98    0.61
  11   5   5    1.76    0.41
  11   5   5    2.01    0.46
  12   5   5    4.59    0.72
  12   5   5    4.38    0.75
  13   5   5   10.87    0.92
  13   5   5    8.46    0.91
  14   5   5    0.63    0.65
  14   5   5    0.91    0.49
  15   5   5    0.38    0.73
  15   5   5    0.83    0.53
  16   5   5    2.04    0.86
  16   5   5    0.78    0.61
  17   5   5    2.48    0.68
  17   5   5    3.31    0.97
  18   5   5    0.58    0.78
  18   5   5    0.15    1.08
  19   5   5    0.46    0.90
  19   5   5    0.30    1.19
  14  -6  -5   -0.84    1.81
  13  -6  -5   -0.92    1.56
  12  -6  -5   -1.91    1.40
  11  -6  -5   -0.80    1.23
  10  -6  -5    3.25    1.02
   9  -6  -5    6.93    0.93
   8  -6  -5    6.29    1.10
   7  -6  -5    1.18    0.73
   6  -6  -5    6.19    0.87
   5  -6  -5   10.40    0.83
   4  -6  -5    0.36    0.47
   3  -6  -5    0.19    0.74
   2  -6  -5    2.54    0.70
   2  -6  -5    3.33    0.54
   1  -6  -5   12.94    0.96
   0  -6  -5   36.09    1.55
  -1  -6  -5    1.07    0.53
  -2  -6  -5    4.84    0.65
  -3  -6  -5   31.89    1.41
   3   6   5   35.20    1.32
  -4  -6  -5   81.08    2.84
   4   6   5   81.31    2.59
  -5  -6  -5   28.58    1.28
   5   6   5   29.73    1.15
   6   6   5    0.53    0.23
   7   6   5   11.18    0.65
   8   6   5   -0.08    0.26
   9   6   5    0.78    0.30
  10   6   5    1.09    0.37
  11   6   5    1.64    0.36
  12   6   5   11.44    0.89
  13   6   5   16.36    1.08
  14   6   5   16.20    1.16
  14   6   5   15.40    1.12
  15   6   5    0.52    0.57
  16   6   5   -0.35    0.63
  17   6   5    0.04    0.70
  17   6   5    1.71    0.96
  18   6   5    0.07    1.04
  18   6   5   -0.51    0.79
  19   6   5   -1.68    0.89
  19   6   5   -0.11    1.16
  13  -7  -5    2.16    1.74
  12  -7  -5   -1.99    1.46
  11  -7  -5    1.84    1.33
  10  -7  -5    1.57    1.20
   9  -7  -5   50.10    2.20
   8  -7  -5   33.69    1.69
   7  -7  -5    5.93    0.82
   6  -7  -5   -1.13    0.70
   4  -7  -5   21.42    1.08
   3  -7  -5   -0.34    0.85
   2  -7  -5    4.77    0.97
   1  -7  -5   26.90    1.43
   0  -7  -5   59.20    2.33
  -1  -7  -5  249.62    7.96
  -2  -7  -5    1.62    0.53
  -3  -7  -5   35.75    1.56
   3   7   5   37.00    1.43
  -4  -7  -5   -0.39    0.50
   4   7   5    0.26    0.28
  -5  -7  -5    6.33    0.74
   5   7   5    7.22    0.56
  -6  -7  -5    1.96    0.55
   7   7   5    0.72    0.28
   8   7   5    1.62    0.30
   9   7   5   20.41    1.04
  10   7   5    9.62    0.74
  11   7   5    1.34    0.40
  12   7   5    2.83    0.44
  13   7   5   14.32    1.04
  14   7   5   -0.05    0.52
  15   7   5    0.70    0.60
  16   7   5   -0.23    0.66
  17   7   5    0.54    0.74
  18   7   5   -0.73    0.82
  18   7   5   -0.46    1.11
  19   7   5   -0.53    0.92
  12  -8  -5   11.60    2.27
  11  -8  -5   -2.03    1.48
  10  -8  -5   10.78    1.92
   9  -8  -5    4.88    1.15
   3  -8  -5    0.50    0.89
   2  -8  -5    2.57    0.86
   1  -8  -5    7.98    1.07
   0  -8  -5  166.20    5.59
  -1  -8  -5   49.68    2.12
  -2  -8  -5    4.21    0.72
  -3  -8  -5    9.33    0.88
  -4  -8  -5   21.17    1.17
   4   8   5   21.93    1.04
  -5  -8  -5   40.62    1.72
   5   8   5   41.21    1.59
  -6  -8  -5   16.40    1.02
   6   8   5   16.35    0.88
  -7  -8  -5    7.76    0.86
   7   8   5    8.27    0.69
   8   8   5   26.22    1.21
   9   8   5   68.28    2.36
  10   8   5   10.88    0.79
  11   8   5    5.55    0.74
  12   8   5   12.49    0.95
  13   8   5    0.50    0.50
  14   8   5    1.58    0.55
  15   8   5   -0.03    0.61
  16   8   5    0.12    0.69
  17   8   5    0.24    0.76
  18   8   5    2.79    0.88
  19   8   5    0.36    0.96
  11  -9  -5   -0.17    1.66
  10  -9  -5   -0.31    1.50
   9  -9  -5   10.63    1.90
   8  -9  -5    2.47    1.15
   3  -9  -5   26.14    1.57
   2  -9  -5    1.88    0.91
   1  -9  -5   20.61    1.34
   0  -9  -5   16.11    1.21
  -1  -9  -5   17.90    1.17
  -2  -9  -5    1.67    0.70
  -3  -9  -5    7.47    0.90
  -4  -9  -5   46.86    2.00
   4   9   5   46.06    1.81
   5   9   5    2.52    0.43
  -6  -9  -5   34.95    1.53
   6   9   5   27.50    1.31
  -7  -9  -5   39.38    1.73
   7   9   5   38.11    1.54
   8   9   5   15.43    0.88
   9   9   5   29.72    1.30
  10   9   5   28.86    1.32
  11   9   5    0.63    0.43
  12   9   5    0.32    0.46
  13   9   5    0.21    0.51
  14   9   5   -0.02    0.58
  15   9   5    0.85    0.67
  16   9   5    0.14    0.73
  17   9   5    2.58    0.81
  18   9   5    1.12    0.91
  19   9   5   -1.04    1.01
  11 -10  -5    2.33    1.88
   4 -10  -5   74.25    3.10
   3 -10  -5   24.00    1.69
   2 -10  -5    5.37    1.03
   1 -10  -5   10.57    1.24
   0 -10  -5    7.21    1.13
  -1 -10  -5    8.70    1.10
  -2 -10  -5    0.66    0.80
  -3 -10  -5    0.63    0.76
  -4 -10  -5   18.13    1.17
   4  10   5   15.99    0.96
  -5 -10  -5   11.91    1.00
   5  10   5   11.32    0.83
  -6 -10  -5    4.69    0.86
   6  10   5    2.68    0.40
  -7 -10  -5   22.30    1.27
   7  10   5   20.90    1.08
   8  10   5    6.24    0.72
   9  10   5    9.72    0.77
  10  10   5    0.77    0.41
  11  10   5    2.29    0.45
  12  10   5    2.07    0.50
  13  10   5   -0.82    0.56
  14  10   5    0.63    0.62
  15  10   5    1.21    0.70
  16  10   5    0.80    0.77
  17  10   5   -0.89    0.87
  18  10   5    1.76    0.97
  19  10   5   -0.23    1.08
   4 -11  -5   21.33    1.97
   3 -11  -5   39.66    2.19
   2 -11  -5    1.99    1.28
   1 -11  -5    1.46    1.08
   0 -11  -5   13.80    1.33
  -1 -11  -5    1.71    0.94
  -2 -11  -5   -0.19    0.88
  -3 -11  -5    6.83    1.07
  -4 -11  -5    5.75    1.04
  -5 -11  -5   60.32    2.42
   5  11   5   56.66    2.20
  -6 -11  -5   33.72    1.65
   6  11   5   33.32    1.47
   7  11   5    2.36    0.43
  -8 -11  -5    2.81    0.84
   8  11   5    1.73    0.45
   9  11   5    8.26    0.86
  10  11   5   -0.34    0.45
  11  11   5    1.79    0.48
  12  11   5    0.30    0.52
  13  11   5   -0.42    0.58
  14  11   5    6.98    1.17
  15  11   5    2.64    0.75
  16  11   5   -1.22    0.82
  17  11   5    0.29    0.93
  18  11   5    0.43    1.02
  19  11   5    0.12    1.14
   5 -12  -5    8.72    1.97
   4 -12  -5   15.46    2.18
   3 -12  -5    3.88    1.63
   2 -12  -5    0.06    1.42
   1 -12  -5    0.84    1.37
   0 -12  -5    1.07    1.20
  -1 -12  -5    1.95    1.07
  -2 -12  -5    2.63    1.00
  -3 -12  -5    6.92    1.18
  -4 -12  -5   16.23    1.31
  -5 -12  -5   73.11    2.94
   5  12   5   75.84    2.73
  -6 -12  -5    6.39    0.95
   6  12   5    6.22    0.82
  -7 -12  -5    4.40    0.93
   7  12   5    4.59    0.79
  -8 -12  -5    1.57    0.90
   8  12   5   -0.03    0.47
   9  12   5    0.29    0.46
  10  12   5    3.76    0.53
  11  12   5    0.43    0.51
  12  12   5   -0.34    0.56
  13  12   5    2.80    0.65
  14  12   5    4.20    0.72
  15  12   5    1.36    0.77
  16  12   5    0.87    0.87
  17  12   5    1.22    0.98
  18  12   5    0.47    1.09
   5 -13  -5    1.29    2.22
   4 -13  -5    1.08    2.04
   3 -13  -5   -0.80    1.90
   2 -13  -5    4.33    1.73
   1 -13  -5    0.31    1.52
   0 -13  -5    3.69    1.44
  -1 -13  -5   28.74    1.95
  -2 -13  -5   31.07    1.89
  -3 -13  -5    2.18    1.10
  -4 -13  -5    1.85    1.04
  -5 -13  -5    4.22    1.01
  -6 -13  -5    3.74    0.99
   6  13   5    1.71    0.55
  -7 -13  -5   13.89    1.29
   7  13   5   13.20    0.99
  -8 -13  -5    3.48    0.98
  -9 -13  -5    1.21    1.00
   9  13   5   -0.05    0.54
  10  13   5    0.84    0.54
  11  13   5   -0.33    0.57
  12  13   5   -0.06    0.61
  13  13   5    2.64    0.68
  14  13   5    2.07    0.73
  15  13   5   -0.04    0.81
  16  13   5   -0.43    0.90
  17  13   5   -0.68    1.01
  18  13   5   -0.39    1.11
   4 -14  -5    0.46    2.39
   3 -14  -5    0.71    2.18
   2 -14  -5    0.20    2.02
   1 -14  -5    0.97    1.83
   0 -14  -5   17.49    2.04
  -1 -14  -5   10.50    1.77
  -2 -14  -5    8.95    1.70
  -3 -14  -5   11.01    1.67
  -4 -14  -5    8.23    1.35
  -5 -14  -5    2.07    1.22
  -6 -14  -5    9.63    1.43
   6  14   5    8.37    1.04
  -7 -14  -5    3.28    1.16
  -8 -14  -5    0.49    1.17
   8  14   5    0.77    0.58
  -9 -14  -5   10.02    1.44
   9  14   5    6.56    1.01
  10  14   5    2.85    0.62
  11  14   5    3.87    0.66
  12  14   5   -0.44    0.67
  13  14   5   -0.38    0.72
  14  14   5   -0.62    0.78
  15  14   5   -1.47    0.85
  16  14   5   -0.62    0.94
  17  14   5   -1.22    1.07
   5 -15  -5    1.72    2.79
   4 -15  -5    6.03    2.68
   3 -15  -5   -0.18    2.51
   2 -15  -5    5.38    2.34
   1 -15  -5   -3.36    2.17
   0 -15  -5    4.12    2.02
  -1 -15  -5   19.61    2.25
  -2 -15  -5   10.05    1.93
  -3 -15  -5    1.08    1.53
  -4 -15  -5    2.08    1.44
  -5 -15  -5    9.43    1.66
  -6 -15  -5    2.14    1.34
  -7 -15  -5    2.04    1.39
   7  15   5    1.16    0.68
  -8 -15  -5    3.03    1.37
   8  15   5    0.56    0.67
  -9 -15  -5    2.58    1.39
   9  15   5    1.59    0.65
 -10 -15  -5   22.36    1.92
  10  15   5   17.16    1.34
  11  15   5    0.61    0.70
  12  15   5    0.19    0.72
  13  15   5   -0.18    0.79
  14  15   5   -1.29    0.86
  15  15   5   -0.32    0.92
  16  15   5   -1.37    1.02
  17  15   5   -1.53    1.11
   4 -16  -5    3.26    2.94
   3 -16  -5    8.77    2.82
   2 -16  -5    9.76    2.72
   1 -16  -5    2.14    2.51
   0 -16  -5    2.00    2.34
  -1 -16  -5   -1.00    2.18
  -2 -16  -5    0.61    2.01
  -3 -16  -5    0.95    1.84
  -4 -16  -5   -0.05    1.76
  -5 -16  -5    3.04    1.65
  -6 -16  -5    2.00    1.60
  -7 -16  -5    7.58    1.60
   7  16   5    4.23    0.79
  -8 -16  -5    1.02    1.58
   8  16   5    0.92    0.76
  -9 -16  -5   12.93    1.98
   9  16   5   11.40    1.31
  10  16   5    2.05    0.73
  11  16   5   -1.09    0.75
  12  16   5   -0.48    0.82
  13  16   5   -0.96    0.84
  14  16   5   -1.10    0.92
  15  16   5   -1.27    1.00
  16  16   5   -1.35    1.10
   2 -17  -5    9.89    3.05
   1 -17  -5    2.08    2.91
   0 -17  -5    2.49    2.77
  -1 -17  -5    5.04    2.55
  -2 -17  -5    0.42    2.35
  -3 -17  -5    0.89    2.20
  -4 -17  -5    2.02    2.12
  -5 -17  -5   -0.07    2.01
  -6 -17  -5   16.93    2.36
  -7 -17  -5    6.15    1.94
  -8 -17  -5    1.86    1.93
   8  17   5    0.24    0.86
  -9 -17  -5    3.08    1.92
   9  17   5    1.95    0.83
 -10 -17  -5   -1.00    1.99
  10  17   5   -0.27    0.83
  11  17   5    0.15    0.83
  12  17   5   -0.39    0.87
  13  17   5   -0.86    0.95
  14  17   5   -0.75    0.99
  15  17   5   -0.27    1.06
   0 -18  -5    4.26    3.20
  -1 -18  -5   -2.89    2.92
  -2 -18  -5    4.29    2.74
  -3 -18  -5    3.56    2.55
  -4 -18  -5    2.24    2.45
  -5 -18  -5    9.56    2.40
  -6 -18  -5    3.66    2.33
  -7 -18  -5    5.35    2.25
  -8 -18  -5    0.36    2.20
  -9 -18  -5    0.51    2.18
   9  18   5    0.70    0.98
 -10 -18  -5    2.16    2.18
  10  18   5    2.30    0.95
  11  18   5   -0.24    0.95
  12  18   5    1.27    0.97
  13  18   5    1.18    1.03
  -3 -19  -5    3.65    2.97
  -4 -19  -5    2.05    2.94
  -5 -19  -5    0.75    2.68
  -6 -19  -5    7.54    2.59
  -7 -19  -5   -0.12    2.52
  -8 -19  -5    2.22    2.50
  -9 -19  -5    2.92    2.46
 -10 -19  -5   -2.11    2.50
  10  19   5    0.13    1.11
 -11 -19  -5   -0.20    2.56
  11  19   5    2.33    1.09
   7  19  -6    0.39    1.15
  -7 -19   6   -1.54    2.63
   6  19  -6   -0.01    1.20
  -6 -19   6    1.32    2.67
   5  19  -6    0.81    1.23
  -5 -19   6    0.58    2.77
   4  19  -6   -0.25    1.31
  -4 -19   6    0.46    2.90
  -3 -19   6    3.81    2.94
  10  18  -6   -2.11    1.11
   9  18  -6   -1.35    1.06
   8  18  -6   -1.11    1.03
  -8 -18   6    1.68    2.44
   7  18  -6    0.31    1.04
  -7 -18   6    0.80    2.36
   6  18  -6    0.65    1.03
  -6 -18   6   -1.12    2.41
   5  18  -6    0.38    1.08
  -5 -18   6    2.04    2.41
   4  18  -6    2.68    1.12
  -4 -18   6    0.27    2.46
  -3 -18   6    3.39    2.59
  -2 -18   6    1.82    2.71
  -1 -18   6   -1.36    2.79
   0 -18   6   -0.18    2.88
   1 -18   6   -0.39    3.04
  12  17  -6    2.04    1.13
  11  17  -6   -1.15    1.05
  10  17  -6    0.79    0.98
   9  17  -6   -0.25    0.95
   8  17  -6   -0.73    0.92
   7  17  -6   -0.49    0.90
  -7 -17   6   -1.44    2.13
   6  17  -6    0.26    0.94
  -6 -17   6    5.37    2.14
   5  17  -6    0.86    0.91
  -5 -17   6    0.90    2.17
   4  17  -6    1.66    0.97
  -4 -17   6    2.25    2.16
   3  17  -6    0.97    1.03
  -3 -17   6    0.20    2.21
  -2 -17   6   -1.56    2.31
  -1 -17   6    1.18    2.37
   0 -17   6    1.23    2.52
   1 -17   6    1.76    2.64
   2 -17   6   -0.54    2.87
   3 -17   6    0.11    3.06
   4 -17   6    1.28    3.24
  13  16  -6    0.69    1.13
  12  16  -6    0.09    1.01
  11  16  -6    0.41    0.95
  10  16  -6   -0.38    0.90
   9  16  -6   -0.04    0.83
   8  16  -6    0.17    0.82
   7  16  -6    0.54    0.80
  -7 -16   6    4.76    1.96
   6  16  -6   -0.24    0.80
  -6 -16   6    0.41    1.89
   5  16  -6    0.08    0.84
  -5 -16   6    3.61    1.88
   4  16  -6    2.50    0.83
  -4 -16   6    0.98    1.89
   3  16  -6    4.27    0.90
  -3 -16   6    6.05    1.93
   2  16  -6   -0.60    0.92
  -2 -16   6    0.29    2.00
  -1 -16   6    1.54    2.06
   0 -16   6    3.59    2.15
   1 -16   6    4.90    2.30
   2 -16   6    2.58    2.44
   3 -16   6    1.36    2.61
   4 -16   6   -1.30    2.74
   5 -16   6    3.95    2.95
  14  15  -6   -0.61    1.13
  13  15  -6    0.39    1.04
  12  15  -6   -1.07    0.96
  11  15  -6   -0.10    0.87
  10  15  -6    2.08    0.80
   9  15  -6    0.44    0.76
   8  15  -6    1.01    0.74
   7  15  -6   -0.85    0.72
  -7 -15   6   -0.65    1.76
  -6 -15   6    4.87    1.73
   5  15  -6   -0.03    0.70
  -5 -15   6    1.23    1.69
   4  15  -6   -1.00    0.74
  -4 -15   6   -0.18    1.67
   3  15  -6    0.23    0.76
  -3 -15   6    1.43    1.69
   2  15  -6    1.96    0.80
  -2 -15   6    0.97    1.71
  -1 -15   6    9.49    1.82
   0 -15   6   -1.07    1.85
   1 -15   6    0.23    1.98
   2 -15   6    0.47    2.09
   3 -15   6    4.81    2.26
   4 -15   6   -0.34    2.42
   5 -15   6    3.33    2.58
   6 -15   6    0.12    2.82
   7 -15   6   -2.98    2.85
  15  14  -6    0.39    1.15
  14  14  -6   -1.57    1.06
  13  14  -6    0.79    0.98
  12  14  -6    0.10    0.88
  11  14  -6   -0.21    0.80
  10  14  -6   -0.11    0.74
   9  14  -6    4.25    0.72
   8  14  -6    0.92    0.65
   7  14  -6    1.44    0.64
   6  14  -6    0.96    0.63
  -6 -14   6    1.01    1.54
  -5 -14   6    3.51    1.50
   4  14  -6    3.46    0.65
  -4 -14   6    6.16    1.52
   3  14  -6   -0.07    0.68
  -3 -14   6    1.06    1.45
   2  14  -6    0.35    0.70
  -2 -14   6    1.38    1.48
   1  14  -6    3.40    0.76
  -1 -14   6    3.20    1.52
   0 -14   6   11.84    1.90
   1 -14   6   -0.35    1.69
   2 -14   6   16.09    2.18
   3 -14   6    2.34    1.94
   4 -14   6   -1.97    2.08
   5 -14   6   -0.73    2.23
   6 -14   6    0.21    2.41
   7 -14   6   -3.36    2.55
   8 -14   6    1.75    2.77
  15  13  -6   -0.51    1.04
  14  13  -6    0.10    0.95
  13  13  -6    0.19    0.88
  12  13  -6   -0.70    0.81
  11  13  -6   -0.35    0.76
  10  13  -6    7.02    1.21
   9  13  -6    2.21    0.63
   8  13  -6    0.05    0.58
   7  13  -6    0.57    0.55
  -6 -13   6    4.32    1.42
  -5 -13   6    2.22    1.34
   4  13  -6    2.15    0.57
  -4 -13   6    4.95    1.33
   3  13  -6   -0.06    0.57
  -3 -13   6    1.79    1.28
   2  13  -6    0.45    0.60
  -2 -13   6    1.84    1.26
   1  13  -6   37.77    1.63
  -1 -13   6   35.80    2.16
   0 -13   6    0.56    1.35
   1 -13   6    0.83    1.42
   2 -13   6   -1.15    1.54
   3 -13   6    9.53    1.72
   4 -13   6   -0.55    1.78
   5 -13   6   -1.64    1.93
   6 -13   6    1.43    2.10
   7 -13   6    1.91    2.27
   8 -13   6    0.70    2.38
   9 -13   6    3.51    2.62
  16  12  -6   -0.49    1.04
  15  12  -6   -0.52    0.96
  14  12  -6    0.51    0.88
  13  12  -6   -0.56    0.81
  12  12  -6    0.19    0.75
  11  12  -6    1.71    0.68
  10  12  -6    1.24    0.62
   9  12  -6   -0.21    0.58
   8  12  -6    0.37    0.54
   7  12  -6    0.78    0.51
   6  12  -6    0.70    0.48
  -6 -12   6    1.91    1.25
   5  12  -6    0.52    0.47
  -5 -12   6    1.27    1.21
   4  12  -6    4.98    0.82
  -4 -12   6    5.13    1.20
   3  12  -6   -0.49    0.50
  -3 -12   6    0.30    1.15
   2  12  -6    2.68    0.55
  -2 -12   6    5.30    1.16
   1  12  -6    0.91    0.55
  -1 -12   6    0.57    1.13
   0  12  -6    5.78    0.97
   0 -12   6    6.98    1.24
   1 -12   6   -1.13    1.22
   2 -12   6    0.57    1.33
   3 -12   6    0.32    1.41
   4 -12   6    0.34    1.54
   5 -12   6    8.78    1.72
   6 -12   6    3.00    1.88
   7 -12   6    1.79    1.98
   8 -12   6    1.72    2.07
  16  11  -6    0.03    1.09
  15  11  -6    0.58    0.99
  14  11  -6    0.51    0.89
  13  11  -6    0.91    0.80
  12  11  -6    0.26    0.68
  11  11  -6    0.00    0.62
  10  11  -6   -0.32    0.58
   9  11  -6    1.29    0.54
   8  11  -6    0.93    0.48
   7  11  -6    2.40    0.49
   6  11  -6    1.10    0.45
  -6 -11   6    1.90    1.16
   5  11  -6   14.08    0.93
  -5 -11   6   17.07    1.50
   4  11  -6    1.21    0.41
  -4 -11   6    2.38    1.07
   3  11  -6    0.65    0.42
  -3 -11   6    0.08    1.02
   2  11  -6    0.85    0.45
  -2 -11   6    1.44    1.02
   1  11  -6   29.67    1.41
  -1 -11   6   27.24    1.73
   0  11  -6    0.87    0.61
   0 -11   6   -0.07    1.02
   1 -11   6    1.18    1.07
   2 -11   6    0.07    1.12
   3 -11   6    1.29    1.23
   4 -11   6   -2.06    1.33
   5 -11   6    0.53    1.45
   6 -11   6    1.28    1.60
   7 -11   6    5.13    1.76
   8 -11   6    2.75    1.81
  16  10  -6   -0.13    1.03
  15  10  -6   -0.15    0.91
  14  10  -6    3.25    0.83
  13  10  -6    2.33    0.76
  12  10  -6    0.24    0.64
  11  10  -6    0.89    0.60
  10  10  -6   -0.56    0.55
   9  10  -6    2.17    0.49
   8  10  -6    1.96    0.47
   7  10  -6    0.83    0.42
   6  10  -6    5.89    0.72
   5  10  -6    7.46    0.73
  -5 -10   6   10.36    1.31
   4  10  -6   29.77    1.30
  -4 -10   6   29.87    1.71
   3  10  -6    5.20    0.76
  -3 -10   6    6.50    1.01
   2  10  -6   41.25    1.69
  -2 -10   6   41.00    2.00
   1  10  -6    7.16    0.81
   0  10  -6    0.26    0.46
   0 -10   6   -0.19    0.92
  -1  10  -6    8.92    0.87
   1 -10   6    6.12    1.21
   2 -10   6   -0.34    0.98
   3 -10   6    3.07    1.09
   4 -10   6   19.38    1.62
   5 -10   6    8.39    1.33
   6 -10   6   -1.42    1.39
   7 -10   6   14.40    1.84
  16   9  -6   -0.77    0.84
  15   9  -6    1.14    0.76
  14   9  -6   -0.04    0.69
  13   9  -6   -0.02    0.63
  12   9  -6    1.75    0.59
  11   9  -6    0.08    0.54
  10   9  -6    1.67    0.51
   9   9  -6    0.15    0.45
   8   9  -6    0.39    0.42
   7   9  -6    0.81    0.38
   6   9  -6    6.37    0.69
   5   9  -6   60.24    2.14
   4   9  -6    4.03    0.65
  -4  -9   6    4.50    1.01
   3   9  -6    2.47    0.39
  -3  -9   6    2.78    0.94
   2   9  -6   15.85    0.90
  -2  -9   6   15.73    1.25
   1   9  -6    7.80    0.71
  -1  -9   6    5.48    1.05
   0   9  -6    0.00    0.38
   0  -9   6    0.55    0.81
  -1   9  -6    4.96    0.74
   1  -9   6    5.45    1.07
   2  -9   6   22.40    1.45
   3  -9   6    7.00    1.21
   4  -9   6   27.35    1.66
   5  -9   6    3.88    1.13
   6  -9   6    1.59    1.22
   7  -9   6    0.81    1.29
  17   8  -6    0.30    0.90
  16   8  -6    0.02    0.80
  15   8  -6    0.97    0.73
  14   8  -6    0.84    0.69
  13   8  -6    0.80    0.62
  12   8  -6    1.90    0.56
  11   8  -6    1.25    0.51
  10   8  -6    1.04    0.46
   9   8  -6   16.05    1.02
   8   8  -6   19.16    1.07
   7   8  -6    0.82    0.37
   6   8  -6   31.36    1.34
   5   8  -6    4.72    0.63
   4   8  -6   17.69    0.90
  -4  -8   6   15.83    1.30
   3   8  -6    0.42    0.31
  -3  -8   6    0.43    0.82
   2   8  -6   17.68    0.91
  -2  -8   6   19.30    1.32
   1   8  -6    9.08    0.64
  -1  -8   6    7.14    1.08
   0   8  -6    6.29    0.64
   0  -8   6    7.70    1.07
  -1   8  -6   48.87    1.62
   1  -8   6   36.96    1.93
   2  -8   6    7.48    1.05
   3  -8   6   11.91    1.17
   4  -8   6   18.55    1.38
   5  -8   6    6.55    1.23
   6  -8   6   -0.09    1.05
   7  -8   6   -0.14    1.16
   8  -8   6    4.77    1.29
  12  -8   6    4.57    0.99
  13  -8   6    2.88    1.12
  14  -8   6    0.38    1.30
  17   7  -6   -0.41    0.87
  16   7  -6   -0.11    0.78
  15   7  -6    0.69    0.70
  14   7  -6    0.41    0.63
  13   7  -6   -0.12    0.57
  12   7  -6    1.47    0.52
  11   7  -6    0.27    0.47
  10   7  -6    2.94    0.46
   9   7  -6   24.47    1.25
   8   7  -6   37.01    1.60
   7   7  -6   -0.03    0.33
   6   7  -6    1.08    0.30
   5   7  -6    8.49    0.66
   4   7  -6    7.43    0.60
  -4  -7   6    6.93    0.93
   3   7  -6    9.24    0.63
  -3  -7   6   11.32    1.03
   2   7  -6   18.89    0.88
  -2  -7   6   18.95    1.24
   1   7  -6   43.98    1.56
  -1  -7   6   45.46    1.98
   0   7  -6   40.10    1.47
   0  -7   6   43.59    1.92
  -1   7  -6    1.11    0.31
   1  -7   6    1.70    0.74
   2  -7   6   32.75    1.71
   3  -7   6   21.25    1.39
   4  -7   6   16.22    1.26
   5  -7   6    1.68    0.87
   6  -7   6    0.41    0.94
  10  -7   6    1.27    0.67
  11  -7   6    0.55    0.76
  12  -7   6    2.50    0.89
  13  -7   6    0.08    1.01
  14  -7   6    1.55    1.17
  15  -7   6    0.52    1.34
  17   6  -6   -1.54    1.34
   6   6  -6    0.55    0.30
   5   6  -6    4.81    0.55
   4   6  -6    0.06    0.23
   3   6  -6   19.77    0.87
  -3  -6   6   19.53    1.19
   2   6  -6   31.65    1.20
  -2  -6   6   32.50    1.52
   1   6  -6    8.34    0.56
  -1  -6   6    8.54    0.89
   0   6  -6   69.15    2.16
   0  -6   6   70.42    2.66
  -1   6  -6  126.47    3.69
   1  -6   6  129.22    4.41
  -2   6  -6    7.23    0.52
   2  -6   6    8.40    0.91
   3  -6   6    5.90    0.89
   4  -6   6   20.06    1.28
   5  -6   6   10.52    1.04
   6  -6   6    5.07    0.98
   7  -6   6   12.16    0.74
   7  -6   6   12.54    1.28
   8  -6   6    0.55    0.46
   9  -6   6    5.11    0.74
  10  -6   6   -0.23    0.60
  11  -6   6   -0.21    0.70
  12  -6   6    1.56    0.80
  13  -6   6    2.13    0.93
  14  -6   6   -1.50    1.05
  15  -6   6    0.27    1.19
  17   5  -6   -1.30    1.42
  14   5  -6   -0.75    1.04
   3   5  -6   36.22    1.33
   2   5  -6   14.36    0.67
  -2  -5   6   14.40    0.96
   1   5  -6   56.75    1.81
  -1  -5   6   57.92    2.24
   0   5  -6  158.06    4.42
   0  -5   6  154.53    5.18
  -1   5  -6    5.18    0.39
   1  -5   6    3.48    0.70
   1  -5   6    3.73    0.36
   2  -5   6    1.24    0.55
   3  -5   6    1.05    0.58
   4  -5   6    2.23    0.63
   5  -5   6   11.82    1.05
   6  -5   6    8.26    1.02
   6  -5   6    8.63    0.64
   8  -5   6   62.95    2.15
   9  -5   6   57.63    2.06
  10  -5   6   -0.08    0.54
  11  -5   6    1.69    0.64
  12  -5   6    2.76    0.76
  13  -5   6   -0.18    0.84
  14  -5   6    1.25    0.98
  15  -5   6    0.37    1.10
  16  -5   6    0.37    1.29
  16   4  -6    1.16    1.32
  15   4  -6   -0.42    1.17
  14   4  -6    3.70    1.08
  13   4  -6   19.39    1.59
  12   4  -6   13.90    1.19
  11   4  -6    2.25    0.64
  10   4  -6    2.56    0.61
   9   4  -6    1.11    0.49
  -2  -4   6    1.67    0.50
   1   4  -6    4.31    0.33
  -1  -4   6    4.44    0.67
   0   4  -6    7.24    0.40
   0  -4   6    7.57    0.69
  -1   4  -6    3.78    0.30
   1  -4   6    4.52    0.62
   2  -4   6   23.30    1.18
   3  -4   6    1.87    0.54
   4  -4   6   17.29    1.03
   5  -4   6   16.67    1.06
   6  -4   6   46.14    1.94
   6  -4   6   45.66    1.62
   7  -4   6   23.44    1.03
   8  -4   6    3.11    0.42
   9  -4   6    4.01    0.63
  10  -4   6    1.13    0.50
  11  -4   6    0.40    0.57
  12  -4   6    0.15    0.67
  13  -4   6   -0.17    0.77
  14  -4   6   -0.56    0.90
  15  -4   6    2.52    1.05
  16  -4   6   -0.09    1.16
  17  -4   6    8.23    1.38
  16   3  -6    9.77    1.44
  15   3  -6   -2.04    1.19
  14   3  -6    2.46    1.09
  13   3  -6    3.15    0.96
  12   3  -6    3.42    0.77
  11   3  -6    0.83    0.63
  10   3  -6    1.58    0.60
   9   3  -6    6.01    0.77
   8   3  -6    1.32    0.44
   7   3  -6    9.05    0.72
  -1  -3   6    4.43    0.58
   0  -3   6    2.66    0.49
   1  -3   6    0.53    0.44
   2  -3   6    3.58    0.56
   3  -3   6    7.67    0.67
   3  -3   6    6.30    0.43
   4  -3   6   52.14    2.00
   4  -3   6   51.18    1.70
   5  -3   6   98.15    3.37
   5  -3   6   95.70    2.98
   6  -3   6   29.02    1.14
   7  -3   6   17.99    0.86
   8  -3   6   14.35    0.77
   9  -3   6    2.37    0.43
  10  -3   6    0.55    0.46
  11  -3   6    0.85    0.53
  12  -3   6    1.79    0.62
  13  -3   6    1.06    0.72
  14  -3   6    9.44    1.17
  15  -3   6   -0.20    0.95
  16  -3   6    0.76    1.09
  17  -3   6    0.97    1.26
  16   2  -6    1.21    1.44
  15   2  -6    5.95    1.27
  14   2  -6    1.39    1.11
  13   2  -6    9.52    1.47
  12   2  -6    0.43    0.76
  11   2  -6   -0.22    0.65
  10   2  -6    3.23    0.63
   9   2  -6    7.16    0.79
   8   2  -6    2.00    0.47
   7   2  -6   53.01    1.93
   6   2  -6    7.58    0.66
   5   2  -6   12.99    0.74
   4   2  -6   60.24    2.00
  -1  -2   6   15.86    0.82
   0  -2   6   47.86    1.78
   1  -2   6    4.65    0.52
   2  -2   6    3.03    0.33
   2  -2   6    3.78    0.50
   3  -2   6    5.00    0.37
   3  -2   6    4.80    0.57
   4  -2   6   10.92    0.75
   4  -2   6   10.59    0.56
   5  -2   6  106.38    3.24
   5  -2   6  106.99    3.62
   6  -2   6    6.64    0.52
   7  -2   6   21.96    0.96
   8  -2   6    0.16    0.33
   9  -2   6    1.47    0.40
  10  -2   6    1.04    0.44
  11  -2   6    3.21    0.53
  12  -2   6    1.08    0.57
  13  -2   6   10.24    1.03
  14  -2   6    1.40    0.78
  15  -2   6   -0.77    0.89
  16  -2   6   -0.40    1.02
  17  -2   6    3.22    1.16
  16   1  -6    4.86    1.54
  14   1  -6    1.00    1.16
  13   1  -6    1.27    1.01
  12   1  -6   -0.84    0.79
  11   1  -6   -0.23    0.67
  10   1  -6    3.10    0.65
   9   1  -6    0.24    0.52
   8   1  -6   43.21    1.69
   7   1  -6   53.20    1.93
   6   1  -6    2.34    0.44
   5   1  -6    3.45    0.50
   4   1  -6    5.73    0.49
  -1  -1   6  181.13    5.70
   0  -1   6   33.19    1.32
   1  -1   6   75.62    2.59
   2  -1   6   92.14    2.80
   2  -1   6   94.22    3.14
   3  -1   6   17.00    0.86
   3  -1   6   18.44    0.72
   4  -1   6  105.99    3.18
   4  -1   6  105.06    3.51
   5  -1   6   34.98    1.24
   5  -1   6   34.90    1.42
   6  -1   6    0.39    0.25
   7  -1   6   21.48    0.93
   8  -1   6    0.43    0.32
   9  -1   6    0.47    0.36
  10  -1   6    3.43    0.60
  11  -1   6    5.85    0.72
  12  -1   6    7.38    0.84
  13  -1   6    5.96    0.91
  14  -1   6   11.03    1.09
  15  -1   6   -0.51    0.84
  16  -1   6    2.74    0.96
  17  -1   6    1.57    1.08
  18  -1   6    1.35    1.26
  16   0  -6   -0.16    1.58
  14   0  -6   -0.16    1.23
  13   0  -6    2.02    1.07
  12   0  -6   -0.36    0.83
  11   0  -6    4.54    0.76
  10   0  -6   11.44    1.06
   9   0  -6   18.55    1.09
   8   0  -6   46.25    1.78
   7   0  -6   24.08    1.12
   6   0  -6    2.31    0.44
   5   0  -6    1.37    0.36
   4   0  -6    5.48    0.51
   1   0  -6   70.94    2.49
   1   0  -6   72.63    1.75
   0   0  -6   21.14    0.69
   0   0  -6   20.86    0.98
   2   0   6  294.80    8.28
   2   0   6  286.41    8.96
   3   0   6   17.21    0.84
   3   0   6   17.60    0.71
   4   0   6    2.51    0.31
   4   0   6    2.31    0.42
   5   0   6    0.78    0.34
   5   0   6    0.78    0.24
   6   0   6    2.39    0.37
   7   0   6   56.35    1.91
   8   0   6    1.41    0.34
   9   0   6    3.77    0.52
  10   0   6   51.06    1.85
  11   0   6    1.38    0.46
  12   0   6    2.26    0.55
  13   0   6    4.08    0.65
  14   0   6   -0.72    0.69
  15   0   6   -0.27    0.80
  16   0   6    0.96    0.90
  17   0   6    0.39    0.68
  17   0   6    1.62    1.04
  18   0   6   -0.28    1.20
  15  -1  -6   -1.59    1.47
  14  -1  -6    0.99    1.29
  13  -1  -6    2.31    1.15
  12  -1  -6    7.15    1.29
  11  -1  -6   23.40    1.42
  10  -1  -6   -0.03    0.70
   9  -1  -6   -0.03    0.59
   8  -1  -6   29.14    1.34
   7  -1  -6    2.20    0.47
   6  -1  -6    3.58    0.64
   5  -1  -6    1.08    0.38
   4  -1  -6    0.02    0.32
   1  -1  -6    5.38    0.49
   0  -1  -6  236.07    7.36
  -1  -1  -6  333.32   10.26
  -2  -1  -6    4.23    0.45
  -2  -1  -6    4.62    0.31
   2   1   6    4.27    0.34
  -3  -1  -6   43.27    1.17
  -3  -1  -6   43.64    1.67
   3   1   6   43.52    1.44
  -4  -1  -6    1.47    0.40
  -4  -1  -6    1.16    0.28
   4   1   6    1.42    0.25
  -5  -1  -6    2.02    0.45
   5   1   6    1.74    0.32
   6   1   6   61.66    2.00
   7   1   6   51.93    1.77
   7   1   6   52.51    1.63
   8   1   6    1.52    0.37
   8   1   6    1.14    0.22
   9   1   6   52.35    1.89
   9   1   6   52.04    1.76
  10   1   6   16.84    0.87
  10   1   6   16.31    0.89
  11   1   6   30.42    1.32
  11   1   6   30.37    1.31
  12   1   6    2.58    0.54
  12   1   6    3.99    0.73
  13   1   6    1.11    0.58
  14   1   6    0.32    0.46
  14   1   6   -0.39    0.67
  15   1   6    0.46    0.76
  15   1   6   -0.54    0.53
  16   1   6   -0.74    0.60
  16   1   6    0.42    0.87
  17   1   6    0.87    1.00
  17   1   6   -0.57    0.69
  18   1   6    0.86    1.15
  18   1   6    2.15    0.76
  15  -2  -6   -0.81    1.55
  14  -2  -6    0.87    1.39
  13  -2  -6    5.66    1.24
  12  -2  -6   11.80    1.45
  11  -2  -6    7.20    1.20
  10  -2  -6   14.99    1.23
   9  -2  -6   15.59    1.13
   8  -2  -6   -0.26    0.55
   7  -2  -6    4.82    0.67
   6  -2  -6    0.78    0.41
   5  -2  -6    0.95    0.39
   4  -2  -6    2.85    0.42
   3  -2  -6  127.68    3.91
   1  -2  -6   37.99    1.48
   0  -2  -6    4.07    0.47
  -1  -2  -6    0.97    0.32
  -2  -2  -6   86.25    2.93
  -3  -2  -6   47.44    1.76
  -3  -2  -6   47.26    1.46
   3   2   6   48.28    1.56
  -4  -2  -6   13.67    0.76
  -4  -2  -6   13.23    0.55
   4   2   6   13.40    0.61
   4   2   6   14.06    0.58
  -5  -2  -6    0.63    0.16
  -5  -2  -6    1.06    0.35
   5   2   6    1.45    0.26
   5   2   6    1.01    0.23
   6   2   6   74.48    2.21
   6   2   6   74.68    2.35
   7   2   6    8.10    0.47
   7   2   6    7.65    0.53
   8   2   6    2.70    0.41
   8   2   6    2.75    0.47
   9   2   6   34.94    1.39
   9   2   6   35.38    1.31
  10   2   6   33.01    1.32
  10   2   6   33.66    1.37
  11   2   6    2.07    0.36
  11   2   6    2.59    0.47
  12   2   6    0.66    0.48
  12   2   6    0.47    0.38
  13   2   6    0.36    0.41
  13   2   6    0.35    0.58
  14   2   6    3.33    0.68
  14   2   6    2.32    0.47
  15   2   6    2.52    0.76
  15   2   6    2.34    0.53
  16   2   6    3.31    0.85
  16   2   6    3.26    0.61
  17   2   6    0.49    0.97
  17   2   6    0.77    0.67
  18   2   6    0.61    0.77
  18   2   6    3.38    1.15
  19   2   6    1.23    1.29
  15  -3  -6    0.95    1.66
  14  -3  -6    0.22    1.49
  13  -3  -6   -0.85    1.29
  12  -3  -6   19.21    1.72
  11  -3  -6    4.27    0.91
  10  -3  -6    0.01    0.78
   9  -3  -6    0.50    0.73
   8  -3  -6    1.50    0.58
   7  -3  -6    3.68    0.55
   6  -3  -6    1.06    0.45
   5  -3  -6    5.18    0.67
   4  -3  -6   36.30    1.42
   3  -3  -6   69.44    2.31
   2  -3  -6  104.05    3.50
   1  -3  -6   13.27    0.79
   0  -3  -6   17.77    0.91
  -1  -3  -6    1.20    0.39
  -2  -3  -6   39.65    1.55
  -3  -3  -6   36.18    1.41
  -3  -3  -6   34.33    1.23
  -4  -3  -6   38.27    1.50
  -4  -3  -6   35.54    1.25
   4   3   6   38.75    1.31
   4   3   6   41.56    1.31
  -5  -3  -6   30.17    1.28
   5   3   6   32.30    1.09
   5   3   6   31.43    1.12
   6   3   6    6.94    0.43
   6   3   6    6.03    0.44
   7   3   6  137.86    3.87
   7   3   6  129.08    4.00
   8   3   6    0.12    0.22
   8   3   6    0.69    0.30
   9   3   6   10.76    0.70
   9   3   6   10.79    0.68
  10   3   6    0.92    0.40
  10   3   6    0.38    0.30
  11   3   6    1.74    0.46
  11   3   6    1.83    0.37
  12   3   6    0.60    0.51
  12   3   6    0.64    0.40
  13   3   6    0.46    0.42
  13   3   6    0.26    0.57
  14   3   6    0.72    0.48
  14   3   6    1.20    0.65
  15   3   6    4.12    0.58
  15   3   6    6.09    1.07
  16   3   6    1.04    0.60
  16   3   6    1.11    0.86
  17   3   6   -0.26    0.69
  17   3   6    0.24    0.98
  18   3   6   -0.46    0.77
  18   3   6    1.11    1.12
  19   3   6   -0.59    0.88
  19   3   6    0.99    1.22
  14  -4  -6   -1.63    1.60
  13  -4  -6    6.45    1.43
  12  -4  -6    4.65    1.22
  11  -4  -6   -0.68    0.98
  10  -4  -6    0.13    0.84
   9  -4  -6    2.33    0.78
   8  -4  -6    0.08    0.65
   7  -4  -6    0.56    0.60
   6  -4  -6   52.68    1.96
   5  -4  -6    4.34    0.66
   4  -4  -6   22.61    1.06
   3  -4  -6   71.93    2.41
   2  -4  -6    7.52    0.76
   2  -4  -6    7.08    0.59
   1  -4  -6   11.39    0.78
   0  -4  -6   12.22    0.80
  -1  -4  -6    0.82    0.43
  -2  -4  -6    0.11    0.41
  -3  -4  -6   14.48    0.81
  -4  -4  -6    9.57    0.65
   4   4   6    9.32    0.54
  -5  -4  -6   18.41    0.95
   5   4   6   19.75    0.81
   6   4   6  284.63    7.88
   7   4   6    9.78    0.57
   7   4   6    8.30    0.56
   8   4   6    0.74    0.33
   8   4   6    0.65    0.23
   9   4   6    1.76    0.37
   9   4   6    0.96    0.27
  10   4   6    5.02    0.60
  10   4   6    4.67    0.65
  11   4   6    1.36    0.48
  11   4   6    1.36    0.37
  12   4   6    1.15    0.40
  12   4   6    1.27    0.52
  13   4   6    1.46    0.44
  13   4   6    0.66    0.58
  14   4   6    0.82    0.67
  14   4   6    1.13    0.47
  15   4   6    7.62    1.01
  15   4   6    9.27    1.14
  16   4   6    4.96    0.92
  16   4   6    2.65    0.62
  17   4   6    0.16    0.67
  17   4   6    0.08    0.97
  18   4   6    1.08    0.77
  18   4   6    2.57    1.08
  19   4   6    0.83    1.18
  19   4   6    0.36    0.88
  14  -5  -6   -1.47    1.71
  13  -5  -6    0.82    1.57
  12  -5  -6   -0.13    1.34
  11  -5  -6    3.07    1.08
  10  -5  -6    4.00    0.95
   9  -5  -6   -0.69    0.84
   8  -5  -6    1.71    0.77
   7  -5  -6   76.88    2.73
   6  -5  -6   56.29    2.09
   5  -5  -6    7.43    0.74
   4  -5  -6    0.50    0.47
   3  -5  -6   18.98    1.17
   3  -5  -6   18.50    0.96
   2  -5  -6   -0.49    0.62
   2  -5  -6    0.78    0.34
   1  -5  -6    4.25    0.71
   0  -5  -6    6.56    0.71
  -1  -5  -6    0.52    0.46
  -2  -5  -6    4.09    0.57
  -3  -5  -6  115.68    3.88
  -4  -5  -6    5.69    0.61
   4   5   6    4.34    0.46
  -5  -5  -6   99.07    3.36
   5   5   6   97.99    3.01
  -6  -5  -6   21.55    1.08
   6   5   6   21.10    0.92
   7   5   6   37.77    1.38
   8   5   6    3.64    0.49
   8   5   6    3.76    0.51
   9   5   6   11.37    0.70
  10   5   6   11.10    0.78
  11   5   6    1.50    0.37
  11   5   6    2.66    0.47
  12   5   6   11.20    0.86
  12   5   6   11.08    0.88
  13   5   6    0.87    0.62
  13   5   6   -0.26    0.44
  14   5   6   19.51    1.20
  14   5   6   16.33    1.13
  15   5   6    4.46    0.61
  16   5   6   -0.63    0.62
  16   5   6    0.30    0.85
  17   5   6    0.41    0.70
  17   5   6    0.83    0.96
  18   5   6   -0.77    0.78
  18   5   6   -0.35    1.07
  19   5   6   -0.98    1.22
  19   5   6   -0.75    0.89
  13  -6  -6   -2.19    1.67
  12  -6  -6    0.58    1.46
  11  -6  -6    5.86    1.30
  10  -6  -6    2.38    1.05
   9  -6  -6    2.65    0.91
   8  -6  -6   12.13    1.26
   7  -6  -6   17.66    1.22
   6  -6  -6   45.41    1.83
   5  -6  -6    6.51    0.84
   4  -6  -6    5.50    0.74
   3  -6  -6    0.71    0.44
   2  -6  -6   23.41    1.30
   2  -6  -6   21.73    1.03
   1  -6  -6    5.85    0.83
   0  -6  -6    1.29    0.61
  -1  -6  -6   40.80    1.73
  -2  -6  -6  249.09    7.89
  -3  -6  -6   41.80    1.73
   4   6   6    1.59    0.29
  -5  -6  -6    1.62    0.50
   5   6   6    1.47    0.26
  -6  -6  -6    5.56    0.68
   6   6   6    4.88    0.52
   7   6   6   13.40    0.73
   8   6   6   11.43    0.71
   9   6   6   18.55    0.96
  10   6   6   17.50    0.98
  11   6   6   33.65    1.53
  11   6   6   35.59    1.41
  12   6   6    6.69    0.81
  12   6   6    7.84    0.80
  13   6   6    0.79    0.62
  13   6   6    0.61    0.44
  14   6   6   -0.14    0.51
  15   6   6    0.96    0.59
  16   6   6    1.36    0.89
  16   6   6   -0.99    0.64
  17   6   6   -0.31    0.72
  17   6   6    1.48    0.99
  18   6   6    1.33    1.11
  18   6   6    0.48    0.81
  19   6   6   -0.18    0.91
  19   6   6    2.69    1.24
  13  -7  -6    1.24    1.80
  12  -7  -6   -0.41    1.66
  11  -7  -6    6.08    1.45
  10  -7  -6    1.91    1.18
   9  -7  -6    0.82    1.02
   8  -7  -6    0.36    0.93
   7  -7  -6   26.00    1.52
   6  -7  -6   -0.64    0.70
   5  -7  -6    0.76    0.62
   4  -7  -6    6.39    0.82
   3  -7  -6    1.01    0.97
   2  -7  -6    1.38    0.83
   1  -7  -6   25.65    1.41
   0  -7  -6    1.21    0.69
  -1  -7  -6   20.70    1.18
  -2  -7  -6   65.68    2.52
  -3  -7  -6   68.34    2.55
  -4  -7  -6   18.37    1.07
   4   7   6   19.62    0.96
  -5  -7  -6   10.30    0.86
   5   7   6   12.06    0.73
  -6  -7  -6   22.62    1.18
   6   7   6   22.66    1.04
   7   7   6    0.76    0.29
   8   7   6    1.44    0.32
   9   7   6   13.38    0.84
  10   7   6    7.37    0.71
  11   7   6   43.87    1.73
  12   7   6   12.54    0.92
  13   7   6    0.01    0.47
  14   7   6    1.31    0.53
  15   7   6    0.50    0.60
  16   7   6    0.23    0.66
  17   7   6    0.88    0.74
  18   7   6   -0.20    0.84
  19   7   6    0.83    0.95
  12  -8  -6   -2.54    1.76
  11  -8  -6    1.57    1.60
  10  -8  -6   33.65    2.18
   9  -8  -6    2.04    1.15
   8  -8  -6    5.32    1.02
   7  -8  -6   -1.04    0.96
   3  -8  -6    3.15    0.97
   2  -8  -6   15.88    1.24
   1  -8  -6   42.33    1.92
   0  -8  -6    5.07    0.85
  -1  -8  -6   24.77    1.43
  -2  -8  -6   46.31    2.02
  -3  -8  -6    0.39    0.61
  -4  -8  -6    7.81    0.86
   4   8   6    8.09    0.70
  -5  -8  -6    5.55    0.81
   5   8   6    5.02    0.63
  -6  -8  -6   14.02    1.00
   6   8   6   14.76    0.86
  -7  -8  -6    4.26    0.82
   7   8   6    3.83    0.60
   8   8   6    7.53    0.71
   9   8   6   12.47    0.79
  10   8   6   10.58    0.80
  11   8   6   26.66    1.26
  12   8   6    1.58    0.45
  13   8   6    2.31    0.52
  14   8   6    0.40    0.56
  15   8   6    0.79    0.65
  16   8   6   -1.20    0.70
  17   8   6   -1.27    0.79
  18   8   6   -0.97    0.88
  11  -9  -6   12.78    1.79
  10  -9  -6    3.04    1.59
   8  -9  -6   -1.88    1.14
   7  -9  -6    1.65    1.03
   4  -9  -6    2.79    1.13
   3  -9  -6   19.10    1.50
   2  -9  -6   87.35    3.37
   1  -9  -6   63.38    2.60
   0  -9  -6   14.88    1.20
  -1  -9  -6    0.33    0.76
  -2  -9  -6    0.66    0.73
  -3  -9  -6    0.33    0.68
  -4  -9  -6    2.93    0.71
  -5  -9  -6    9.24    0.97
   5   9   6   11.47    0.78
  -6  -9  -6    3.63    0.76
   6   9   6    3.57    0.60
  -7  -9  -6   20.94    1.26
   7   9   6   18.06    1.01
   8   9   6   61.33    2.20
   9   9   6    5.95    0.68
  10   9   6    1.14    0.39
  11   9   6    0.32    0.42
  12   9   6    1.80    0.47
  13   9   6   -0.58    0.54
  14   9   6    0.22    0.60
  15   9   6    0.63    0.66
  16   9   6    2.60    0.76
  17   9   6    2.16    0.83
  18   9   6    2.05    0.95
  19   9   6    1.09    1.05
   8 -10  -6    5.61    1.39
   3 -10  -6    1.70    1.16
   2 -10  -6   35.11    1.91
   1 -10  -6   22.23    1.53
   0 -10  -6    2.69    0.98
  -1 -10  -6    0.16    0.90
  -2 -10  -6   -0.05    0.82
  -3 -10  -6    6.10    0.98
  -4 -10  -6    3.32    0.79
  -5 -10  -6    6.93    0.97
   5  10   6    8.71    0.74
  -6 -10  -6   49.50    2.06
   6  10   6   47.65    1.89
  -7 -10  -6   35.59    1.66
   7  10   6   35.04    1.50
  -8 -10  -6    2.59    0.78
   8  10   6    1.37    0.40
   9  10   6    6.56    0.76
  10  10   6    2.32    0.44
  11  10   6    1.14    0.45
  12  10   6    8.79    0.93
  13  10   6    0.50    0.55
  14  10   6    1.63    0.63
  15  10   6    1.42    0.72
  16  10   6    0.03    0.80
  17  10   6    2.34    0.90
  18  10   6    0.18    0.99
  19  10   6   -0.47    1.11
   4 -11  -6   12.63    1.87
   3 -11  -6   11.60    1.70
   2 -11  -6    9.46    1.48
   1 -11  -6    4.40    1.15
   0 -11  -6    1.51    1.08
  -1 -11  -6    1.92    1.05
  -2 -11  -6    3.77    0.98
  -3 -11  -6    2.82    0.91
  -4 -11  -6   16.55    1.27
  -5 -11  -6    0.77    0.84
   5  11   6    0.15    0.46
  -6 -11  -6    7.25    1.03
   6  11   6    9.09    0.84
  -7 -11  -6   29.75    1.60
   7  11   6   33.66    1.47
  -8 -11  -6   41.21    1.89
   8  11   6   41.54    1.72
   9  11   6    2.25    0.46
  10  11   6   -0.62    0.46
  11  11   6   12.02    0.98
  12  11   6    5.20    0.93
  13  11   6   -0.23    0.58
  14  11   6    1.10    0.66
  15  11   6    2.24    0.73
  16  11   6    9.44    1.47
  17  11   6    0.50    0.94
  18  11   6   -1.61    1.05
  19  11   6   -2.13    1.16
   5 -12  -6   24.37    2.53
   4 -12  -6   -0.57    1.84
   3 -12  -6    1.05    1.62
   2 -12  -6    7.21    1.59
   1 -12  -6    5.42    1.38
   0 -12  -6    2.22    1.21
  -1 -12  -6    2.05    1.15
  -2 -12  -6    9.88    1.36
  -3 -12  -6   53.15    2.41
  -4 -12  -6   14.73    1.34
  -5 -12  -6    6.47    1.17
  -6 -12  -6    0.53    0.94
   6  12   6    0.46    0.49
  -7 -12  -6    2.69    0.95
   7  12   6    2.22    0.51
  -8 -12  -6    6.70    1.14
   8  12   6    7.40    0.88
  -9 -12  -6    0.27    0.95
   9  12   6   -0.70    0.50
  10  12   6    0.22    0.51
  11  12   6    2.30    0.55
  12  12   6    0.98    0.57
  13  12   6    4.26    0.66
  14  12   6    0.64    0.69
  15  12   6    3.27    0.77
  16  12   6   -0.04    0.87
  17  12   6    0.61    0.96
  18  12   6    1.20    1.09
   4 -13  -6    2.21    2.13
   3 -13  -6   -0.11    1.95
   2 -13  -6    3.66    1.75
   1 -13  -6    5.24    1.63
   0 -13  -6    3.39    1.45
  -1 -13  -6    2.82    1.29
  -2 -13  -6    5.45    1.23
  -3 -13  -6   27.83    1.76
  -4 -13  -6   25.98    1.72
  -5 -13  -6   -0.40    1.05
  -6 -13  -6   -0.58    1.05
   6  13   6   -0.06    0.56
  -7 -13  -6    1.27    1.04
   7  13   6    0.78    0.55
  -8 -13  -6    0.80    1.03
   8  13   6    0.36    0.54
  -9 -13  -6    1.35    1.03
   9  13   6    0.58    0.54
  10  13   6   -0.23    0.56
  11  13   6   -0.02    0.58
  12  13   6   16.32    1.26
  13  13   6    2.06    0.70
  14  13   6   -0.62    0.73
  15  13   6   -0.36    0.79
  16  13   6   -0.03    0.92
  17  13   6    0.19    1.01
  18  13   6    0.39    1.12
   5 -14  -6   -0.01    2.61
   4 -14  -6    3.59    2.42
   3 -14  -6   -1.02    2.27
   2 -14  -6    3.07    2.07
   1 -14  -6    6.95    1.90
   0 -14  -6   17.28    2.03
  -1 -14  -6    3.74    1.61
  -2 -14  -6    7.75    1.48
  -3 -14  -6    8.32    1.59
  -4 -14  -6    2.16    1.23
  -5 -14  -6    5.85    1.21
  -6 -14  -6    5.32    1.17
  -7 -14  -6    0.94    1.12
   7  14   6    0.41    0.62
  -8 -14  -6    6.36    1.33
   8  14   6    4.07    0.64
  -9 -14  -6    3.44    1.12
   9  14   6    2.25    0.60
  10  14   6   -0.30    0.60
  11  14   6    1.07    0.64
  12  14   6    0.39    0.67
  13  14   6    1.28    0.73
  14  14   6    0.32    0.79
  15  14   6   -0.74    0.84
  16  14   6   -1.20    0.94
  17  14   6   -1.66    1.04
   4 -15  -6    1.84    2.79
   3 -15  -6    0.55    2.62
   2 -15  -6    9.88    2.47
   1 -15  -6    5.35    2.23
   0 -15  -6   15.71    2.44
  -1 -15  -6    3.65    1.87
  -2 -15  -6    1.85    1.66
  -3 -15  -6    3.47    1.64
  -4 -15  -6    0.51    1.54
  -5 -15  -6    7.21    1.47
  -6 -15  -6    2.24    1.39
  -7 -15  -6    2.10    1.36
   7  15   6   -0.57    0.70
  -8 -15  -6   10.70    1.62
   8  15   6   10.54    1.19
  -9 -15  -6    4.78    1.36
   9  15   6    2.05    0.68
 -10 -15  -6    2.15    1.44
  10  15   6    1.16    0.67
  11  15   6   -0.88    0.69
  12  15   6    0.08    0.74
  13  15   6   -0.49    0.78
  14  15   6   -0.21    0.85
  15  15   6   -1.04    0.92
  16  15   6   -0.81    1.03
  17  15   6   -1.63    1.11
   3 -16  -6    1.32    2.98
   2 -16  -6    3.23    2.74
   1 -16  -6   14.70    2.71
   0 -16  -6    8.60    2.51
  -1 -16  -6    2.77    2.23
  -2 -16  -6   -1.74    2.03
  -3 -16  -6    2.29    1.88
  -4 -16  -6    1.51    1.77
  -5 -16  -6    1.52    1.68
  -6 -16  -6    2.25    1.62
  -7 -16  -6    9.44    1.70
  -8 -16  -6    5.72    1.63
  -9 -16  -6    9.79    1.71
   9  16   6    8.30    1.23
 -10 -16  -6    6.06    1.68
 -11 -16  -6    3.54    1.73
  11  16   6    1.94    0.77
  12  16   6   -1.54    0.80
  13  16   6   -0.31    0.87
  14  16   6   -1.33    0.91
  15  16   6   -0.26    0.99
  16  16   6   -1.46    1.10
   2 -17  -6    3.95    3.14
   1 -17  -6    6.14    2.98
   0 -17  -6    3.04    2.79
  -1 -17  -6    0.65    2.63
  -2 -17  -6   -2.41    2.45
  -3 -17  -6    4.64    2.28
  -4 -17  -6    3.65    2.16
  -5 -17  -6    1.45    2.02
  -6 -17  -6    0.56    1.93
  -7 -17  -6    1.87    1.88
  -8 -17  -6   12.68    2.24
  -9 -17  -6    2.87    1.84
   9  17   6    2.77    0.88
 -10 -17  -6   -1.12    1.91
  10  17   6    0.47    0.86
  11  17   6    1.26    0.87
  12  17   6    0.17    0.88
  13  17   6   -1.08    0.93
  14  17   6   -0.08    1.02
  15  17   6   -1.56    1.07
   0 -18  -6   -0.44    3.23
  -1 -18  -6    6.51    3.01
  -2 -18  -6    1.63    2.83
  -3 -18  -6   -0.80    2.67
  -4 -18  -6    1.74    2.57
  -5 -18  -6    8.06    2.48
  -6 -18  -6    1.84    2.34
  -7 -18  -6    2.73    2.27
  -8 -18  -6    1.93    2.21
  -9 -18  -6    1.94    2.21
   9  18   6    0.63    1.00
 -10 -18  -6    1.02    2.30
  10  18   6    2.65    1.00
 -11 -18  -6   -0.15    2.37
  11  18   6    1.73    0.99
  12  18   6   -1.83    0.99
  13  18   6    0.44    1.03
  -3 -19  -6    1.46    2.98
  -4 -19  -6    7.96    2.93
  -5 -19  -6    4.18    2.79
  -6 -19  -6    1.43    2.69
  -7 -19  -6   -1.18    2.61
  -8 -19  -6   -2.25    2.57
  -9 -19  -6    1.20    2.54
 -10 -19  -6    4.50    2.51
  10  19   6    2.14    1.14
 -11 -19  -6    1.98    2.54
  11  19   6    1.29    1.14
   9  18  -7   -1.98    1.10
   8  18  -7   -0.35    1.08
   7  18  -7   -1.81    1.08
  -7 -18   7   -2.65    2.51
   6  18  -7   -0.39    1.06
  -6 -18   7    1.63    2.46
   5  18  -7    0.76    1.10
  -5 -18   7    1.89    2.49
   4  18  -7    0.97    1.13
  -4 -18   7    0.68    2.58
   3  18  -7   -1.09    1.20
  -3 -18   7    0.30    2.66
  -2 -18   7    0.61    2.73
  -1 -18   7   -0.63    2.80
   0 -18   7    3.21    2.95
   1 -18   7    1.88    3.29
  11  17  -7    0.42    1.10
  10  17  -7   -0.89    1.02
   9  17  -7   -0.81    1.00
   8  17  -7   -1.30    0.96
   7  17  -7   -0.83    0.95
  -7 -17   7    1.02    2.33
  -6 -17   7    1.50    2.23
   5  17  -7    0.59    0.94
  -5 -17   7   -1.00    2.27
   4  17  -7    1.64    0.99
  -4 -17   7   -0.17    2.24
   3  17  -7    2.90    1.03
  -3 -17   7    2.66    2.25
  -2 -17   7    2.65    2.36
  -1 -17   7    0.68    2.43
   0 -17   7   -1.60    2.55
   1 -17   7    1.33    2.75
   2 -17   7    0.07    2.95
   3 -17   7    1.47    3.08
  12  16  -7    0.06    1.08
  11  16  -7    1.27    1.01
  10  16  -7   -0.06    0.94
   9  16  -7   -0.33    0.89
   8  16  -7   -0.02    0.85
   7  16  -7   -0.57    0.84
  -7 -16   7    0.41    2.05
   6  16  -7   -1.43    0.83
  -6 -16   7    0.70    2.01
   5  16  -7   -1.00    0.84
  -5 -16   7    0.34    1.99
   4  16  -7    0.26    0.85
  -4 -16   7    0.49    1.96
   3  16  -7    0.65    0.91
  -3 -16   7    1.01    2.00
   2  16  -7    3.02    0.96
  -2 -16   7    3.46    2.07
  -1 -16   7    0.07    2.14
   0 -16   7    1.73    2.21
   1 -16   7   -0.33    2.34
   2 -16   7    1.63    2.54
   3 -16   7    2.71    2.68
   4 -16   7    3.55    2.91
   5 -16   7   -1.94    2.96
  13  15  -7   -0.55    1.10
  12  15  -7    1.20    1.01
  11  15  -7   -1.38    0.91
  10  15  -7    0.22    0.86
   9  15  -7   -0.36    0.80
   8  15  -7    1.57    0.77
   7  15  -7    3.95    0.78
  -7 -15   7    6.69    1.90
   6  15  -7   -0.16    0.74
  -6 -15   7    0.84    1.79
   5  15  -7   -0.90    0.73
  -5 -15   7   -0.63    1.80
  -4 -15   7   -1.66    1.74
   3  15  -7    1.49    0.77
  -3 -15   7    2.31    1.77
   2  15  -7    0.86    0.82
  -2 -15   7    1.99    1.82
  -1 -15   7    3.27    1.85
   0 -15   7    0.47    1.92
   1 -15   7    4.32    2.02
   2 -15   7    1.85    2.17
   3 -15   7    3.82    2.35
   4 -15   7    1.50    2.49
   5 -15   7    3.26    2.60
   6 -15   7    0.45    2.71
   7 -15   7   -0.53    2.91
  14  14  -7   -1.12    1.10
  13  14  -7   -0.85    1.02
  12  14  -7    0.86    0.94
  11  14  -7   -0.82    0.85
  10  14  -7    2.26    0.80
   9  14  -7   -0.79    0.72
   8  14  -7    2.81    0.68
   7  14  -7    0.53    0.66
  -7 -14   7   -0.59    1.70
   6  14  -7   -0.73    0.64
  -6 -14   7    0.33    1.64
   5  14  -7    2.47    0.65
  -5 -14   7    3.33    1.61
  -4 -14   7    1.93    1.57
   3  14  -7    7.52    1.22
  -3 -14   7   12.12    1.89
   2  14  -7    6.42    1.20
  -2 -14   7    6.72    1.61
   1  14  -7    0.91    0.75
  -1 -14   7   -0.75    1.61
   0 -14   7    6.74    1.69
   1 -14   7   -0.03    1.75
   2 -14   7    7.92    1.90
   3 -14   7    1.36    2.01
   4 -14   7    6.50    2.18
   5 -14   7   -1.92    2.28
   6 -14   7    0.47    2.39
   7 -14   7    3.64    2.53
   8 -14   7    2.42    2.75
  15  13  -7    0.01    1.11
  14  13  -7   -1.23    1.01
  13  13  -7    2.28    0.92
  12  13  -7    0.36    0.85
  11  13  -7    1.18    0.79
  10  13  -7    0.93    0.74
   9  13  -7    0.27    0.67
   8  13  -7    0.59    0.63
   7  13  -7    0.92    0.59
   6  13  -7    0.50    0.57
  -6 -13   7   -0.73    1.47
  -5 -13   7    9.05    1.51
   4  13  -7   -0.53    0.57
  -4 -13   7    0.13    1.42
   3  13  -7    8.31    1.02
   2  13  -7   -0.57    0.61
  -2 -13   7   -0.50    1.39
   1  13  -7    0.92    0.65
  -1 -13   7    0.50    1.40
   0  13  -7    0.34    0.67
   0 -13   7    1.28    1.43
   1 -13   7   23.14    2.02
   2 -13   7   -0.81    1.58
   3 -13   7    0.62    1.73
   4 -13   7    3.61    1.87
   5 -13   7   -1.22    2.00
   6 -13   7   -0.97    2.07
   7 -13   7    0.02    2.25
   8 -13   7    5.23    2.50
  15  12  -7    0.36    1.00
  14  12  -7   -0.30    0.92
  13  12  -7    0.80    0.85
  12  12  -7    2.51    0.80
  11  12  -7    2.27    0.73
  10  12  -7    0.54    0.66
   9  12  -7    0.61    0.61
   8  12  -7    0.53    0.58
   7  12  -7   -0.32    0.53
   6  12  -7    0.10    0.50
  -6 -12   7   -0.35    1.32
   5  12  -7    1.60    0.49
  -5 -12   7    3.11    1.32
   4  12  -7   -0.71    0.49
  -4 -12   7    0.96    1.27
   3  12  -7    3.50    0.54
   2  12  -7    8.48    0.95
  -2 -12   7    9.71    1.53
   1  12  -7    0.69    0.55
  -1 -12   7    0.66    1.23
   0  12  -7   23.52    1.27
   0 -12   7   27.26    1.88
   1 -12   7   -0.12    1.30
   2 -12   7    0.99    1.37
   3 -12   7    6.18    1.55
   4 -12   7    3.75    1.63
   5 -12   7   -0.56    1.73
   6 -12   7    0.56    1.81
   7 -12   7    9.65    2.01
   8 -12   7    3.73    2.14
  16  11  -7    0.36    1.15
  15  11  -7    1.00    1.04
  14  11  -7    0.21    0.95
  13  11  -7    1.79    0.86
  12  11  -7    0.87    0.77
  11  11  -7    3.37    0.68
  10  11  -7   -0.57    0.61
   9  11  -7    2.61    0.59
   8  11  -7    0.56    0.51
   7  11  -7    1.50    0.50
   6  11  -7    1.94    0.47
   5  11  -7    7.62    0.83
  -5 -11   7    7.95    1.25
   4  11  -7    0.46    0.42
  -4 -11   7   -0.01    1.17
   3  11  -7   20.67    1.11
  -3 -11   7   22.64    1.64
   2  11  -7    3.00    0.50
  -2 -11   7    5.43    1.17
   1  11  -7   -0.08    0.52
  -1 -11   7    0.88    1.10
   0  11  -7    0.41    0.61
   0 -11   7   -0.39    1.11
   1 -11   7    4.70    1.18
   2 -11   7   -0.70    1.22
   3 -11   7    2.43    1.31
   4 -11   7    9.36    1.47
   5 -11   7    1.06    1.50
   6 -11   7   17.99    1.98
   7 -11   7    0.90    1.69
   8 -11   7    3.24    1.89
  16  10  -7    2.08    0.95
  15  10  -7   -0.33    0.86
  14  10  -7    0.29    0.79
  13  10  -7    0.83    0.73
  12  10  -7    2.10    0.71
  11  10  -7    0.17    0.63
  10  10  -7    0.71    0.58
   9  10  -7    0.44    0.53
   8  10  -7   -0.30    0.47
   7  10  -7    0.97    0.45
   6  10  -7    5.66    0.75
   5  10  -7    1.57    0.42
  -5 -10   7    1.88    1.09
   4  10  -7    7.14    0.76
  -4 -10   7    8.65    1.18
   3  10  -7   13.81    0.88
  -3 -10   7   12.29    1.38
   2  10  -7   10.90    0.90
  -2 -10   7    9.41    1.31
   1  10  -7    9.09    0.89
  -1 -10   7    9.44    1.30
   0  10  -7   17.05    1.07
   0 -10   7   13.56    1.41
  -1  10  -7   14.12    1.02
   1 -10   7   12.48    1.38
   2 -10   7    4.35    1.10
   3 -10   7    3.17    1.15
   4 -10   7    0.37    1.21
   5 -10   7    2.26    1.32
   6 -10   7    0.45    1.39
   7 -10   7   14.33    1.81
   8 -10   7    3.50    1.70
  16   9  -7    0.02    0.89
  15   9  -7    3.86    0.82
  14   9  -7    0.29    0.73
  13   9  -7    2.73    0.69
  12   9  -7    0.14    0.61
  11   9  -7    1.22    0.57
  10   9  -7   -0.88    0.53
   9   9  -7    1.09    0.49
   8   9  -7    0.33    0.44
   7   9  -7   20.38    1.12
   6   9  -7   16.24    0.95
   5   9  -7   11.14    0.78
  -5  -9   7    8.42    1.39
   4   9  -7    7.13    0.70
  -4  -9   7    5.91    1.16
   3   9  -7    2.04    0.41
  -3  -9   7    1.91    0.94
   2   9  -7    4.51    0.64
  -2  -9   7    3.53    0.92
   1   9  -7    2.11    0.42
  -1  -9   7    1.81    0.91
   0   9  -7   12.16    0.85
   0  -9   7   10.30    1.24
  -1   9  -7    8.05    0.82
   1  -9   7    7.27    1.20
   2  -9   7    6.55    1.22
   3  -9   7    0.71    0.99
   4  -9   7   -0.55    1.05
   5  -9   7    6.32    1.19
   6  -9   7   14.42    1.51
   7  -9   7    0.29    1.34
   8  -9   7    2.46    1.52
  13  -9   7    0.48    1.26
  16   8  -7    2.39    0.87
  15   8  -7    1.13    0.78
  14   8  -7    0.93    0.71
  13   8  -7    0.88    0.65
  12   8  -7    0.38    0.60
  11   8  -7   -0.10    0.55
  10   8  -7    0.68    0.50
   9   8  -7   10.99    0.93
   8   8  -7    4.94    0.72
   7   8  -7   35.24    1.50
   6   8  -7   25.60    1.20
   5   8  -7    1.76    0.35
   4   8  -7    4.61    0.61
  -4  -8   7    3.78    0.94
   3   8  -7    3.42    0.56
  -3  -8   7    4.27    0.89
   2   8  -7    3.45    0.54
  -2  -8   7    4.19    0.89
  -1  -8   7    2.25    0.85
   0   8  -7    3.36    0.61
   0  -8   7    0.89    0.81
  -1   8  -7    2.15    0.39
   1  -8   7    1.45    0.82
   2  -8   7   10.96    1.17
   3  -8   7   50.65    2.24
   4  -8   7    1.36    0.95
   5  -8   7    8.98    1.21
   6  -8   7    7.27    1.31
   7  -8   7    2.55    1.22
   8  -8   7    1.94    1.31
  12  -8   7    0.23    1.02
  14  -8   7   -0.85    1.31
  16   7  -7   -0.80    0.82
  15   7  -7    0.52    0.73
  14   7  -7   -0.75    0.66
   9   7  -7    9.58    0.87
   8   7  -7    1.48    0.40
   7   7  -7    3.56    0.66
   6   7  -7    3.29    0.58
   5   7  -7    9.32    0.72
   4   7  -7    0.59    0.27
   3   7  -7    0.24    0.26
  -3  -7   7    0.58    0.74
   2   7  -7    0.37    0.26
  -2  -7   7    0.81    0.73
   1   7  -7    6.51    0.57
  -1  -7   7    6.75    0.94
   0   7  -7   24.25    1.02
   0  -7   7   25.29    1.41
  -1   7  -7   48.83    1.65
   1  -7   7   47.54    2.13
  -2   7  -7   39.55    1.42
   2  -7   7   41.59    1.95
   3  -7   7    1.46    0.72
   4  -7   7    2.88    0.79
   5  -7   7    1.80    0.87
   6  -7   7   16.43    1.35
   7  -7   7   -0.05    1.05
   8  -7   7   -1.89    1.14
  10  -7   7    5.14    0.95
  12  -7   7    1.00    0.93
  13  -7   7    0.30    1.06
  14  -7   7    1.28    1.22
  15  -7   7   -0.65    1.36
   5   6  -7    0.36    0.29
   4   6  -7    0.75    0.27
   3   6  -7   10.47    0.65
  -3  -6   7   11.29    1.00
  -2  -6   7    2.00    0.71
   1   6  -7   75.56    2.37
  -1  -6   7   76.45    2.89
   0   6  -7    5.92    0.48
   0  -6   7    4.95    0.89
  -1   6  -7    9.40    0.56
   1  -6   7    8.82    0.98
   2  -6   7   11.46    1.03
   3  -6   7   56.69    2.37
   4  -6   7   -0.17    0.78
   5  -6   7    1.79    0.87
   6  -6   7   26.99    1.55
   7  -6   7    8.64    1.17
   8  -6   7   10.90    0.80
   9  -6   7    7.49    0.82
  10  -6   7    4.03    0.66
  11  -6   7   11.89    1.02
  12  -6   7    0.12    0.81
  13  -6   7    0.67    0.94
  14  -6   7    0.47    1.08
  15  -6   7    0.57    1.29
  16   5  -7    1.39    1.38
  14   5  -7    4.25    1.16
  13   5  -7    1.05    1.02
  -3  -5   7   17.44    1.11
   2   5  -7   87.23    2.64
  -2  -5   7   83.90    3.09
   1   5  -7   30.01    1.09
  -1  -5   7   30.09    1.49
   0   5  -7   15.33    0.67
   0  -5   7   15.55    1.06
  -1   5  -7    5.05    0.38
   1  -5   7    5.29    0.75
   2  -5   7   37.46    1.70
   3  -5   7    7.19    0.87
   4  -5   7    1.47    0.64
   5  -5   7   10.12    1.00
   6  -5   7   53.91    2.29
   7  -5   7    4.22    0.64
   8  -5   7    3.61    0.64
   9  -5   7   10.18    0.82
  10  -5   7   12.31    0.91
  11  -5   7    1.39    0.63
  12  -5   7    0.54    0.72
  13  -5   7    0.21    0.84
  14  -5   7    0.89    0.97
  15  -5   7    0.30    1.15
  16  -5   7    3.62    1.36
  16   4  -7    0.68    1.35
  15   4  -7   -0.37    1.29
  14   4  -7    1.96    1.17
  13   4  -7    8.53    1.46
  12   4  -7    1.46    0.80
  11   4  -7   22.02    1.38
  10   4  -7    0.59    0.65
   9   4  -7    0.32    0.54
  -2  -4   7   93.56    3.29
   1   4  -7   35.70    1.19
  -1  -4   7   32.76    1.52
   0   4  -7    3.22    0.31
   0  -4   7    3.22    0.58
  -1   4  -7   10.88    0.48
   1  -4   7   10.78    0.85
   2  -4   7   50.74    2.06
   3  -4   7   28.68    1.38
   4  -4   7    5.24    0.78
   5  -4   7    5.47    0.87
   5  -4   7    4.41    0.51
   6  -4   7    6.77    0.97
   6  -4   7    6.80    0.57
   7  -4   7   47.14    1.72
   8  -4   7   28.20    1.19
   9  -4   7   13.84    0.87
  10  -4   7    3.91    0.73
  11  -4   7    0.81    0.57
  12  -4   7    4.80    0.91
  13  -4   7    0.69    0.76
  14  -4   7    1.51    0.89
  15  -4   7    0.42    1.06
  16  -4   7    0.66    1.21
  17  -4   7    0.90    1.43
  16   3  -7    0.82    1.40
  15   3  -7    2.48    1.33
  14   3  -7   12.38    1.79
  13   3  -7    4.01    0.95
  12   3  -7    0.49    0.80
  11   3  -7   -0.14    0.73
  10   3  -7    1.04    0.64
   9   3  -7    2.45    0.58
   8   3  -7    3.07    0.52
   7   3  -7    1.79    0.46
   6   3  -7   13.51    0.82
  -2  -3   7   14.05    0.88
  -1  -3   7    4.19    0.59
   0  -3   7   12.51    0.83
   1  -3   7   -0.45    0.43
   2  -3   7   35.23    1.22
   2  -3   7   34.48    1.54
   3  -3   7    1.84    0.53
   3  -3   7    2.15    0.36
   4  -3   7   26.76    1.28
   4  -3   7   25.04    1.01
   5  -3   7    2.48    0.62
   5  -3   7    1.42    0.33
   6  -3   7   13.99    1.08
   6  -3   7   15.24    0.76
   7  -3   7   24.68    1.09
   8  -3   7    0.58    0.38
   9  -3   7    3.41    0.62
  10  -3   7    0.11    0.47
  11  -3   7   -0.78    0.53
  12  -3   7    0.29    0.60
  13  -3   7    7.20    0.99
  14  -3   7   -0.44    0.82
  15  -3   7    3.23    0.98
  16  -3   7    4.11    1.14
  17  -3   7    0.06    1.33
  16   2  -7    1.48    1.53
  15   2  -7    3.70    1.39
  14   2  -7    0.11    1.24
  13   2  -7    1.28    0.97
  12   2  -7    0.62    0.81
  11   2  -7    2.99    0.79
  10   2  -7    3.96    0.71
   9   2  -7    0.71    0.56
   8   2  -7   13.08    0.90
   7   2  -7   22.83    1.15
   6   2  -7   67.36    2.31
   5   2  -7   78.90    2.60
  -2  -2   7   20.19    1.00
  -1  -2   7    5.91    0.62
   0  -2   7    3.04    0.49
   1  -2   7    9.86    0.69
   2  -2   7    1.92    0.27
   2  -2   7    2.84    0.51
   3  -2   7  161.61    4.77
   3  -2   7  163.26    5.29
   4  -2   7   76.60    2.42
   4  -2   7   77.55    2.76
   5  -2   7    2.68    0.56
   5  -2   7    1.91    0.35
   6  -2   7   12.63    0.95
   6  -2   7   14.59    0.71
   7  -2   7   20.59    0.94
   8  -2   7    5.24    0.60
   9  -2   7    1.31    0.40
  10  -2   7    0.62    0.45
  11  -2   7    0.65    0.49
  12  -2   7   10.69    0.90
  13  -2   7   -0.51    0.65
  14  -2   7    0.78    0.77
  15  -2   7    1.10    0.89
  16  -2   7    0.78    1.05
  17  -2   7   -1.21    1.22
  16   1  -7   -0.56    1.60
  15   1  -7    1.06    1.45
  14   1  -7    1.32    1.29
  13   1  -7    0.88    1.00
  12   1  -7    2.33    0.85
  11   1  -7    2.81    0.81
  10   1  -7    5.91    1.02
   9   1  -7   28.56    1.38
   8   1  -7    0.80    0.51
   7   1  -7    0.25    0.45
   6   1  -7   38.41    1.52
   5   1  -7   39.51    1.51
   4   1  -7    0.77    0.34
   0  -1   7   87.63    2.99
   1  -1   7    6.49    0.57
   2  -1   7    7.51    0.59
   2  -1   7    7.89    0.46
   3  -1   7   91.20    3.15
   3  -1   7   92.76    2.82
   4  -1   7   45.08    1.53
   4  -1   7   44.35    1.75
   5  -1   7   65.78    2.13
   5  -1   7   65.38    2.40
   6  -1   7   16.04    0.76
   7  -1   7    2.71    0.46
   8  -1   7   20.72    0.98
   9  -1   7    4.20    0.58
  10  -1   7    1.16    0.43
  11  -1   7    4.86    0.71
  12  -1   7    8.77    0.85
  13  -1   7    1.37    0.63
  14  -1   7   -0.14    0.72
  15  -1   7    2.06    0.86
  16  -1   7    0.27    0.99
  17  -1   7    0.12    1.16
  18  -1   7   -1.56    1.31
  15   0  -7    0.86    1.53
  14   0  -7    1.69    1.34
  13   0  -7    0.60    1.05
  12   0  -7    3.99    0.92
  11   0  -7    7.18    0.92
  10   0  -7    1.10    0.72
   9   0  -7   12.31    1.02
   8   0  -7   30.64    1.38
   7   0  -7   11.50    0.82
   6   0  -7   20.86    1.03
   5   0  -7    7.26    0.63
   4   0  -7    0.32    0.34
   1   0  -7   16.94    0.89
   0   0  -7    5.24    0.38
   0   0  -7    5.10    0.55
  -1   0  -7    4.96    0.39
  -1   0  -7    5.55    0.57
   2   0   7   43.69    1.46
   3   0   7  117.64    3.90
   3   0   7  118.00    3.53
   4   0   7   36.78    1.49
   4   0   7   37.91    1.32
   5   0   7   35.50    1.24
   5   0   7   32.39    1.41
   6   0   7   26.51    1.06
   7   0   7    0.74    0.32
   8   0   7   32.24    1.28
   9   0   7    0.83    0.38
  10   0   7    0.83    0.42
  10   0   7    1.30    0.30
  11   0   7   14.20    0.90
  12   0   7   22.57    1.19
  13   0   7    7.83    0.92
  14   0   7    0.91    0.47
  14   0   7    1.52    0.71
  15   0   7    1.56    0.82
  15   0   7   -0.61    0.54
  16   0   7    0.46    0.95
  16   0   7   -0.53    0.61
  17   0   7    0.60    1.09
  18   0   7    0.96    1.23
  15  -1  -7   -2.49    1.61
  14  -1  -7    1.25    1.41
  13  -1  -7    0.79    1.17
  12  -1  -7   -1.56    0.93
  11  -1  -7    1.37    0.85
  10  -1  -7   59.03    2.38
   9  -1  -7   52.48    2.07
   8  -1  -7   -0.11    0.53
   7  -1  -7    1.68    0.47
   6  -1  -7    0.55    0.43
   5  -1  -7    1.91    0.46
   4  -1  -7    7.51    0.61
   1  -1  -7  122.67    4.03
   0  -1  -7   85.77    2.96
  -1  -1  -7  158.00    5.12
  -2  -1  -7   13.22    0.54
  -2  -1  -7   13.13    0.78
  -3  -1  -7    0.66    0.16
  -3  -1  -7    1.18    0.39
  -3  -1  -7    0.70    0.29
   3   1   7    0.82    0.23
  -4  -1  -7    1.29    0.30
  -4  -1  -7    1.44    0.41
   4   1   7    1.50    0.27
  -5  -1  -7    0.54    0.32
  -5  -1  -7    0.86    0.44
   5   1   7    0.83    0.24
   6   1   7   30.28    1.16
   7   1   7   20.45    0.91
   8   1   7    1.37    0.23
   8   1   7    1.41    0.35
   9   1   7   65.31    1.89
   9   1   7   50.04    1.99
  10   1   7    1.79    0.33
  10   1   7    1.52    0.43
  11   1   7   25.35    1.13
  11   1   7   24.71    1.19
  12   1   7    5.47    0.79
  12   1   7    6.29    0.75
  13   1   7    2.87    0.62
  13   1   7    2.92    0.49
  14   1   7    1.36    0.47
  14   1   7    1.41    0.70
  15   1   7    1.13    0.53
  15   1   7    1.28    0.81
  16   1   7    0.64    0.92
  16   1   7    2.12    0.60
  17   1   7    0.99    1.05
  17   1   7    1.09    0.68
  18   1   7    0.19    1.18
  19   1   7    0.42    1.32
  14  -2  -7    0.30    1.50
  13  -2  -7    2.47    1.28
  12  -2  -7    5.09    1.03
  11  -2  -7    6.95    0.96
  10  -2  -7    2.23    0.82
   9  -2  -7    1.97    0.66
   8  -2  -7   19.01    1.14
   7  -2  -7    7.69    0.78
   6  -2  -7   -0.52    0.47
   5  -2  -7   10.74    0.77
   4  -2  -7    9.39    0.70
   2  -2  -7   60.91    2.23
   1  -2  -7  117.78    3.91
   0  -2  -7   52.77    1.97
  -1  -2  -7    1.34    0.38
  -2  -2  -7   23.94    1.09
  -3  -2  -7    8.15    0.64
  -3  -2  -7    8.42    0.46
   3   2   7    8.66    0.49
  -4  -2  -7    3.04    0.50
  -4  -2  -7    2.84    0.32
   4   2   7    3.49    0.37
  -5  -2  -7   15.04    0.62
  -5  -2  -7   13.99    0.84
   5   2   7   15.36    0.62
   5   2   7   15.56    0.71
  -6  -2  -7   16.12    0.92
  -6  -2  -7   15.04    0.66
   6   2   7   15.78    0.74
   6   2   7   17.76    0.67
   7   2   7    2.30    0.35
   7   2   7    2.04    0.35
   8   2   7  154.66    4.72
   8   2   7  159.08    4.47
   9   2   7   21.09    1.01
   9   2   7   21.22    0.93
  10   2   7    0.52    0.38
  10   2   7    0.26    0.28
  11   2   7    4.58    0.63
  12   2   7    3.66    0.50
  12   2   7    4.78    0.78
  13   2   7    1.13    0.59
  13   2   7    0.90    0.45
  14   2   7   -0.51    0.69
  14   2   7    0.10    0.48
  15   2   7    3.90    0.81
  15   2   7    2.75    0.57
  16   2   7    1.84    0.90
  16   2   7    1.24    0.61
  17   2   7    0.90    0.70
  17   2   7    1.88    1.01
  18   2   7    1.00    0.79
  18   2   7    0.86    1.13
  19   2   7   -0.66    1.30
  14  -3  -7    9.37    1.64
  13  -3  -7   11.76    1.99
  12  -3  -7   -0.20    1.10
  11  -3  -7    0.00    0.93
  10  -3  -7   12.92    1.32
   9  -3  -7   -0.19    0.73
   8  -3  -7   10.56    1.02
   7  -3  -7    2.77    0.57
   6  -3  -7    2.27    0.52
   5  -3  -7   46.43    1.73
   4  -3  -7   74.75    2.54
   3  -3  -7   10.50    0.72
   2  -3  -7    0.69    0.51
   1  -3  -7   53.57    2.03
   0  -3  -7   52.30    1.99
  -1  -3  -7    3.44    0.54
  -2  -3  -7    0.33    0.39
  -3  -3  -7    0.18    0.37
  -4  -3  -7    0.38    0.36
   4   3   7    0.58    0.24
  -5  -3  -7   39.23    1.60
   5   3   7   39.34    1.39
   5   3   7   40.91    1.35
  -6  -3  -7    2.68    0.52
   6   3   7    2.77    0.36
   6   3   7    2.68    0.39
   7   3   7   74.54    2.31
   7   3   7   77.73    2.45
   8   3   7    9.57    0.64
   8   3   7    9.53    0.59
   9   3   7   15.30    0.80
   9   3   7   16.22    0.86
  10   3   7    3.87    0.60
  10   3   7    4.25    0.57
  11   3   7   40.96    1.61
  11   3   7   40.36    1.57
  12   3   7    1.93    0.42
  12   3   7    2.84    0.56
  13   3   7    1.06    0.62
  13   3   7    0.38    0.44
  14   3   7    3.16    0.49
  14   3   7    4.70    0.72
  15   3   7    1.02    0.77
  15   3   7   -0.24    0.53
  16   3   7    1.44    0.87
  16   3   7    0.65    0.60
  17   3   7    3.36    1.02
  17   3   7    1.31    0.68
  18   3   7   -0.05    1.12
  18   3   7    0.44    0.78
  19   3   7    0.28    1.28
  14  -4  -7    2.84    1.73
  13  -4  -7    2.23    1.51
  12  -4  -7   13.88    1.74
  11  -4  -7    2.85    1.05
  10  -4  -7   -1.27    0.94
   9  -4  -7   -0.30    0.84
   8  -4  -7    0.60    0.71
   7  -4  -7    1.84    0.61
   6  -4  -7    6.04    0.79
   5  -4  -7   13.39    0.89
   4  -4  -7  125.11    3.96
   3  -4  -7   13.16    0.80
   2  -4  -7   10.42    0.85
   1  -4  -7    4.54    0.71
   0  -4  -7    5.39    0.66
  -1  -4  -7    2.63    0.48
  -2  -4  -7   23.14    1.14
  -3  -4  -7   13.39    0.84
  -4  -4  -7   54.14    2.05
   4   4   7   53.91    1.78
  -5  -4  -7   67.17    2.40
   5   4   7   68.06    2.11
   5   4   7   62.96    2.11
  -6  -4  -7   28.12    1.26
   6   4   7   25.64    1.04
   6   4   7   28.02    1.07
   7   4   7    0.66    0.24
   7   4   7    0.33    0.28
   8   4   7   98.69    3.04
   8   4   7  101.97    3.15
   9   4   7    0.95    0.28
   9   4   7    1.56    0.38
  10   4   7    8.22    0.68
  10   4   7    7.42    0.68
  11   4   7   25.47    1.18
  11   4   7   27.49    1.23
  12   4   7    0.29    0.52
  12   4   7    1.10    0.42
  13   4   7    9.06    0.92
  13   4   7    8.12    0.86
  14   4   7    1.49    0.71
  14   4   7   -0.49    0.48
  15   4   7    3.20    0.56
  16   4   7    2.82    0.92
  16   4   7    1.25    0.62
  17   4   7    2.65    0.71
  17   4   7    4.03    1.03
  18   4   7    0.89    1.12
  18   4   7   -0.62    0.79
  19   4   7    1.85    1.27
  19   4   7   -1.10    0.88
  13  -5  -7    2.85    1.66
  12  -5  -7    4.71    1.39
  10  -5  -7    0.72    1.00
   9  -5  -7    2.88    0.94
   8  -5  -7   -0.27    0.77
   7  -5  -7    5.36    0.98
   6  -5  -7    4.59    0.88
   5  -5  -7   75.13    2.61
   4  -5  -7   32.88    1.37
   3  -5  -7    1.31    0.45
   2  -5  -7   10.24    0.97
   2  -5  -7   10.25    0.75
   1  -5  -7    6.05    0.82
   0  -5  -7    5.08    0.69
  -1  -5  -7    1.68    0.55
  -2  -5  -7    6.58    0.70
  -3  -5  -7   86.89    3.08
  -4  -5  -7   87.96    3.09
  -5  -5  -7   91.20    3.17
   5   5   7   90.74    2.83
  -6  -5  -7    6.02    0.69
   6   5   7    6.00    0.55
  -7  -5  -7    5.68    0.71
   7   5   7    4.64    0.51
   8   5   7   11.83    0.68
   8   5   7   11.94    0.70
   9   5   7    0.29    0.39
   9   5   7   -0.10    0.27
  10   5   7    5.03    0.65
  10   5   7    5.25    0.69
  11   5   7   18.84    0.97
  11   5   7   17.68    1.04
  12   5   7    8.35    0.84
  12   5   7    5.98    0.80
  13   5   7    4.81    0.81
  13   5   7    5.12    0.89
  14   5   7   19.18    1.20
  14   5   7   22.33    1.30
  15   5   7    2.35    0.80
  16   5   7    0.21    0.64
  16   5   7    2.78    0.91
  17   5   7    0.50    0.72
  17   5   7    1.10    1.02
  18   5   7    3.12    1.16
  18   5   7   -0.19    0.81
  19   5   7    0.37    1.33
  19   5   7   -0.98    0.92
  13  -6  -7   -1.92    1.80
  12  -6  -7    0.93    1.56
  11  -6  -7    1.65    1.25
  10  -6  -7    1.86    1.09
   9  -6  -7   -0.96    1.00
   8  -6  -7   34.56    1.80
   7  -6  -7    7.41    0.86
   6  -6  -7   22.15    1.27
   5  -6  -7    7.83    0.87
   4  -6  -7    8.95    0.84
   3  -6  -7    0.68    0.47
   2  -6  -7    2.54    0.47
   2  -6  -7    2.58    0.80
   1  -6  -7   -0.23    0.65
   0  -6  -7    7.36    0.86
  -1  -6  -7   18.19    1.10
  -2  -6  -7   10.19    0.86
  -3  -6  -7    1.43    0.53
  -4  -6  -7  139.63    4.66
  -5  -6  -7   30.32    1.41
   5   6   7   30.65    1.24
  -6  -6  -7    5.18    0.71
   6   6   7    4.82    0.52
  -7  -6  -7    3.58    0.74
   7   6   7    3.48    0.53
   8   6   7    4.27    0.57
   9   6   7    3.47    0.59
  10   6   7    0.43    0.34
  11   6   7   11.46    0.91
  12   6   7   15.88    1.00
  12   6   7   18.68    1.06
  13   6   7   14.24    1.05
  13   6   7   11.83    1.00
  14   6   7    0.93    0.73
  14   6   7    0.30    0.51
  15   6   7    0.64    0.58
  15   6   7    1.06    0.82
  16   6   7    0.43    0.64
  16   6   7    2.32    0.91
  17   6   7    1.14    1.02
  17   6   7    0.49    0.74
  18   6   7    1.91    1.14
  18   6   7   -0.73    0.83
  19   6   7    1.30    0.94
  19   6   7    1.70    1.26
  12  -7  -7    1.20    1.75
  11  -7  -7    1.42    1.46
  10  -7  -7   -2.14    1.21
   9  -7  -7   37.01    2.00
   8  -7  -7   14.54    1.50
   7  -7  -7    6.00    0.90
   6  -7  -7    2.87    0.77
   5  -7  -7   11.00    1.07
   4  -7  -7    1.04    0.61
   3  -7  -7   17.73    0.97
   3  -7  -7   15.12    1.32
   2  -7  -7   -0.67    0.87
   1  -7  -7    3.34    0.82
   0  -7  -7   41.24    1.90
  -1  -7  -7   55.04    2.24
  -2  -7  -7   12.97    1.01
  -3  -7  -7   18.18    1.14
  -4  -7  -7    6.76    0.83
  -5  -7  -7    2.12    0.64
  -6  -7  -7    4.30    0.79
   6   7   7    4.86    0.58
  -7  -7  -7    9.43    0.91
   7   7   7   11.40    0.74
   8   7   7   12.78    0.81
   9   7   7    2.28    0.43
  10   7   7   38.11    1.57
  11   7   7    0.97    0.38
  12   7   7    0.20    0.42
  13   7   7   15.20    1.06
  14   7   7    7.17    1.04
  15   7   7    0.35    0.63
  16   7   7    0.46    0.69
  17   7   7   -0.55    0.76
  18   7   7   -1.39    0.86
  19   7   7   -0.66    0.95
  11  -8  -7   -1.21    1.66
  10  -8  -7    1.95    1.37
   9  -8  -7   -1.41    1.18
   8  -8  -7   21.50    1.74
   7  -8  -7    0.76    1.03
   6  -8  -7    6.27    0.90
   5  -8  -7    0.35    0.77
   3  -8  -7   36.75    1.86
   2  -8  -7   -1.36    0.91
   1  -8  -7    6.23    1.08
   0  -8  -7   65.28    2.60
  -1  -8  -7  125.37    4.36
  -2  -8  -7   11.83    1.02
  -3  -8  -7    3.19    0.72
  -4  -8  -7    0.64    0.65
   5   8   7    2.62    0.43
  -6  -8  -7    7.39    0.90
   6   8   7    7.50    0.69
  -7  -8  -7    9.97    0.93
   7   8   7    8.88    0.76
   8   8   7   38.47    1.59
   9   8   7   28.99    1.28
  10   8   7    5.81    0.67
  11   8   7    1.36    0.40
  12   8   7    1.37    0.45
  13   8   7    1.06    0.51
  14   8   7    3.26    0.60
  15   8   7   -0.66    0.63
  16   8   7    0.76    0.72
  17   8   7    1.58    0.81
  18   8   7    0.87    0.92
  19   8   7    2.24    1.04
  11  -9  -7    4.83    1.88
  10  -9  -7   -1.56    1.60
   9  -9  -7    8.85    1.40
   7  -9  -7   -0.82    1.15
   6  -9  -7   -0.34    1.02
   3  -9  -7   -0.63    1.15
   2  -9  -7   23.24    1.56
   1  -9  -7    8.20    1.20
   0  -9  -7   58.61    2.49
  -1  -9  -7    2.10    0.84
  -2  -9  -7    3.52    0.83
  -3  -9  -7    3.34    0.73
  -4  -9  -7    3.18    0.68
  -5  -9  -7    1.66    0.66
   5   9   7    0.60    0.38
  -6  -9  -7    1.90    0.68
   6   9   7    1.42    0.40
  -7  -9  -7   22.58    1.24
   7   9   7   20.47    1.07
  -8  -9  -7    4.20    0.77
   8   9   7    2.59    0.42
   9   9   7   18.50    1.01
  10   9   7   43.02    1.72
  11   9   7   -0.11    0.42
  12   9   7    0.02    0.47
  13   9   7    1.40    0.53
  14   9   7    3.48    0.61
  15   9   7    0.25    0.67
  16   9   7    0.01    0.76
  17   9   7   -0.32    0.85
  18   9   7    3.36    0.96
  19   9   7   -1.04    1.07
   3 -10  -7   84.25    3.40
   2 -10  -7   -0.09    1.18
   1 -10  -7    1.38    1.10
   0 -10  -7    2.36    1.01
  -1 -10  -7   -0.23    0.92
  -2 -10  -7    2.11    0.89
  -3 -10  -7   -0.84    0.83
  -4 -10  -7    2.71    0.81
  -5 -10  -7   10.80    1.05
  -6 -10  -7   27.21    1.47
   6  10   7   27.19    1.28
  -7 -10  -7   24.54    1.37
   7  10   7   23.06    1.15
  -8 -10  -7   14.25    1.14
   8  10   7   14.68    0.93
  -9 -10  -7   42.42    1.89
   9  10   7   40.86    1.71
  10  10   7    0.67    0.45
  11  10   7    0.85    0.46
  12  10   7   -0.52    0.49
  13  10   7    1.73    0.56
  14  10   7    0.03    0.62
  15  10   7    0.36    0.70
  16  10   7    1.65    0.80
  17  10   7    3.46    0.91
  18  10   7   -1.12    1.01
  19  10   7   -0.60    1.13
   4 -11  -7   34.74    2.29
   3 -11  -7    9.19    1.65
   2 -11  -7    7.63    1.57
   1 -11  -7   -1.30    1.22
   0 -11  -7   -0.18    1.15
  -1 -11  -7    9.96    1.36
  -2 -11  -7    1.26    0.99
  -3 -11  -7    4.84    0.95
  -4 -11  -7    4.19    0.92
  -5 -11  -7   29.57    1.62
  -6 -11  -7   46.00    2.09
   6  11   7   47.72    1.94
  -7 -11  -7    0.55    0.88
   7  11   7    1.43    0.47
  -8 -11  -7    3.51    0.91
   8  11   7    4.98    0.79
   9  11   7   -0.38    0.47
  10  11   7    0.74    0.47
  11  11   7   -0.15    0.50
  12  11   7    1.85    0.54
  13  11   7    1.16    0.59
  14  11   7    6.52    0.73
  15  11   7    2.51    0.74
  16  11   7   -0.25    0.83
  17  11   7    0.17    0.92
  18  11   7    2.03    1.05
  19  11   7    1.36    1.19
   4 -12  -7    5.34    1.88
   3 -12  -7   23.77    2.21
   2 -12  -7    6.35    1.49
   1 -12  -7    4.11    1.37
   0 -12  -7   -0.90    1.28
  -1 -12  -7   -0.97    1.20
  -2 -12  -7    0.36    1.16
  -3 -12  -7    6.48    1.35
  -4 -12  -7    5.31    1.07
  -5 -12  -7   16.15    1.39
  -6 -12  -7    7.44    1.21
   6  12   7    7.24    0.93
  -7 -12  -7   10.38    1.24
   7  12   7   12.34    0.99
  -8 -12  -7    2.74    0.97
   8  12   7    1.65    0.51
  -9 -12  -7    1.16    0.96
   9  12   7   -0.43    0.50
  10  12   7    4.18    0.58
  11  12   7    0.18    0.55
  12  12   7   -0.28    0.59
  13  12   7    7.81    1.16
  14  12   7    0.72    0.68
  15  12   7    1.17    0.75
  16  12   7    0.57    0.87
  17  12   7    2.07    0.97
  18  12   7    1.72    1.09
   4 -13  -7    9.02    2.25
   3 -13  -7    5.43    2.02
   2 -13  -7    0.98    1.82
   1 -13  -7    2.28    1.61
   0 -13  -7    3.53    1.43
  -1 -13  -7   10.75    1.66
  -2 -13  -7   22.71    1.79
  -3 -13  -7    1.65    1.21
  -4 -13  -7    3.13    1.15
  -5 -13  -7   15.15    1.50
  -6 -13  -7    7.27    1.16
  -7 -13  -7    1.61    1.09
   7  13   7    1.14    0.58
  -8 -13  -7    1.00    1.08
   8  13   7    0.93    0.57
  -9 -13  -7    2.55    1.10
   9  13   7    2.06    0.57
 -10 -13  -7    2.61    1.11
  10  13   7    1.32    0.58
  11  13   7   -0.88    0.60
  12  13   7    0.41    0.63
  13  13   7   -0.93    0.68
  14  13   7    5.44    0.78
  15  13   7   -1.40    0.81
  16  13   7    0.36    0.89
  17  13   7   -1.08    0.99
  18  13   7   -2.14    1.13
   4 -14  -7    3.30    2.53
   3 -14  -7    4.01    2.33
   2 -14  -7    2.47    2.15
   1 -14  -7    6.22    1.97
   0 -14  -7    2.96    1.78
  -1 -14  -7   23.68    2.06
  -2 -14  -7   21.85    1.89
  -3 -14  -7    3.52    1.38
  -4 -14  -7   -0.26    1.32
  -5 -14  -7    3.13    1.27
  -6 -14  -7    2.22    1.23
  -7 -14  -7    0.10    1.20
   7  14   7   -0.17    0.65
  -8 -14  -7   -0.34    1.20
   8  14   7    1.62    0.64
  -9 -14  -7    4.70    1.22
   9  14   7    2.87    0.65
  10  14   7    2.01    0.63
  11  14   7    6.91    1.13
  12  14   7    0.20    0.70
  13  14   7    2.80    0.73
  14  14   7   -1.10    0.80
  15  14   7   -0.56    0.87
  16  14   7    0.59    0.96
  17  14   7    0.37    1.05
   4 -15  -7    6.44    2.83
   3 -15  -7   -1.81    2.67
   2 -15  -7    8.50    2.53
   1 -15  -7   13.86    2.35
   0 -15  -7   12.60    2.15
  -1 -15  -7   11.09    2.32
  -2 -15  -7    9.49    1.82
  -3 -15  -7    8.40    1.68
  -4 -15  -7    0.56    1.48
  -5 -15  -7    1.72    1.41
  -6 -15  -7    0.71    1.34
  -7 -15  -7    3.53    1.31
  -8 -15  -7    1.78    1.28
   8  15   7    0.15    0.71
  -9 -15  -7    2.83    1.27
   9  15   7    0.26    0.70
  10  15   7    8.05    1.23
  11  15   7    4.35    0.73
  12  15   7   -0.34    0.74
  13  15   7   -0.44    0.81
  14  15   7   -0.57    0.85
  15  15   7   -0.26    0.94
  16  15   7   -0.35    1.04
  17  15   7   -0.69    1.13
   3 -16  -7    7.02    3.02
   2 -16  -7   10.76    2.89
   1 -16  -7    2.96    2.67
   0 -16  -7    3.29    2.51
  -1 -16  -7    4.68    2.27
  -2 -16  -7    2.05    2.09
  -3 -16  -7    2.57    1.96
  -4 -16  -7   -0.48    1.88
  -5 -16  -7    0.07    1.75
  -6 -16  -7    2.68    1.66
  -7 -16  -7    3.18    1.60
  -8 -16  -7    2.33    1.56
  -9 -16  -7    2.25    1.57
   9  16   7    1.43    0.81
 -10 -16  -7    3.12    1.61
  10  16   7    1.37    0.80
 -11 -16  -7    3.14    1.70
  11  16   7    1.80    0.79
  12  16   7    1.81    0.82
  13  16   7   -0.41    0.86
  14  16   7   -0.90    0.95
  15  16   7   -1.28    1.00
  16  16   7   -0.61    1.08
   1 -17  -7    3.85    3.04
   0 -17  -7   -3.86    2.92
  -1 -17  -7    0.76    2.67
  -2 -17  -7    5.24    2.53
  -3 -17  -7    1.51    2.27
  -4 -17  -7    1.76    2.16
  -5 -17  -7    5.04    2.06
  -6 -17  -7    6.44    1.98
  -7 -17  -7    9.48    1.96
  -8 -17  -7    4.52    1.90
  -9 -17  -7    1.32    1.88
   9  17   7   -0.45    0.91
 -10 -17  -7    3.23    1.89
  10  17   7    1.77    0.90
 -11 -17  -7    2.95    1.95
  12  17   7    1.70    0.91
  13  17   7    1.36    0.94
  14  17   7   -0.77    1.00
  15  17   7   -1.26    1.10
  -1 -18  -7    0.87    3.13
  -2 -18  -7   -1.03    2.94
  -3 -18  -7    4.06    2.76
  -4 -18  -7    3.18    2.61
  -5 -18  -7    4.46    2.49
  -6 -18  -7    7.00    2.35
  -7 -18  -7    8.86    2.25
  -8 -18  -7    0.93    2.17
  -9 -18  -7    0.59    2.16
 -10 -18  -7   -1.47    2.21
  10  18   7    0.39    1.01
 -11 -18  -7    3.89    2.31
  11  18   7    2.53    1.03
  12  18   7    0.74    1.04
  13  18   7   -0.03    1.06
  -4 -19  -7    0.11    3.04
  -5 -19  -7    0.93    2.91
  -6 -19  -7   -3.10    2.70
  -7 -19  -7    2.75    2.66
  -8 -19  -7    0.89    2.62
  -9 -19  -7   -0.30    2.67
 -10 -19  -7    1.53    2.67
   8  18  -8   -1.86    1.13
  -8 -18   8    3.38    2.76
   7  18  -8    0.18    1.10
  -7 -18   8    2.13    2.59
   6  18  -8   -0.95    1.11
  -6 -18   8   -1.46    2.53
   5  18  -8    2.25    1.12
  -5 -18   8   -2.01    2.55
   4  18  -8    0.29    1.17
  -4 -18   8   -1.67    2.70
   3  18  -8    1.18    1.22
  -3 -18   8   -0.05    2.78
  -2 -18   8   -0.65    2.84
  -1 -18   8   -4.51    2.95
   0 -18   8   -4.84    3.11
  10  17  -8   -1.57    1.09
   9  17  -8    0.20    1.04
   8  17  -8   -0.41    1.01
   6  17  -8   -0.14    0.98
  -6 -17   8   -1.84    2.31
   5  17  -8   -0.16    0.99
  -5 -17   8    0.55    2.34
   4  17  -8    2.21    1.01
  -4 -17   8   -1.35    2.35
   3  17  -8    0.72    1.05
  -3 -17   8   -0.81    2.40
   2  17  -8    0.83    1.13
  -2 -17   8    0.74    2.48
  -1 -17   8   -0.12    2.60
   0 -17   8   -3.28    2.67
   1 -17   8   -3.50    2.90
   2 -17   8   -1.87    2.98
   3 -17   8   -1.76    3.08
  12  16  -8   -0.57    1.14
  11  16  -8    1.61    1.05
  10  16  -8   -0.59    1.00
   9  16  -8    0.92    0.94
   8  16  -8   -0.49    0.88
   7  16  -8   -0.39    0.87
   6  16  -8    0.10    0.87
  -6 -16   8    0.15    2.07
   5  16  -8    0.31    0.87
  -5 -16   8   -1.07    2.05
   4  16  -8   -0.45    0.88
  -4 -16   8    0.91    2.10
   3  16  -8    0.53    0.92
  -3 -16   8   -1.06    2.12
   2  16  -8    1.20    0.96
  -2 -16   8   -0.02    2.19
  -1 -16   8   -0.77    2.27
   0 -16   8    0.99    2.35
   1 -16   8    0.06    2.44
   2 -16   8   -0.20    2.57
   3 -16   8   -3.99    2.69
   4 -16   8   -1.42    2.85
   5 -16   8    1.50    3.00
  13  15  -8   -1.31    1.15
  12  15  -8   -0.40    1.06
  11  15  -8    1.56    0.99
  10  15  -8   -1.14    0.90
   9  15  -8    0.90    0.83
   8  15  -8    0.29    0.81
   7  15  -8   -1.16    0.78
  -7 -15   8    2.81    1.95
   6  15  -8    2.00    0.77
  -6 -15   8    4.67    1.91
   5  15  -8   -0.91    0.76
  -5 -15   8   -1.45    1.84
   4  15  -8    0.27    0.77
   3  15  -8   -0.72    0.79
  -3 -15   8   -0.42    1.90
   2  15  -8    0.41    0.85
  -2 -15   8    1.90    1.93
   1  15  -8    1.54    0.89
  -1 -15   8   -0.13    1.98
   0 -15   8    1.05    2.04
   1 -15   8    3.46    2.14
   2 -15   8   -0.85    2.24
   3 -15   8    5.52    2.40
   4 -15   8   -1.46    2.46
   5 -15   8   -1.34    2.62
   6 -15   8    1.25    2.82
   7 -15   8   11.72    3.14
  14  14  -8   -1.63    1.16
  13  14  -8   -1.35    1.09
  12  14  -8   -1.17    1.00
  11  14  -8    1.14    0.91
  10  14  -8    0.22    0.84
   9  14  -8    0.51    0.77
   8  14  -8    0.45    0.72
   7  14  -8    0.14    0.69
   6  14  -8    0.60    0.68
  -6 -14   8    2.06    1.69
   5  14  -8    0.31    0.66
  -5 -14   8   -0.48    1.65
   4  14  -8   -0.50    0.68
  -4 -14   8   -0.20    1.66
   3  14  -8   -0.24    0.69
  -3 -14   8   -2.11    1.67
   2  14  -8    0.86    0.72
  -2 -14   8    1.36    1.71
   1  14  -8   -0.11    0.76
  -1 -14   8    1.77    1.73
   0 -14   8    3.61    1.79
   1 -14   8   -0.63    1.84
   2 -14   8    7.53    1.97
   3 -14   8    0.30    2.07
   4 -14   8   -1.01    2.17
   5 -14   8    1.73    2.32
   6 -14   8    3.35    2.43
   7 -14   8    8.63    2.70
   8 -14   8    4.08    2.95
  14  13  -8   -1.74    1.09
  13  13  -8   -0.59    0.98
  12  13  -8    1.07    0.89
  11  13  -8   -0.35    0.83
  10  13  -8   -0.80    0.77
   9  13  -8    2.39    0.72
   8  13  -8    0.58    0.67
   7  13  -8    2.58    0.63
  -6 -13   8    2.69    1.53
   5  13  -8   -0.03    0.59
  -5 -13   8   -1.23    1.51
   4  13  -8    1.60    0.61
  -4 -13   8    1.86    1.49
   3  13  -8   -0.32    0.60
  -3 -13   8    1.84    1.49
  -2 -13   8    0.52    1.49
   1  13  -8    7.48    1.11
  -1 -13   8    9.29    1.83
   0  13  -8    3.59    0.72
   0 -13   8    4.01    1.59
   1 -13   8    0.36    1.59
   2 -13   8    0.48    1.68
   3 -13   8    3.81    1.80
   4 -13   8    0.21    1.88
   5 -13   8   -0.23    2.03
   6 -13   8    3.22    2.13
   7 -13   8    4.90    2.39
   8 -13   8    8.11    2.56
  15  12  -8   -1.35    1.06
  14  12  -8    0.05    0.98
  13  12  -8   -0.30    0.90
  11  12  -8   -1.05    0.76
  10  12  -8    3.62    0.73
   9  12  -8    2.68    0.65
   8  12  -8    1.91    0.61
   7  12  -8    0.57    0.57
   6  12  -8    1.30    0.54
   5  12  -8    0.56    0.52
  -5 -12   8    1.66    1.32
   4  12  -8   11.00    0.97
  -4 -12   8   10.62    1.65
   3  12  -8   -0.69    0.53
  -3 -12   8   -0.62    1.31
   2  12  -8   -0.11    0.54
  -2 -12   8    0.46    1.31
  -1 -12   8    3.90    1.35
   0  12  -8    7.66    1.02
   0 -12   8    8.54    1.40
   1 -12   8    1.22    1.39
   2 -12   8    9.62    1.55
   3 -12   8   -1.45    1.53
   4 -12   8   -0.97    1.63
   5 -12   8   14.58    2.13
   6 -12   8    7.71    1.89
   7 -12   8    5.19    2.07
   8 -12   8    0.78    2.23
   9 -12   8   -1.40    2.28
  15  11  -8    1.20    1.09
  14  11  -8    0.71    1.00
  13  11  -8    3.83    0.92
  12  11  -8    1.76    0.83
  11  11  -8   -0.03    0.74
  10  11  -8   -0.10    0.64
   9  11  -8   -0.09    0.60
   8  11  -8    1.17    0.56
   7  11  -8    0.97    0.51
   6  11  -8    0.11    0.49
  -5 -11   8    8.33    1.56
   4  11  -8    0.24    0.45
  -4 -11   8    0.99    1.15
   3  11  -8    0.16    0.45
  -3 -11   8    1.00    1.19
   2  11  -8    1.89    0.47
  -2 -11   8    3.04    1.18
   1  11  -8    9.01    0.99
  -1 -11   8    8.81    1.48
   0  11  -8   -0.52    0.59
   0 -11   8   -1.54    1.20
  -1  11  -8    1.19    0.61
   1 -11   8   -1.05    1.22
   2 -11   8    0.09    1.27
   3 -11   8   -0.26    1.32
   4 -11   8    9.23    1.71
   5 -11   8    2.06    1.46
   6 -11   8   10.92    1.97
   7 -11   8    7.45    1.87
   8 -11   8   13.45    2.06
  15  10  -8   -0.13    0.94
  14  10  -8    3.91    0.89
  13  10  -8   -0.63    0.79
  12  10  -8    0.09    0.72
  11  10  -8   -0.07    0.69
  10  10  -8   -0.32    0.61
   9  10  -8    0.45    0.57
   8  10  -8    0.88    0.52
   7  10  -8    0.32    0.47
   6  10  -8    0.85    0.45
   5  10  -8    8.65    0.81
   4  10  -8   18.97    1.02
  -4 -10   8   24.06    1.65
  -3 -10   8    1.98    1.04
   2  10  -8    1.01    0.47
  -2 -10   8    0.63    1.08
   1  10  -8    4.76    0.84
  -1 -10   8    3.96    1.08
   0  10  -8    0.86    0.50
   0 -10   8    0.46    1.04
  -1  10  -8    1.95    0.55
   1 -10   8    0.12    1.07
   2 -10   8   -0.31    1.12
   3 -10   8    0.59    1.18
   4 -10   8    0.94    1.16
   5 -10   8   17.74    1.68
   6 -10   8   12.56    1.78
   7 -10   8    8.78    1.68
   8 -10   8   -2.27    1.71
   9 -10   8    4.23    1.79
  16   9  -8    0.90    0.94
  15   9  -8    0.60    0.85
  14   9  -8    1.00    0.78
  13   9  -8    0.75    0.71
  12   9  -8    0.01    0.65
  11   9  -8    2.42    0.63
  10   9  -8   -0.37    0.56
   9   9  -8    0.30    0.52
   8   9  -8   16.03    1.08
   7   9  -8    2.17    0.45
   6   9  -8    4.53    0.75
   5   9  -8    7.86    0.73
   4   9  -8   20.15    1.01
  -4  -9   8   20.26    1.50
   3   9  -8    1.83    0.40
  -3  -9   8    3.26    1.00
   2   9  -8    9.98    0.77
  -2  -9   8    9.19    1.23
   1   9  -8    0.44    0.38
  -1  -9   8    0.65    0.87
   0   9  -8    1.05    0.39
   0  -9   8    0.68    0.86
  -1   9  -8   11.70    0.89
   1  -9   8   12.12    1.23
   2  -9   8   12.70    1.28
   3  -9   8   15.23    1.36
   4  -9   8   25.44    1.66
   5  -9   8   10.21    1.48
   6  -9   8    7.93    1.58
   7  -9   8   -0.41    1.37
   8  -9   8    9.05    1.58
  16   8  -8    0.90    0.92
  15   8  -8    0.67    0.83
  14   8  -8    1.32    0.76
  13   8  -8   -0.44    0.68
  12   8  -8    0.43    0.63
  11   8  -8    0.52    0.58
  10   8  -8    0.30    0.54
   9   8  -8   13.38    1.05
   8   8  -8    0.97    0.45
   7   8  -8   17.15    1.00
   6   8  -8    0.52    0.38
   5   8  -8   20.37    1.02
   4   8  -8    6.29    0.68
  -4  -8   8    6.43    1.06
   3   8  -8    4.40    0.61
  -3  -8   8    4.99    0.98
   2   8  -8    5.90    0.61
  -2  -8   8    5.98    1.09
   1   8  -8    3.37    0.57
  -1  -8   8    5.32    1.06
   0   8  -8    5.66    0.64
   0  -8   8    5.85    1.08
  -1   8  -8    9.17    0.75
   1  -8   8   11.30    1.15
  -2   8  -8   -0.52    0.39
   2  -8   8    0.42    0.87
   3  -8   8    1.93    0.93
   4  -8   8    8.36    1.24
   5  -8   8   26.78    1.69
   6  -8   8    0.34    1.11
   7  -8   8    0.80    1.20
   8  -8   8   -1.21    1.33
  13  -8   8    2.82    1.20
  14  -8   8    0.68    1.38
  16   7  -8    0.36    0.87
  15   7  -8   -0.19    0.78
   8   7  -8   48.14    1.94
   7   7  -8    0.19    0.38
   6   7  -8    7.11    0.72
   5   7  -8    0.90    0.32
   4   7  -8   -0.43    0.30
   3   7  -8    0.80    0.30
  -3  -7   8    1.83    0.87
   2   7  -8    4.08    0.53
  -2  -7   8    6.25    1.01
   1   7  -8    7.07    0.58
  -1  -7   8    8.05    1.05
   0   7  -8   12.06    0.69
   0  -7   8   12.36    1.15
  -1   7  -8   40.03    1.40
   1  -7   8   37.29    1.86
  -2   7  -8    1.93    0.37
   2  -7   8    2.63    0.78
   3  -7   8   17.41    1.27
   4  -7   8   27.30    1.60
   5  -7   8   -1.07    0.89
   6  -7   8    6.26    1.02
   7  -7   8   11.74    1.39
   8  -7   8    5.53    1.28
  11  -7   8    0.31    0.84
  12  -7   8    7.86    1.24
  13  -7   8    4.63    1.07
  14  -7   8    0.17    1.22
  15  -7   8    0.43    1.42
   4   6  -8    5.68    0.60
   3   6  -8    5.32    0.55
  -3  -6   8    6.00    0.86
   2   6  -8   14.83    0.77
  -2  -6   8   16.23    1.19
   1   6  -8    3.11    0.47
   0   6  -8   35.12    1.25
   0  -6   8   33.68    1.71
  -1   6  -8   12.84    0.67
   1  -6   8   14.82    1.12
   2  -6   8    8.43    1.07
   3  -6   8   13.78    1.18
   4  -6   8    0.42    0.78
   5  -6   8    3.20    0.85
   6  -6   8    0.33    0.91
   7  -6   8    8.55    1.10
   8  -6   8   17.28    0.95
   8  -6   8   15.91    1.47
  10  -6   8    7.90    0.96
  11  -6   8    1.57    0.75
  12  -6   8    1.98    0.84
  13  -6   8   -0.64    0.94
  14  -6   8    1.14    1.10
  15  -6   8   -0.19    1.26
  13   5  -8    1.30    0.96
   2   5  -8   17.57    0.78
  -2  -5   8   14.38    1.10
   1   5  -8   12.46    0.62
  -1  -5   8   10.43    0.99
   0   5  -8   60.56    1.88
   0  -5   8   59.66    2.39
  -1   5  -8   31.69    1.09
   1  -5   8   32.10    1.58
   2  -5   8    5.57    0.88
   3  -5   8    4.28    0.85
   4  -5   8    1.94    0.72
   5  -5   8    3.22    0.86
   6  -5   8    6.80    1.09
   7  -5   8   11.46    0.75
   7  -5   8   11.75    1.20
   8  -5   8   37.55    1.48
   9  -5   8    4.71    0.73
  10  -5   8    8.36    0.89
  11  -5   8    1.76    0.68
  12  -5   8    2.92    0.76
  13  -5   8    1.90    0.88
  14  -5   8   -0.06    0.99
  15  -5   8    0.93    1.15
  16  -5   8    0.38    1.29
  15   4  -8    3.10    1.43
  14   4  -8    0.36    1.30
  13   4  -8    9.06    1.08
  12   4  -8    6.57    1.27
  10   4  -8   -0.05    0.68
  -2  -4   8    4.12    0.77
  -1  -4   8    2.79    0.61
   0   4  -8   26.81    0.96
   0  -4   8   26.74    1.36
   1  -4   8    0.55    0.58
   2  -4   8   -0.12    0.58
   3  -4   8    5.08    0.72
   4  -4   8    2.69    0.47
   4  -4   8    2.70    0.69
   5  -4   8   11.96    1.05
   5  -4   8   11.06    0.71
   6  -4   8   21.78    1.36
   6  -4   8   21.77    1.00
   7  -4   8   18.43    0.93
   7  -4   8   18.21    1.36
   8  -4   8    2.37    0.45
   9  -4   8   17.61    0.96
  10  -4   8    7.04    0.82
  11  -4   8    0.86    0.62
  12  -4   8   -0.14    0.70
  13  -4   8    0.12    0.80
  14  -4   8    8.13    1.26
  15  -4   8    1.74    1.07
  16  -4   8    0.29    1.21
  17  -4   8   -0.02    1.43
  15   3  -8   -0.05    1.45
  14   3  -8    1.92    1.29
  13   3  -8   -1.00    0.99
  12   3  -8    8.26    1.00
  11   3  -8    4.06    0.87
  10   3  -8    4.05    0.72
   9   3  -8   -0.43    0.59
   8   3  -8    6.09    0.83
   7   3  -8    1.54    0.50
   5   3  -8    5.34    0.62
  -2  -3   8   27.95    1.33
  -1  -3   8   15.86    0.95
   0  -3   8    2.04    0.51
   1  -3   8    2.08    0.53
   2  -3   8    3.42    0.43
   3  -3   8   13.57    0.70
   3  -3   8   13.63    0.91
   4  -3   8   16.63    0.81
   4  -3   8   17.31    1.05
   5  -3   8   39.77    1.46
   5  -3   8   39.75    1.76
   6  -3   8   32.75    1.58
   6  -3   8   34.15    1.31
   7  -3   8   23.94    1.09
   7  -3   8   24.92    1.41
   8  -3   8   29.44    1.22
   9  -3   8   13.23    0.82
  10  -3   8    1.52    0.53
  11  -3   8    0.93    0.58
  12  -3   8    3.08    0.67
  13  -3   8    4.66    0.77
  14  -3   8    0.15    0.85
  15  -3   8    1.56    0.99
  16  -3   8    0.84    1.12
  17  -3   8    3.64    1.30
  16   2  -8   -0.95    1.67
  15   2  -8    2.08    1.51
  14   2  -8    1.60    1.35
  13   2  -8    7.63    1.48
  12   2  -8   -1.25    0.91
  11   2  -8    0.50    0.87
  10   2  -8    3.01    0.71
   9   2  -8   -0.29    0.59
   8   2  -8    4.43    0.80
   7   2  -8   12.13    0.92
   6   2  -8   75.64    2.59
   5   2  -8   17.69    0.95
  -2  -2   8    1.89    0.46
  -1  -2   8    1.51    0.46
   0  -2   8    1.03    0.44
   1  -2   8   15.43    0.90
   2  -2   8    6.37    0.61
   2  -2   8    5.51    0.46
   3  -2   8    1.54    0.31
   3  -2   8    1.35    0.48
   4  -2   8    9.55    0.60
   4  -2   8   10.60    0.80
   5  -2   8   80.87    2.57
   5  -2   8   79.72    2.92
   6  -2   8   35.57    1.34
   6  -2   8   33.30    1.57
   7  -2   8    1.70    0.38
   8  -2   8    0.12    0.36
   9  -2   8    0.28    0.41
  10  -2   8    7.84    0.72
  11  -2   8    0.53    0.55
  12  -2   8    0.33    0.61
  13  -2   8    1.20    0.69
  14  -2   8   28.83    1.54
  15  -2   8    0.09    0.92
  16  -2   8    0.76    1.06
  17  -2   8   -1.58    1.22
  15   1  -8    0.22    1.58
  14   1  -8    0.13    1.38
  13   1  -8   -0.47    1.05
  12   1  -8   -0.52    0.95
  11   1  -8   -0.80    0.88
  10   1  -8    1.11    0.71
   9   1  -8    0.53    0.62
   8   1  -8   29.13    1.38
   7   1  -8   67.80    2.43
   6   1  -8    0.68    0.43
   5   1  -8    2.61    0.48
   0  -1   8   14.61    0.84
   1  -1   8   59.60    2.20
   2  -1   8   63.09    2.32
   2  -1   8   63.23    2.04
   3  -1   8   13.36    0.82
   3  -1   8   13.20    0.64
   4  -1   8   59.31    1.94
   4  -1   8   58.34    2.21
   5  -1   8   20.10    1.09
   5  -1   8   21.21    0.90
   6  -1   8    6.15    0.56
   6  -1   8    7.12    0.76
   7  -1   8   17.23    0.85
   8  -1   8    0.14    0.37
   9  -1   8    2.67    0.42
  10  -1   8    1.36    0.44
  11  -1   8    7.41    0.83
  12  -1   8    0.69    0.60
  13  -1   8   23.36    1.29
  14  -1   8    0.65    0.51
  14  -1   8    0.46    0.77
  15  -1   8    2.72    0.89
  15  -1   8    1.07    0.56
  16  -1   8    0.34    1.00
  17  -1   8    0.61    1.15
  18  -1   8    0.18    1.36
  15   0  -8   -0.91    1.66
  14   0  -8    0.18    1.45
  13   0  -8    0.50    1.10
  12   0  -8   -0.53    0.95
  11   0  -8   -0.30    0.91
  10   0  -8   10.15    1.18
   9   0  -8    1.44    0.65
   8   0  -8   20.80    1.16
   7   0  -8   21.71    1.16
   6   0  -8   30.99    1.32
   5   0  -8    3.26    0.48
   4   0  -8   23.15    1.09
   1   0  -8    2.49    0.47
   1   0  -8    2.60    0.35
   0   0  -8   35.18    1.04
   0   0  -8   33.34    1.47
  -1   0  -8   13.36    0.61
  -1   0  -8   13.14    0.87
   3   0   8    3.70    0.41
   4   0   8    5.49    0.45
   5   0   8   26.02    1.04
   5   0   8   26.19    1.21
   6   0   8    5.55    0.66
   6   0   8    5.44    0.49
   7   0   8    2.87    0.51
   8   0   8    1.08    0.38
   9   0   8    2.39    0.42
  10   0   8   52.55    1.91
  11   0   8   17.29    0.97
  12   0   8    1.52    0.59
  12   0   8    0.70    0.39
  13   0   8   -0.22    0.44
  13   0   8    0.39    0.66
  14   0   8    9.14    1.10
  14   0   8    8.92    1.03
  15   0   8    1.33    0.85
  15   0   8    1.01    0.55
  16   0   8    0.64    0.97
  17   0   8    0.38    1.11
  18   0   8    0.83    1.28
  15  -1  -8   -0.16    1.74
  14  -1  -8    0.47    1.53
  13  -1  -8    0.21    1.18
  12  -1  -8    5.18    1.03
  11  -1  -8   11.70    1.43
  10  -1  -8    3.07    0.82
   9  -1  -8    0.42    0.68
   8  -1  -8    5.93    0.92
   7  -1  -8   21.51    1.17
   6  -1  -8    4.19    0.67
   5  -1  -8    1.69    0.42
   4  -1  -8    6.51    0.66
   1  -1  -8   14.37    0.85
   0  -1  -8    0.17    0.42
  -1  -1  -8  134.05    4.47
  -2  -1  -8   89.05    2.23
  -2  -1  -8   90.14    3.18
  -3  -1  -8    1.00    0.20
  -3  -1  -8    0.79    0.33
  -3  -1  -8    0.52    0.45
   3   1   8    0.82    0.25
  -4  -1  -8    2.01    0.35
  -4  -1  -8    2.18    0.49
   4   1   8    2.03    0.35
  -5  -1  -8    3.12    0.56
  -5  -1  -8    2.77    0.39
   5   1   8    2.69    0.39
  -6  -1  -8    2.58    0.41
  -6  -1  -8    3.56    0.72
   6   1   8    2.68    0.43
   7   1   8    6.56    0.58
   8   1   8    6.78    0.65
   9   1   8   16.37    0.85
  10   1   8   -0.26    0.41
  11   1   8   19.55    1.01
  11   1   8   17.51    0.94
  12   1   8    0.39    0.39
  12   1   8    1.37    0.54
  13   1   8    4.19    0.69
  13   1   8    3.67    0.51
  14   1   8    0.30    0.74
  14   1   8    0.67    0.50
  15   1   8    2.07    0.85
  15   1   8    1.03    0.56
  16   1   8    2.35    0.97
  16   1   8    1.96    0.64
  17   1   8    0.13    1.08
  18   1   8    4.42    1.24
  19   1   8    1.63    1.42
  14  -2  -8   -2.06    1.64
  13  -2  -8    2.86    1.26
  12  -2  -8    0.64    1.07
  11  -2  -8   10.43    1.51
  10  -2  -8    7.63    1.31
   9  -2  -8    0.71    0.73
   8  -2  -8    1.20    0.61
   7  -2  -8   15.79    1.02
   6  -2  -8    0.05    0.48
   5  -2  -8    0.02    0.43
   4  -2  -8   47.54    1.80
   1  -2  -8   68.09    2.49
   0  -2  -8   23.99    1.14
  -1  -2  -8    5.47    0.60
  -2  -2  -8    4.11    0.57
  -3  -2  -8    0.71    0.42
  -3  -2  -8    1.10    0.24
   3   2   8    1.26    0.24
  -4  -2  -8    2.11    0.44
  -4  -2  -8    1.38    0.22
   4   2   8    1.50    0.30
  -5  -2  -8    2.40    0.49
  -5  -2  -8    1.81    0.22
   5   2   8    2.46    0.41
  -6  -2  -8   23.55    1.19
   6   2   8   23.68    0.98
   6   2   8   22.78    0.87
   7   2   8    5.80    0.42
   7   2   8    3.93    0.50
   8   2   8    0.40    0.21
   8   2   8    0.47    0.35
   9   2   8    0.49    0.37
   9   2   8    0.34    0.26
  10   2   8  101.59    3.23
  10   2   8   97.74    3.03
  11   2   8    1.94    0.37
  11   2   8    2.13    0.48
  12   2   8    1.82    0.53
  12   2   8    2.41    0.41
  13   2   8   -0.57    0.46
  13   2   8    0.42    0.62
  14   2   8    1.17    0.70
  14   2   8    0.72    0.49
  15   2   8    3.50    0.55
  16   2   8    1.22    0.94
  16   2   8   -0.15    0.61
  17   2   8    4.16    1.08
  17   2   8    1.91    0.70
  18   2   8    1.23    1.21
  19   2   8    1.58    1.36
  14  -3  -8    0.99    1.74
  13  -3  -8    3.60    1.47
  12  -3  -8    5.52    1.19
  11  -3  -8   12.50    1.59
  10  -3  -8    0.08    0.96
   9  -3  -8    0.29    0.78
   8  -3  -8    0.00    0.66
   7  -3  -8    2.85    0.61
   6  -3  -8    1.68    0.56
   5  -3  -8    0.97    0.46
   4  -3  -8    7.17    0.68
   3  -3  -8  203.07    6.12
   1  -3  -8   26.69    1.28
   0  -3  -8    3.12    0.54
  -1  -3  -8    0.76    0.45
  -2  -3  -8   22.99    1.14
  -3  -3  -8    0.47    0.40
  -4  -3  -8    1.55    0.44
   4   3   8    1.95    0.38
  -5  -3  -8   22.42    1.10
   5   3   8   21.70    0.88
   5   3   8   21.00    0.90
  -6  -3  -8    9.89    0.80
   6   3   8   10.59    0.59
   6   3   8   10.64    0.61
   7   3   8   87.03    2.64
   7   3   8   88.53    2.81
   8   3   8   24.71    0.96
   8   3   8   23.63    1.05
   9   3   8   28.10    1.12
   9   3   8   28.39    1.22
  10   3   8    0.79    0.31
  10   3   8    1.63    0.43
  11   3   8    8.52    0.75
  11   3   8   10.68    0.79
  12   3   8    4.97    0.79
  12   3   8    6.10    0.77
  13   3   8    2.38    0.50
  13   3   8    3.48    0.65
  14   3   8    0.51    0.48
  14   3   8    0.84    0.71
  15   3   8    0.18    0.81
  15   3   8   -0.78    0.54
  16   3   8    4.67    0.66
  17   3   8   -0.15    0.70
  17   3   8    0.52    1.06
  18   3   8    0.15    0.79
  18   3   8    1.61    1.18
  19   3   8    0.81    1.37
  13  -4  -8    1.57    1.61
  12  -4  -8    1.75    1.27
  11  -4  -8   -0.88    1.10
  10  -4  -8    0.80    1.05
   9  -4  -8    5.22    0.90
   8  -4  -8   -0.08    0.74
   7  -4  -8    2.02    0.67
   6  -4  -8   34.23    1.53
   5  -4  -8   21.74    1.10
   4  -4  -8   18.94    1.01
   3  -4  -8    8.31    0.70
   2  -4  -8  108.75    3.77
   1  -4  -8    9.12    0.85
   0  -4  -8   17.66    1.03
  -1  -4  -8    0.58    0.48
  -2  -4  -8    3.77    0.65
  -3  -4  -8    6.19    0.68
  -4  -4  -8    7.15    0.69
   4   4   8    6.86    0.49
  -5  -4  -8    7.80    0.73
   5   4   8    7.82    0.57
   5   4   8    8.89    0.58
  -6  -4  -8   91.63    3.19
   6   4   8   91.18    2.77
   6   4   8   88.53    2.84
  -7  -4  -8   14.94    0.97
   7   4   8   14.00    0.77
   7   4   8   14.19    0.74
   8   4   8    1.87    0.31
   8   4   8    2.42    0.47
   9   4   8   14.63    0.85
   9   4   8   14.96    0.80
  10   4   8   14.97    0.89
  10   4   8   16.27    0.89
  11   4   8    1.84    0.49
  11   4   8    1.70    0.39
  12   4   8    2.14    0.42
  12   4   8    2.59    0.55
  13   4   8    8.06    0.95
  13   4   8    9.83    0.95
  14   4   8    8.37    1.04
  14   4   8    5.96    0.93
  15   4   8   18.15    1.32
  15   4   8   25.53    1.47
  16   4   8    0.31    0.92
  16   4   8    0.55    0.64
  17   4   8    1.19    1.05
  17   4   8   -0.49    0.72
  18   4   8   -0.77    0.82
  18   4   8    0.36    1.17
  19   4   8    0.87    1.30
  13  -5  -8    1.93    1.76
  12  -5  -8    3.19    1.39
  11  -5  -8    0.39    1.20
  10  -5  -8    0.28    1.11
   9  -5  -8    1.49    1.00
   8  -5  -8   -0.07    0.86
   7  -5  -8   32.69    1.60
   6  -5  -8   12.83    1.02
   5  -5  -8   12.31    0.97
   4  -5  -8    3.61    0.70
   3  -5  -8   45.80    1.74
   2  -5  -8    0.74    0.71
   1  -5  -8   10.75    0.95
   0  -5  -8    7.34    0.87
  -1  -5  -8    2.05    0.60
  -2  -5  -8   19.30    1.10
  -3  -5  -8   26.02    1.30
  -4  -5  -8   13.11    0.90
  -5  -5  -8   17.54    1.04
   5   5   8   18.22    0.90
  -6  -5  -8   28.11    1.36
   6   5   8   28.02    1.12
   6   5   8   29.13    1.18
  -7  -5  -8   21.77    1.18
   7   5   8   22.47    1.01
   7   5   8   21.70    0.96
   8   5   8    6.18    0.59
   8   5   8    5.76    0.58
   9   5   8    8.77    0.69
   9   5   8    9.58    0.70
  10   5   8    7.37    0.68
  10   5   8    6.56    0.67
  11   5   8    1.00    0.38
  11   5   8    0.00    0.47
  12   5   8   15.44    1.03
  12   5   8   14.84    1.00
  13   5   8    1.12    0.45
  13   5   8    2.65    0.64
  14   5   8    0.38    0.50
  14   5   8    2.13    0.72
  15   5   8    0.63    0.84
  15   5   8    0.14    0.57
  16   5   8   12.77    1.30
  16   5   8   16.73    1.43
  17   5   8    0.57    1.02
  17   5   8    1.12    0.73
  18   5   8    0.52    1.15
  18   5   8    0.96    0.83
  19   5   8    0.02    0.94
  19   5   8   -0.88    1.30
  12  -6  -8    3.00    1.63
  10  -6  -8    1.94    1.19
   9  -6  -8   -0.71    1.12
   8  -6  -8    1.03    0.93
   7  -6  -8    3.67    0.83
   6  -6  -8   61.19    2.33
   5  -6  -8   44.02    1.83
   4  -6  -8   10.27    0.87
   3  -6  -8    7.06    1.22
   3  -6  -8    7.43    0.75
   2  -6  -8    0.91    0.45
   2  -6  -8    0.62    0.83
   1  -6  -8   -0.92    0.70
   0  -6  -8   36.44    1.70
  -1  -6  -8    3.95    0.78
  -2  -6  -8   47.69    2.00
  -3  -6  -8  134.54    4.60
  -4  -6  -8   41.24    1.79
  -5  -6  -8    1.78    0.60
   5   6   8    1.56    0.34
  -6  -6  -8    7.49    0.85
   6   6   8    8.27    0.67
  -7  -6  -8    0.67    0.61
   7   6   8    1.19    0.32
   8   6   8   17.71    0.93
   9   6   8    0.80    0.33
  10   6   8    8.67    0.73
  10   6   8    9.12    0.77
  11   6   8    7.26    0.78
  11   6   8    6.02    0.77
  12   6   8    4.07    0.63
  12   6   8    4.70    0.78
  13   6   8   20.59    1.20
  14   6   8   13.05    1.18
  14   6   8   10.80    1.06
  15   6   8   10.60    1.18
  15   6   8   13.57    1.32
  16   6   8    0.41    0.68
  16   6   8    1.71    0.95
  17   6   8    1.29    1.08
  18   6   8   -0.73    0.85
  18   6   8    0.98    1.19
  19   6   8    1.89    1.32
  19   6   8   -0.83    0.96
  12  -7  -8   -1.92    1.81
  11  -7  -8    0.67    1.45
  10  -7  -8    2.76    1.28
   9  -7  -8    9.84    1.28
   8  -7  -8   -0.19    1.10
   7  -7  -8   36.94    1.94
   6  -7  -8    5.29    0.85
   5  -7  -8    2.41    0.70
   4  -7  -8    6.00    1.00
   3  -7  -8    4.39    0.97
   3  -7  -8    4.77    0.80
   2  -7  -8    1.14    0.50
   2  -7  -8    0.39    0.84
   1  -7  -8    0.23    0.79
   0  -7  -8   23.33    1.39
  -1  -7  -8    5.86    0.89
  -2  -7  -8  103.59    3.73
  -3  -7  -8   27.70    1.46
  -4  -7  -8    1.98    0.64
  -5  -7  -8    2.67    0.66
  -6  -7  -8    3.94    0.72
   6   7   8    4.23    0.62
  -7  -7  -8    5.94    0.87
   7   7   8    6.42    0.68
  -8  -7  -8    9.60    0.98
   8   7   8   10.57    0.79
   9   7   8    6.43    0.75
  10   7   8    4.74    0.77
  11   7   8    4.97    0.71
  12   7   8   23.66    1.19
  13   7   8    1.67    0.49
  14   7   8   -0.61    0.55
  14   7   8   -0.98    0.78
  15   7   8    0.87    0.62
  16   7   8    2.08    0.70
  17   7   8   -0.07    0.80
  17   7   8    0.81    1.11
  18   7   8    0.69    0.89
  18   7   8    0.93    1.24
  19   7   8    0.65    1.38
  19   7   8    0.59    1.02
  11  -8  -8    5.08    1.73
  10  -8  -8    4.77    1.42
   9  -8  -8    4.88    1.28
   8  -8  -8    1.02    1.22
   7  -8  -8   -1.96    1.05
   6  -8  -8   -0.29    0.95
   5  -8  -8    0.19    0.83
   3  -8  -8   -0.08    1.05
   2  -8  -8    1.17    0.99
   1  -8  -8   81.89    3.14
   0  -8  -8   11.72    1.11
  -1  -8  -8    8.64    1.01
  -2  -8  -8    4.67    0.78
  -3  -8  -8   29.46    1.45
  -4  -8  -8    0.98    0.66
  -5  -8  -8    2.14    0.69
  -6  -8  -8    0.52    0.72
   6   8   8    0.51    0.38
  -7  -8  -8    1.45    0.72
   7   8   8    0.40    0.41
  -8  -8  -8    1.06    0.78
   8   8   8    1.39    0.44
   9   8   8    4.66    0.68
  10   8   8    1.82    0.40
  11   8   8   37.18    1.55
  12   8   8    2.92    0.48
  13   8   8    2.35    0.51
  14   8   8    0.79    0.57
  15   8   8    1.12    0.65
  16   8   8   -0.88    0.73
  17   8   8    0.04    0.83
  18   8   8   -0.32    0.94
  19   8   8    0.54    1.07
  10  -9  -8   14.87    2.30
   9  -9  -8   -0.63    1.39
   8  -9  -8   -1.15    1.30
   7  -9  -8    5.06    1.29
   2  -9  -8   38.76    2.01
   1  -9  -8   26.90    1.68
   0  -9  -8   65.02    2.70
  -1  -9  -8   -0.40    0.86
  -2  -9  -8   22.76    1.34
  -3  -9  -8    4.18    0.78
  -4  -9  -8    1.57    0.75
  -5  -9  -8    1.54    0.74
  -6  -9  -8    2.28    0.73
   6   9   8    1.60    0.42
  -7  -9  -8   34.97    1.62
   7   9   8   32.77    1.45
  -8  -9  -8   30.05    1.49
   8   9   8   28.68    1.32
   9   9   8    2.57    0.44
  10   9   8    0.99    0.43
  11   9   8    1.29    0.45
  12   9   8    2.94    0.49
  13   9   8    2.51    0.55
  14   9   8    0.72    0.59
  15   9   8    3.68    0.70
  16   9   8    3.43    0.77
  17   9   8    1.14    0.88
  18   9   8   -0.88    0.98
  19   9   8   -0.63    1.10
   9 -10  -8    2.50    1.57
   8 -10  -8   -2.52    1.42
   3 -10  -8    3.94    1.36
   2 -10  -8    7.55    1.30
   1 -10  -8   77.15    3.15
   0 -10  -8   -0.39    1.05
  -1 -10  -8    0.56    0.98
  -2 -10  -8    6.95    1.16
  -3 -10  -8    0.92    0.89
  -4 -10  -8    5.64    1.02
  -5 -10  -8    1.41    0.80
  -6 -10  -8    9.80    1.00
   6  10   8    7.22    0.80
  -7 -10  -8   18.38    1.20
   7  10   8   16.99    1.02
  -8 -10  -8   26.02    1.48
   8  10   8   28.04    1.30
  -9 -10  -8   14.45    1.17
   9  10   8   13.06    0.96
  10  10   8    6.14    0.82
  11  10   8    3.37    0.52
  12  10   8    9.03    0.96
  13  10   8    1.63    0.57
  14  10   8   -0.43    0.61
  15  10   8    4.57    0.73
  16  10   8    1.56    0.80
  17  10   8    1.95    0.90
  18  10   8    0.90    1.02
  19  10   8    3.12    1.14
   9 -11  -8   -0.38    1.91
   3 -11  -8    2.45    1.47
   2 -11  -8   24.67    1.94
   1 -11  -8   -0.32    1.32
   0 -11  -8    1.91    1.23
  -1 -11  -8   -0.20    1.12
  -2 -11  -8    1.26    1.03
  -3 -11  -8    0.82    1.01
  -4 -11  -8   10.78    1.23
  -5 -11  -8    8.52    1.19
  -6 -11  -8    4.58    0.95
  -7 -11  -8   11.88    1.22
   7  11   8   13.82    0.99
  -8 -11  -8    5.35    1.11
   8  11   8    5.52    0.86
  -9 -11  -8   -0.66    0.92
   9  11   8   -0.30    0.47
  10  11   8    1.09    0.52
  11  11   8    1.10    0.52
  12  11   8    0.30    0.56
  13  11   8   -0.09    0.61
  14  11   8    0.12    0.65
  15  11   8   -1.00    0.72
  16  11   8    3.93    0.85
  17  11   8    1.15    0.93
  18  11   8    0.32    1.05
  19  11   8   -1.97    1.18
   5 -12  -8   33.04    2.77
   4 -12  -8    4.04    1.94
   3 -12  -8    3.75    1.66
   2 -12  -8    1.52    1.54
   1 -12  -8    0.93    1.48
   0 -12  -8    2.74    1.38
  -1 -12  -8    5.32    1.33
  -2 -12  -8    1.66    1.21
  -3 -12  -8   19.68    1.57
  -4 -12  -8   43.10    2.13
  -5 -12  -8    4.09    1.06
  -6 -12  -8    0.10    1.00
  -7 -12  -8    2.80    1.01
   7  12   8    1.90    0.55
  -8 -12  -8   -0.31    1.00
   8  12   8    0.45    0.53
  -9 -12  -8    0.64    1.01
   9  12   8    1.01    0.54
 -10 -12  -8   -1.29    1.01
  10  12   8   -0.22    0.54
  11  12   8    0.53    0.58
  12  12   8   -0.31    0.60
  13  12   8    2.33    0.67
  14  12   8    2.18    0.72
  15  12   8    2.16    0.78
  16  12   8   -0.11    0.85
  18  12   8    0.02    1.09
   4 -13  -8    6.15    2.27
   3 -13  -8    0.38    2.07
   2 -13  -8    5.77    1.81
   1 -13  -8    7.88    1.66
   0 -13  -8    4.05    1.56
  -1 -13  -8   -0.17    1.48
  -2 -13  -8    1.11    1.35
  -3 -13  -8   12.94    1.61
  -4 -13  -8   15.77    1.62
  -5 -13  -8   14.88    1.56
  -6 -13  -8    1.09    1.15
  -7 -13  -8    2.48    1.13
  -8 -13  -8    0.46    1.11
   8  13   8    0.96    0.59
  -9 -13  -8    2.33    1.12
   9  13   8    1.53    0.60
 -10 -13  -8    1.95    1.14
  10  13   8    1.42    0.60
  11  13   8   -0.23    0.61
  12  13   8    6.93    1.17
  13  13   8    2.20    0.70
  14  13   8   -1.08    0.75
  15  13   8   -0.16    0.82
  16  13   8    0.01    0.91
  17  13   8    0.51    1.02
  18  13   8    0.85    1.12
   5 -14  -8   -2.49    2.89
   3 -14  -8    1.27    2.39
   2 -14  -8    6.35    2.21
   1 -14  -8    8.09    1.99
   0 -14  -8    6.13    1.77
  -1 -14  -8    3.55    1.64
  -2 -14  -8    0.88    1.56
  -3 -14  -8   20.07    1.92
  -4 -14  -8    8.87    1.70
  -5 -14  -8   -1.08    1.33
  -6 -14  -8   -1.53    1.30
  -7 -14  -8    0.09    1.26
  -8 -14  -8    1.40    1.25
   8  14   8    0.20    0.66
  -9 -14  -8   -0.32    1.24
   9  14   8    0.17    0.66
 -10 -14  -8    0.73    1.26
  10  14   8    0.19    0.66
 -11 -14  -8    2.47    1.31
  11  14   8    2.05    0.67
  12  14   8    1.03    0.71
  13  14   8    4.23    0.78
  14  14   8    1.64    0.81
  15  14   8    1.17    0.89
  17  14   8   -0.65    1.08
   4 -15  -8    0.34    2.99
   3 -15  -8    0.67    2.77
   2 -15  -8    3.26    2.56
   1 -15  -8    4.32    2.34
   0 -15  -8   12.15    2.52
  -1 -15  -8   19.73    2.40
  -2 -15  -8    2.54    1.76
  -3 -15  -8    1.97    1.66
  -4 -15  -8    3.02    1.57
  -5 -15  -8    2.43    1.51
  -6 -15  -8   -0.91    1.45
  -7 -15  -8    1.73    1.42
  -8 -15  -8    6.65    1.41
  -9 -15  -8    3.59    1.38
   9  15   8    2.22    0.75
 -10 -15  -8    2.32    1.37
  10  15   8    1.63    0.73
  11  15   8   -0.11    0.74
  12  15   8    1.74    0.77
  13  15   8   -0.37    0.80
  14  15   8   -0.56    0.89
  15  15   8    0.66    0.94
  16  15   8    0.26    1.02
   2 -16  -8    0.85    2.98
   1 -16  -8   11.56    2.80
   0 -16  -8   17.75    2.99
  -1 -16  -8    3.96    2.30
  -2 -16  -8    0.23    2.18
  -3 -16  -8    0.98    1.96
  -4 -16  -8    2.17    1.85
  -5 -16  -8    3.63    1.72
  -6 -16  -8    1.12    1.63
  -7 -16  -8    3.17    1.53
  -8 -16  -8   10.37    1.78
  -9 -16  -8   12.45    1.78
   9  16   8    9.06    1.43
 -10 -16  -8    4.64    1.53
  10  16   8    2.46    0.83
 -11 -16  -8    2.05    1.56
  11  16   8    1.57    0.83
  12  16   8    0.15    0.85
  13  16   8    1.00    0.87
  14  16   8   -0.55    0.93
  15  16   8    0.15    1.04
   1 -17  -8   -1.22    3.17
   0 -17  -8    4.17    2.94
  -1 -17  -8    3.34    2.77
  -2 -17  -8    3.60    2.55
  -3 -17  -8    1.17    2.34
  -4 -17  -8    5.49    2.25
  -5 -17  -8    2.72    2.15
  -6 -17  -8    5.12    2.05
  -7 -17  -8    4.36    1.94
  -8 -17  -8    4.22    1.86
  -9 -17  -8    1.93    1.85
 -10 -17  -8    3.16    1.89
 -11 -17  -8    2.41    1.94
  11  17   8    0.66    0.95
  12  17   8    0.59    0.95
  13  17   8   -0.24    0.97
  14  17   8    2.72    1.02
  -2 -18  -8    0.02    2.94
  -3 -18  -8   -0.96    2.84
  -4 -18  -8    5.95    2.66
  -5 -18  -8    3.81    2.51
  -6 -18  -8    5.08    2.41
  -7 -18  -8    4.07    2.29
  -8 -18  -8    2.33    2.23
  -9 -18  -8    4.84    2.23
 -10 -18  -8    2.51    2.22
 -11 -18  -8    2.77    2.26
 -12 -18  -8    0.89    2.31
  12  18   8    1.62    1.08
  13  18   8    1.62    1.11
  -6 -19  -8    5.98    2.83
  -7 -19  -8   -0.66    2.71
  -8 -19  -8   -1.68    2.66
  -9 -19  -8    0.09    2.59
  -7 -18   9    7.44    2.88
   6  18  -9   -1.34    1.16
  -6 -18   9    4.86    2.83
   5  18  -9   -0.93    1.15
  -5 -18   9    2.90    2.70
   4  18  -9    0.10    1.21
  -4 -18   9    2.42    2.71
   3  18  -9    2.28    1.28
  -3 -18   9    1.99    2.84
  -2 -18   9    1.77    2.88
  -1 -18   9    0.95    3.19
   9  17  -9   -0.52    1.09
   8  17  -9   -0.78    1.05
  -7 -17   9    5.31    2.60
  -6 -17   9    6.05    2.50
   5  17  -9   -1.30    1.04
  -5 -17   9    3.83    2.49
   4  17  -9    0.03    1.03
  -4 -17   9    4.38    2.43
   3  17  -9    1.13    1.10
  -3 -17   9    2.51    2.52
   2  17  -9   -0.28    1.12
  -2 -17   9   -0.94    2.62
  -1 -17   9   -0.25    2.63
   0 -17   9   -1.35    2.73
   1 -17   9    0.36    2.81
   2 -17   9    3.36    3.13
  11  16  -9    0.44    1.13
  10  16  -9    0.73    1.06
   9  16  -9   -0.89    1.00
   8  16  -9   -1.87    0.94
   7  16  -9   -1.01    0.91
  -6 -16   9    4.64    2.30
   5  16  -9    0.25    0.88
  -5 -16   9    2.08    2.20
   4  16  -9    1.02    0.93
  -4 -16   9    2.57    2.14
  -3 -16   9    4.34    2.24
   2  16  -9    1.60    0.99
  -2 -16   9    0.59    2.26
  -1 -16   9   -0.22    2.30
   0 -16   9    0.93    2.39
   1 -16   9    2.02    2.51
   2 -16   9    0.62    2.62
   3 -16   9    3.52    2.80
   4 -16   9    6.90    3.00
   5 -16   9   10.44    3.22
  12  15  -9   -1.74    1.13
  11  15  -9    0.59    1.05
  10  15  -9   -0.61    0.95
   9  15  -9    1.61    0.90
   8  15  -9    0.19    0.85
   7  15  -9    1.66    0.81
  -6 -15   9   10.22    2.12
  -5 -15   9    0.79    2.00
   4  15  -9    0.38    0.79
  -4 -15   9    2.42    1.93
   3  15  -9   -0.77    0.83
  -3 -15   9    1.27    1.89
   2  15  -9    0.83    0.87
  -2 -15   9    2.10    2.00
   1  15  -9    1.48    0.89
  -1 -15   9   -0.02    2.02
   0 -15   9   -2.10    2.09
   1 -15   9    3.12    2.23
   2 -15   9    0.73    2.35
   3 -15   9    0.06    2.40
   4 -15   9    3.09    2.60
   5 -15   9   15.80    3.12
   6 -15   9    6.55    3.04
  13  14  -9   -1.35    1.13
  12  14  -9   -0.59    1.06
  11  14  -9    0.16    0.98
  10  14  -9   -1.03    0.89
   9  14  -9    1.48    0.84
   8  14  -9    1.58    0.78
   7  14  -9    1.46    0.72
  -6 -14   9    6.28    1.94
  -5 -14   9    3.71    1.86
   4  14  -9   -0.57    0.70
  -4 -14   9    2.12    1.71
   3  14  -9    0.49    0.71
  -3 -14   9    1.05    1.69
   2  14  -9   -0.07    0.74
  -2 -14   9    1.50    1.79
   1  14  -9    1.14    0.79
  -1 -14   9    2.19    1.80
   0  14  -9    0.74    0.82
   0 -14   9   -1.09    1.83
   1 -14   9    1.08    1.91
   2 -14   9    4.54    2.04
   3 -14   9    2.06    2.07
   4 -14   9    5.48    2.28
   5 -14   9    4.61    2.47
   6 -14   9    5.03    2.66
   7 -14   9   10.93    2.79
   8 -14   9   -2.47    2.87
  13  13  -9   -1.34    1.07
  12  13  -9   -1.36    0.96
  11  13  -9    2.17    0.88
  10  13  -9    1.42    0.82
   9  13  -9    2.21    0.77
   8  13  -9   -0.79    0.71
   7  13  -9    0.77    0.67
   6  13  -9    0.83    0.63
   5  13  -9    0.08    0.61
  -5 -13   9    2.54    1.67
  -4 -13   9    4.65    1.64
  -3 -13   9    4.14    1.54
  -2 -13   9    8.15    1.53
   1  13  -9    0.49    0.67
  -1 -13   9   -0.09    1.62
   0  13  -9    1.75    0.72
   0 -13   9    1.39    1.64
   1 -13   9    4.14    1.72
   2 -13   9    0.26    1.65
   3 -13   9    2.04    1.79
   4 -13   9    5.33    2.00
   5 -13   9    5.54    2.15
   6 -13   9    3.26    2.33
   7 -13   9   -1.33    2.45
   8 -13   9   -2.41    2.50
   9 -13   9   -2.71    2.66
  14  12  -9    0.94    1.03
  13  12  -9   -0.40    0.95
  12  12  -9    0.46    0.88
  11  12  -9    0.49    0.82
  10  12  -9    0.16    0.76
   9  12  -9    1.24    0.69
   8  12  -9    2.31    0.65
   7  12  -9    0.57    0.61
   6  12  -9   -0.16    0.57
   5  12  -9   -0.77    0.55
  -5 -12   9    1.62    1.48
  -4 -12   9    4.05    1.49
   3  12  -9    0.39    0.54
  -3 -12   9    3.11    1.45
  -2 -12   9    0.76    1.33
  -1 -12   9    5.13    1.34
   0  12  -9    1.55    0.62
   0 -12   9    2.34    1.34
  -1  12  -9    1.97    0.64
   1 -12   9    2.27    1.36
   2 -12   9    5.14    1.44
   3 -12   9    5.26    1.55
   4 -12   9    2.91    1.72
   5 -12   9    7.62    1.89
   6 -12   9    1.58    2.04
   7 -12   9    0.93    2.14
   9 -12   9    0.04    2.37
  15  11  -9    1.15    1.16
  14  11  -9    2.17    1.05
  13  11  -9    0.87    0.96
  12  11  -9    0.12    0.88
  11  11  -9    1.70    0.80
  10  11  -9    0.58    0.72
   9  11  -9    0.26    0.64
   8  11  -9    1.90    0.61
   7  11  -9   -0.21    0.54
   6  11  -9    0.56    0.51
   5  11  -9    1.80    0.51
   4  11  -9   -0.17    0.48
  -4 -11   9    0.04    1.31
   3  11  -9    9.70    0.85
   2  11  -9   20.90    1.16
  -2 -11   9   26.12    1.86
  -1 -11   9    1.18    1.24
   0  11  -9    1.62    0.63
   0 -11   9    0.97    1.24
  -1  11  -9    4.97    0.69
   1 -11   9    7.44    1.55
   2 -11   9    0.07    1.29
   3 -11   9    0.95    1.38
   4 -11   9    3.16    1.52
   5 -11   9    5.36    1.66
   6 -11   9    4.69    1.75
   7 -11   9   -2.17    1.83
   9 -11   9    0.61    2.13
  15  10  -9    0.45    1.01
  14  10  -9    0.60    0.93
  13  10  -9    0.07    0.86
  12  10  -9    8.12    1.43
  11  10  -9    0.27    0.72
  10  10  -9   -0.83    0.67
   9  10  -9   -0.24    0.60
   8  10  -9    0.34    0.56
   7  10  -9    1.18    0.50
   6  10  -9   -0.03    0.48
   5  10  -9    7.18    0.82
  -5 -10   9    8.67    1.33
   4  10  -9    0.33    0.43
  -4 -10   9    0.58    1.16
   3  10  -9   11.36    0.83
  -3 -10   9   11.57    1.49
   2  10  -9    7.65    0.88
  -2 -10   9    7.98    1.49
  -1 -10   9    2.59    1.14
   0  10  -9    1.13    0.52
   0 -10   9    0.54    1.14
  -1  10  -9    0.54    0.53
   1 -10   9    2.67    1.14
   2 -10   9   19.33    1.65
   3 -10   9    3.93    1.24
   4 -10   9    9.43    1.65
   5 -10   9    0.62    1.38
   6 -10   9    1.02    1.50
   7 -10   9    8.33    1.63
   8 -10   9   -0.47    1.74
  15   9  -9    1.79    0.93
  14   9  -9    1.62    0.86
  13   9  -9    1.03    0.78
  12   9  -9    0.42    0.71
  11   9  -9    0.87    0.65
  10   9  -9    0.31    0.59
   9   9  -9    1.74    0.55
   8   9  -9    0.31    0.51
   7   9  -9   -0.36    0.47
   6   9  -9   24.71    1.24
   5   9  -9    5.25    0.75
   4   9  -9    0.81    0.38
  -4  -9   9    0.96    1.10
   3   9  -9    1.17    0.41
  -3  -9   9    0.37    1.04
   2   9  -9    0.89    0.40
  -2  -9   9   -0.01    0.97
   1   9  -9    6.09    0.74
  -1  -9   9    5.51    1.04
   0   9  -9    1.22    0.45
   0  -9   9    0.69    0.97
  -1   9  -9    4.79    0.81
   1  -9   9    3.82    1.07
  -2   9  -9    0.92    0.48
   2  -9   9    2.35    1.07
   3  -9   9    3.63    1.14
   4  -9   9    0.17    1.13
   5  -9   9    4.46    1.23
   6  -9   9   17.40    1.70
   7  -9   9   -1.60    1.40
   8  -9   9    3.86    1.56
   9  -9   9   -2.39    1.73
  13  -9   9   -1.51    1.28
  15   8  -9    1.30    0.88
  14   8  -9   -0.06    0.81
  13   8  -9    0.19    0.74
  12   8  -9   -0.84    0.67
  11   8  -9    0.59    0.63
  10   8  -9    0.67    0.57
   9   8  -9   10.69    1.06
   8   8  -9    0.44    0.49
   7   8  -9   37.47    1.62
   6   8  -9    5.90    0.75
   5   8  -9    0.90    0.37
   4   8  -9    0.73    0.35
  -4  -8   9   -0.33    0.98
   3   8  -9   16.83    0.92
  -3  -8   9   13.31    1.45
   2   8  -9    0.47    0.33
  -2  -8   9   -0.18    0.92
   1   8  -9    3.34    0.61
  -1  -8   9    1.37    0.90
   0   8  -9    3.81    0.62
   0  -8   9    2.67    0.90
  -1   8  -9    4.54    0.66
   1  -8   9    3.57    0.89
  -2   8  -9    4.90    0.70
   2  -8   9    4.09    0.92
   3  -8   9   28.64    1.70
   4  -8   9   -0.17    0.99
   5  -8   9    0.52    1.06
   6  -8   9   -1.87    1.15
   7  -8   9    8.52    1.58
   8  -8   9    0.06    1.44
   9  -8   9    0.89    1.53
  12  -8   9    3.81    1.07
  13  -8   9    2.44    1.21
  14  -8   9    2.10    1.36
   7   7  -9    2.86    0.45
   6   7  -9   29.68    1.37
   5   7  -9   10.73    0.78
   4   7  -9    6.70    0.66
   3   7  -9    0.32    0.31
  -3  -7   9    0.34    0.88
   2   7  -9    0.75    0.29
  -2  -7   9    1.56    0.92
   1   7  -9    5.75    0.59
  -1  -7   9    6.65    1.17
   0   7  -9    1.85    0.31
   0  -7   9    2.46    0.84
  -1   7  -9    0.83    0.32
   1  -7   9    0.79    0.81
   2  -7   9   12.38    1.21
   3  -7   9   16.05    1.31
   4  -7   9    9.34    1.22
   5  -7   9    1.07    0.99
   6  -7   9   20.10    1.59
   7  -7   9   -0.94    1.15
   8  -7   9   -0.60    1.25
  13  -7   9    2.52    1.08
  14  -7   9    4.47    1.25
  15  -7   9    2.90    1.43
   4   6  -9    5.26    0.62
   3   6  -9    1.65    0.34
  -3  -6   9    2.10    0.87
   2   6  -9   11.34    0.68
  -2  -6   9   10.51    1.10
   1   6  -9    0.35    0.25
  -1  -6   9    0.79    0.76
   0   6  -9   31.48    1.18
   0  -6   9   31.56    1.70
  -1   6  -9   14.95    0.70
   1  -6   9   14.31    1.25
   2  -6   9   45.74    2.14
   3  -6   9    1.39    0.76
   4  -6   9   -0.30    0.82
   5  -6   9   -0.34    0.87
   6  -6   9    1.82    0.93
   7  -6   9    5.71    1.05
   8  -6   9    9.68    1.40
   9  -6   9    0.68    0.60
  10  -6   9   -0.32    0.66
  11  -6   9    0.62    0.76
  12  -6   9    6.90    1.20
  13  -6   9    0.41    1.01
  14  -6   9    0.19    1.16
  15  -6   9   -0.52    1.34
  15   5  -9   -0.47    1.53
  13   5  -9   -0.14    1.03
  -2  -5   9   16.27    1.18
   1   5  -9  183.18    5.18
  -1  -5   9  179.55    6.05
   0   5  -9    2.11    0.38
   0  -5   9    2.68    0.74
  -1   5  -9    5.62    0.45
   1  -5   9    5.36    0.92
   2  -5   9    1.62    0.73
   3  -5   9    5.47    0.89
   4  -5   9   -0.79    0.75
   5  -5   9    0.66    0.80
   6  -5   9    5.91    1.08
   7  -5   9   12.77    1.27
   8  -5   9    9.31    1.31
   8  -5   9    7.94    0.78
   9  -5   9    4.79    0.78
  10  -5   9   12.42    0.96
  11  -5   9    6.60    0.95
  12  -5   9    0.99    0.80
  13  -5   9    4.99    0.93
  14  -5   9    1.90    1.06
  15  -5   9    2.01    1.21
  16  -5   9    1.85    1.44
  15   4  -9   -0.12    1.53
  14   4  -9    6.53    1.40
  13   4  -9    4.09    1.07
  12   4  -9   -1.21    1.00
  11   4  -9    2.52    0.91
  10   4  -9    0.32    0.77
   9   4  -9    3.78    0.73
  -2  -4   9   81.98    3.01
  -1  -4   9    2.62    0.66
   0   4  -9   37.15    1.25
   0  -4   9   36.02    1.69
   1  -4   9    1.81    0.62
   2  -4   9   18.15    1.20
   3  -4   9    0.01    0.63
   4  -4   9    4.10    0.77
   5  -4   9    1.03    0.74
   6  -4   9    2.29    0.84
   7  -4   9   30.45    1.31
   7  -4   9   33.01    1.74
   8  -4   9   25.32    1.14
   9  -4   9    8.50    0.77
  10  -4   9    0.70    0.56
  11  -4   9    2.89    0.65
  12  -4   9   11.21    1.08
  13  -4   9    0.56    0.83
  14  -4   9    1.69    0.97
  15  -4   9    2.38    1.12
  16  -4   9    7.07    1.33
  15   3  -9    0.11    1.59
  14   3  -9   18.57    1.92
  13   3  -9    2.34    1.07
  12   3  -9   -0.40    1.03
  11   3  -9   -0.01    0.91
  10   3  -9    3.87    0.81
   9   3  -9    0.57    0.70
   8   3  -9   -0.25    0.61
   7   3  -9    2.11    0.52
   6   3  -9   11.70    0.85
  -2  -3   9    1.60    0.56
  -1  -3   9   91.96    3.29
   0  -3   9   30.04    1.42
   1  -3   9    5.07    0.74
   2  -3   9    1.78    0.58
   2  -3   9    1.73    0.31
   3  -3   9    1.39    0.31
   3  -3   9    2.09    0.60
   4  -3   9   11.48    0.98
   4  -3   9   10.28    0.66
   5  -3   9   10.05    0.72
   5  -3   9   10.73    1.01
   6  -3   9   28.64    1.53
   6  -3   9   27.97    1.20
   7  -3   9   18.36    0.97
   7  -3   9   17.96    1.33
   8  -3   9    9.07    0.72
   9  -3   9   19.52    1.01
  10  -3   9    0.49    0.51
  11  -3   9    4.05    0.61
  12  -3   9    5.16    0.95
  13  -3   9    8.95    1.10
  14  -3   9    5.32    0.92
  15  -3   9    4.46    1.04
  16  -3   9    1.08    1.19
  17  -3   9    0.13    1.37
  15   2  -9    0.58    1.67
  14   2  -9   10.18    1.90
  13   2  -9   -0.04    1.09
  12   2  -9   -0.59    1.05
  11   2  -9    3.90    0.95
  10   2  -9    7.01    0.89
   9   2  -9   -0.08    0.71
   8   2  -9    1.11    0.62
   7   2  -9    1.49    0.52
   6   2  -9   26.89    1.25
   5   2  -9   14.25    0.91
  -1  -2   9   14.12    0.92
   0  -2   9   21.67    1.14
   1  -2   9    3.72    0.59
   2  -2   9    3.63    0.64
   2  -2   9    3.52    0.40
   3  -2   9   16.01    0.77
   3  -2   9   16.59    1.02
   4  -2   9   37.61    1.66
   4  -2   9   38.34    1.41
   5  -2   9    6.99    0.61
   5  -2   9    7.06    0.79
   6  -2   9    1.62    0.63
   7  -2   9   22.45    1.07
   7  -2   9   22.30    1.31
   8  -2   9   14.24    0.82
   9  -2   9    1.04    0.43
  10  -2   9    1.31    0.49
  11  -2   9    0.29    0.56
  12  -2   9   16.72    1.09
  13  -2   9    0.38    0.73
  14  -2   9    1.12    0.85
  15  -2   9    0.43    0.97
  16  -2   9    4.89    1.14
  17  -2   9    1.26    1.30
  15   1  -9    1.21    1.73
  14   1  -9    4.85    1.37
  13   1  -9    1.19    1.12
  12   1  -9    0.75    1.09
  11   1  -9   -1.04    0.94
  10   1  -9    1.58    0.81
   9   1  -9    6.55    1.03
   8   1  -9   11.02    1.00
   7   1  -9    5.72    0.84
   6   1  -9   13.08    0.89
   5   1  -9  105.95    3.45
   2   1  -9    3.45    0.59
   1   1  -9   12.87    0.94
   1   1  -9   12.15    0.66
   1  -1   9    2.93    0.55
   2  -1   9    3.09    0.56
   3  -1   9   89.47    3.20
   3  -1   9   90.94    2.84
   4  -1   9   60.93    2.35
   4  -1   9   62.10    2.05
   5  -1   9   29.48    1.41
   5  -1   9   28.58    1.16
   6  -1   9    8.60    0.85
   6  -1   9    7.99    0.61
   7  -1   9    1.31    0.39
   8  -1   9    4.27    0.61
   9  -1   9   11.48    0.77
  10  -1   9    2.04    0.47
  11  -1   9    0.91    0.52
  12  -1   9    1.30    0.61
  13  -1   9   24.08    1.35
  14  -1   9    1.83    0.80
  15  -1   9   15.31    1.37
  16  -1   9    0.95    1.06
  17  -1   9    0.90    1.22
  18  -1   9    2.86    1.45
  15   0  -9   -1.32    1.80
  14   0  -9    2.30    1.55
  13   0  -9    0.75    1.19
  12   0  -9   -1.98    1.11
  11   0  -9    0.17    1.01
  10   0  -9    0.60    0.83
   9   0  -9   10.30    1.14
   8   0  -9   27.08    1.38
   7   0  -9    2.37    0.58
   6   0  -9    7.13    0.76
   5   0  -9    6.68    0.70
   2   0  -9    7.63    0.73
   1   0  -9   18.03    1.07
   1   0  -9   18.24    0.75
   0   0  -9  159.87    5.34
   0   0  -9  162.31    3.75
  -1   0  -9   57.43    2.27
  -1   0  -9   58.97    1.60
  -2   0  -9   11.76    0.89
  -2   0  -9   11.25    0.61
   3   0   9   40.02    1.43
   4   0   9   23.16    0.97
   5   0   9    2.90    0.45
   6   0   9    6.14    0.55
   7   0   9   -0.15    0.32
   8   0   9    0.26    0.37
   9   0   9    0.95    0.40
  10   0   9    0.52    0.44
  11   0   9   -0.20    0.50
  12   0   9   14.36    1.01
  13   0   9    0.05    0.65
  14   0   9    1.18    0.77
  15   0   9    2.23    0.91
  15   0   9    1.69    0.62
  16   0   9    3.66    1.04
  17   0   9    1.29    1.19
  18   0   9    0.46    1.36
  14  -1  -9    2.95    1.63
  13  -1  -9   -1.77    1.26
  12  -1  -9    3.66    1.19
  11  -1  -9   -1.15    1.05
  10  -1  -9    9.95    1.31
   9  -1  -9   21.43    1.38
   8  -1  -9    2.46    0.65
   7  -1  -9    0.82    0.61
   6  -1  -9    6.76    0.76
   5  -1  -9   14.05    0.88
   4  -1  -9   15.68    0.94
   1  -1  -9  133.84    4.47
   0  -1  -9   70.10    2.61
  -1  -1  -9    3.97    0.61
  -2  -1  -9   38.49    1.69
  -2  -1  -9   39.03    1.19
  -3  -1  -9   14.00    0.91
  -3  -1  -9   13.35    0.61
   3   1   9   14.02    0.69
  -4  -1  -9   13.17    0.94
  -4  -1  -9   14.47    0.65
   4   1   9   13.81    0.71
  -5  -1  -9    2.45    0.41
  -5  -1  -9    2.23    0.57
   5   1   9    2.21    0.36
  -6  -1  -9    1.11    0.42
  -6  -1  -9    1.03    0.56
   6   1   9    1.02    0.35
   7   1   9    1.16    0.33
   8   1   9   24.28    1.13
   9   1   9   11.35    0.75
  10   1   9    1.98    0.46
  11   1   9   36.00    1.51
  12   1   9   10.88    0.91
  13   1   9    4.98    0.71
  13   1   9    6.51    0.84
  14   1   9    5.21    0.96
  14   1   9    4.78    0.78
  15   1   9    6.26    1.06
  15   1   9    6.77    1.21
  16   1   9    0.87    0.98
  17   1   9    1.92    1.12
  18   1   9    9.22    1.78
  14  -2  -9    0.33    1.73
  13  -2  -9   -0.64    1.34
  12  -2  -9   -0.19    1.21
  11  -2  -9    1.50    1.14
  10  -2  -9    8.49    1.04
   9  -2  -9   13.80    1.27
   8  -2  -9    2.89    0.70
   7  -2  -9    8.03    0.91
   6  -2  -9   11.64    0.87
   5  -2  -9    4.88    0.70
   4  -2  -9   14.52    0.88
   2  -2  -9    6.61    0.78
   1  -2  -9   44.26    1.83
   0  -2  -9   64.78    2.45
  -1  -2  -9  126.91    4.31
  -2  -2  -9   15.49    0.96
  -3  -2  -9    1.28    0.50
  -4  -2  -9   15.99    0.97
   4   2   9   15.33    0.75
  -5  -2  -9    1.72    0.54
  -5  -2  -9    1.94    0.25
   5   2   9    2.13    0.34
  -6  -2  -9    1.33    0.53
   6   2   9    1.23    0.35
  -7  -2  -9    5.69    0.80
   7   2   9    4.91    0.54
   8   2   9   34.89    1.40
   9   2   9   24.05    0.95
   9   2   9   24.74    1.12
  10   2   9    4.18    0.57
  11   2   9    4.91    0.66
  11   2   9    6.04    0.75
  12   2   9    5.79    0.78
  12   2   9    7.33    0.85
  13   2   9    1.86    0.48
  13   2   9    2.63    0.64
  14   2   9    1.28    0.73
  14   2   9    2.10    0.53
  15   2   9    3.79    0.58
  16   2   9   -0.70    0.62
  16   2   9    0.79    0.96
  17   2   9    2.57    1.10
  18   2   9    0.08    1.21
  19   2   9    0.50    1.37
  13  -3  -9    7.58    1.48
  12  -3  -9   -0.04    1.25
  11  -3  -9    0.28    1.18
  10  -3  -9    0.20    1.00
   9  -3  -9    0.44    0.87
   8  -3  -9    0.17    0.75
   7  -3  -9   -0.36    0.65
   6  -3  -9    1.61    0.58
   5  -3  -9   11.81    0.88
   4  -3  -9   11.76    0.82
   2  -3  -9   31.53    1.50
   1  -3  -9   77.46    2.86
   0  -3  -9   10.17    0.84
  -1  -3  -9    2.43    0.54
  -2  -3  -9    3.41    0.61
  -3  -3  -9   15.93    0.97
  -4  -3  -9    3.80    0.64
   4   3   9    3.43    0.43
  -5  -3  -9    2.71    0.54
   5   3   9    3.02    0.48
  -6  -3  -9   22.11    1.19
   6   3   9   23.22    1.00
   6   3   9   21.90    0.93
  -7  -3  -9   13.31    0.93
   7   3   9   12.82    0.70
   7   3   9   14.22    0.77
   8   3   9   19.28    0.96
   8   3   9   19.97    0.86
   9   3   9   24.87    1.03
   9   3   9   26.90    1.14
  10   3   9    1.10    0.30
  10   3   9    1.12    0.45
  11   3   9    6.48    0.68
  11   3   9    4.53    0.78
  12   3   9    1.22    0.56
  12   3   9    0.42    0.39
  13   3   9    0.59    0.63
  13   3   9    0.87    0.47
  14   3   9    9.55    1.10
  14   3   9    9.83    1.03
  15   3   9    0.50    0.56
  15   3   9    0.26    0.84
  16   3   9    2.08    0.94
  16   3   9    0.03    0.64
  17   3   9    0.40    0.73
  17   3   9    0.45    1.06
  18   3   9    7.34    1.23
  19   3   9   -0.55    1.36
  13  -4  -9    8.93    1.71
  12  -4  -9    6.69    1.38
  11  -4  -9   -0.34    1.26
  10  -4  -9    0.47    1.16
   9  -4  -9   -0.62    0.95
   8  -4  -9    1.59    0.81
   7  -4  -9    1.94    0.71
   6  -4  -9    2.44    0.65
   5  -4  -9    8.50    0.84
   4  -4  -9   80.01    2.76
   3  -4  -9   47.84    1.81
   2  -4  -9   17.28    1.19
   1  -4  -9    2.20    0.68
   0  -4  -9    5.63    0.78
  -1  -4  -9    2.58    0.60
  -2  -4  -9   20.33    1.14
  -3  -4  -9   15.37    0.99
  -4  -4  -9   52.52    2.10
  -5  -4  -9   20.28    1.11
   5   4   9   18.54    0.89
  -6  -4  -9   36.69    1.62
   6   4   9   34.65    1.34
   6   4   9   37.01    1.36
  -7  -4  -9   20.10    1.19
   7   4   9   20.17    0.92
   7   4   9   20.97    0.96
   8   4   9   11.11    0.75
   8   4   9   11.23    0.70
   9   4   9   15.73    0.83
   9   4   9   14.62    0.83
  10   4   9    0.56    0.41
  10   4   9    0.80    0.33
  11   4   9    1.05    0.36
  11   4   9    0.79    0.51
  12   4   9    0.69    0.40
  12   4   9   -0.35    0.57
  13   4   9    2.86    0.50
  13   4   9    3.53    0.68
  14   4   9    1.32    0.74
  14   4   9   -0.31    0.49
  15   4   9    8.76    1.24
  16   4   9    0.93    0.96
  16   4   9    0.06    0.65
  17   4   9    6.61    0.79
  18   4   9   -0.48    1.22
  18   4   9    0.20    0.91
  19   4   9    0.51    1.36
  11  -5  -9   -0.18    1.30
  10  -5  -9   -0.54    1.24
   9  -5  -9   -1.11    1.05
   8  -5  -9   -0.71    0.90
   7  -5  -9   14.51    1.31
   6  -5  -9    1.30    0.70
   5  -5  -9   39.94    1.68
   4  -5  -9   20.42    1.10
   3  -5  -9    9.51    0.76
   2  -5  -9    7.93    1.03
   1  -5  -9   24.24    1.36
   0  -5  -9    1.66    0.69
  -1  -5  -9    5.27    0.82
  -2  -5  -9    6.79    0.83
  -3  -5  -9   21.19    1.21
  -4  -5  -9   24.84    1.31
  -5  -5  -9   98.52    3.42
   5   5   9   90.69    2.99
  -6  -5  -9    9.24    0.90
   6   5   9    9.24    0.67
   6   5   9    8.73    0.71
  -7  -5  -9    2.88    0.66
   7   5   9    3.48    0.55
   7   5   9    3.14    0.54
  -8  -5  -9    5.17    0.89
   8   5   9    5.34    0.57
   8   5   9    5.77    0.63
   9   5   9    1.52    0.34
   9   5   9    1.23    0.41
  10   5   9    0.56    0.41
  10   5   9    0.71    0.36
  11   5   9    0.97    0.37
  11   5   9    1.23    0.48
  12   5   9    2.06    0.61
  12   5   9    1.96    0.46
  13   5   9    6.35    0.81
  13   5   9    4.66    0.51
  14   5   9   26.30    1.40
  14   5   9   30.23    1.55
  15   5   9    0.19    0.58
  15   5   9    0.97    0.85
  16   5   9    1.22    0.97
  16   5   9    0.60    0.67
  17   5   9   -0.45    0.75
  17   5   9    1.33    1.08
  18   5   9    2.70    1.21
  18   5   9   -0.57    0.85
  19   5   9    0.91    1.34
  12  -6  -9    1.99    1.59
  11  -6  -9   -0.97    1.39
   9  -6  -9    0.19    1.21
   8  -6  -9   31.87    1.92
   7  -6  -9   10.21    1.33
   6  -6  -9    1.60    0.80
   5  -6  -9    0.25    0.70
   4  -6  -9   12.17    0.97
   3  -6  -9    0.64    0.53
   2  -6  -9   13.86    0.90
   2  -6  -9   13.91    1.24
   1  -6  -9   15.09    1.21
   0  -6  -9    0.65    0.70
  -1  -6  -9   79.77    3.03
  -2  -6  -9    9.25    0.98
  -3  -6  -9    8.41    0.92
  -4  -6  -9   53.33    2.23
  -5  -6  -9   52.06    2.17
  -6  -6  -9   14.61    1.04
   6   6   9   14.27    0.86
  -7  -6  -9    0.69    0.66
   7   6   9    0.67    0.34
  -8  -6  -9    0.92    0.69
   8   6   9    0.51    0.35
   8   6   9    0.00    0.42
   9   6   9    1.37    0.45
   9   6   9    1.28    0.39
  10   6   9    3.47    0.67
  10   6   9    2.10    0.41
  11   6   9    4.24    0.76
  11   6   9    4.30    0.74
  12   6   9    1.83    0.57
  12   6   9    2.28    0.44
  13   6   9    8.54    0.88
  13   6   9    6.25    1.03
  14   6   9   -0.45    0.54
  15   6   9    2.86    0.62
  15   6   9    4.28    0.91
  16   6   9    1.63    0.99
  16   6   9    0.25    0.69
  17   6   9    7.06    1.18
  18   6   9    0.86    1.27
  18   6   9    0.22    0.88
  19   6   9    1.34    1.44
  19   6   9   -0.33    1.01
  11  -7  -9   -2.84    1.52
  10  -7  -9   -1.74    1.35
   9  -7  -9    6.30    1.34
   8  -7  -9   12.05    1.70
   7  -7  -9    6.81    1.05
   6  -7  -9    5.66    0.92
   5  -7  -9    5.48    0.84
   4  -7  -9    0.38    0.66
   3  -7  -9   28.61    1.37
   2  -7  -9    2.75    0.56
   2  -7  -9    3.67    0.90
   1  -7  -9    9.37    1.12
   0  -7  -9   52.26    2.20
  -1  -7  -9    8.86    1.00
  -2  -7  -9   86.19    3.19
  -3  -7  -9    1.24    0.67
  -4  -7  -9   26.90    1.45
  -5  -7  -9    6.35    0.89
  -6  -7  -9    0.68    0.70
   6   7   9    0.53    0.37
  -7  -7  -9    0.53    0.74
   7   7   9    0.06    0.37
  -8  -7  -9    1.36    0.76
   8   7   9    0.92    0.39
   9   7   9    1.15    0.45
  10   7   9   28.84    1.38
  11   7   9    1.56    0.40
  12   7   9    0.95    0.43
  13   7   9    0.38    0.49
  14   7   9   25.05    1.43
  14   7   9   17.69    1.23
  15   7   9    0.98    0.63
  15   7   9   -0.24    0.93
  16   7   9   -0.45    1.03
  16   7   9   -0.45    0.71
  17   7   9    0.54    0.82
  18   7   9    0.90    0.93
  18   7   9    0.86    1.33
  19   7   9    0.53    1.47
  19   7   9    0.32    1.06
  11  -8  -9    4.65    1.69
  10  -8  -9   -1.67    1.49
   9  -8  -9    3.71    1.41
   8  -8  -9   10.23    1.37
   7  -8  -9    9.33    1.63
   6  -8  -9    1.64    1.02
   5  -8  -9    1.68    0.90
   4  -8  -9   -0.62    0.84
   3  -8  -9    3.03    0.71
   2  -8  -9   11.39    1.35
   2  -8  -9    8.63    0.95
   1  -8  -9    2.24    0.92
   0  -8  -9    8.12    1.14
  -1  -8  -9  118.62    4.24
  -2  -8  -9   22.31    1.32
  -3  -8  -9    1.30    0.74
  -4  -8  -9   12.55    1.04
  -5  -8  -9    7.21    0.94
  -6  -8  -9    4.32    0.88
  -7  -8  -9    2.05    0.70
   7   8   9    0.41    0.44
   8   8   9    1.45    0.39
   9   8   9   15.49    0.94
  10   8   9    9.11    0.78
  11   8   9    5.07    0.77
  12   8   9    0.44    0.46
  13   8   9   16.47    1.11
  14   8   9    0.83    0.57
  15   8   9   -0.08    0.65
  16   8   9    0.69    0.73
  17   8   9    1.93    0.85
  18   8   9   -0.83    0.96
  19   8   9   -0.34    1.09
  10  -9  -9   -1.25    1.65
   9  -9  -9   -0.85    1.48
   8  -9  -9    2.28    1.43
   7  -9  -9   -1.07    1.28
   6  -9  -9   -1.90    1.19
   5  -9  -9   -1.08    1.03
   3  -9  -9    4.17    1.27
   2  -9  -9   36.17    2.05
   1  -9  -9    3.64    1.11
   0  -9  -9   33.27    1.80
  -1  -9  -9   10.35    1.21
  -2  -9  -9    1.25    0.86
  -3  -9  -9    2.71    0.83
  -4  -9  -9   13.62    1.13
  -5  -9  -9    9.72    1.01
  -6  -9  -9    1.48    0.78
  -7  -9  -9   10.74    1.02
   7   9   9    9.33    0.83
  -8  -9  -9    2.17    0.80
  -9  -9  -9   25.15    1.42
   9   9   9   24.39    1.23
  10   9   9   13.55    0.95
  11   9   9    1.32    0.48
  12   9   9    3.70    0.53
  13   9   9    0.60    0.54
  14   9   9    0.99    0.58
  15   9   9    0.56    0.68
  16   9   9    0.23    0.77
  17   9   9   -0.40    0.87
  18   9   9    2.00    0.97
  19   9   9    2.89    1.12
   9 -10  -9   -2.94    1.62
   8 -10  -9   -0.28    1.50
   7 -10  -9    1.75    1.47
   6 -10  -9   -0.52    1.31
   3 -10  -9   51.16    2.59
   2 -10  -9   12.97    1.66
   1 -10  -9    1.50    1.22
   0 -10  -9    0.40    1.14
  -1 -10  -9    6.99    1.35
  -2 -10  -9    0.85    0.97
  -3 -10  -9    5.53    1.12
  -4 -10  -9    1.52    0.84
  -5 -10  -9    9.49    1.08
  -6 -10  -9   23.65    1.42
  -7 -10  -9    0.67    0.86
   7  10   9    0.16    0.46
  -8 -10  -9    0.06    0.88
   8  10   9    1.02    0.48
  -9 -10  -9   10.36    1.15
   9  10   9   10.85    0.89
  10  10   9    0.62    0.47
  11  10   9    0.23    0.51
  12  10   9    2.00    0.55
  13  10   9   -0.62    0.57
  14  10   9    0.66    0.63
  15  10   9    0.62    0.70
  16  10   9    0.77    0.80
  17  10   9    2.01    0.91
  18  10   9    0.40    1.01
  19  10   9    1.83    1.15
   4 -11  -9    9.46    1.98
   3 -11  -9   14.27    1.95
   2 -11  -9   32.57    2.21
   1 -11  -9    2.41    1.40
   0 -11  -9    9.33    1.58
  -1 -11  -9   14.15    1.56
  -2 -11  -9    1.60    1.11
  -3 -11  -9    2.94    1.07
  -4 -11  -9    7.46    1.28
  -5 -11  -9   13.75    1.32
  -6 -11  -9   31.65    1.72
  -7 -11  -9   39.73    1.92
  -8 -11  -9    1.51    0.94
   8  11   9    1.78    0.51
  -9 -11  -9    2.48    0.94
   9  11   9    1.12    0.52
  10  11   9    0.47    0.52
  11  11   9    1.05    0.55
  12  11   9   -0.33    0.57
  13  11   9    0.13    0.68
  14  11   9    4.58    0.72
  15  11   9    0.03    0.73
  16  11   9   -0.13    0.83
  17  11   9   -1.29    0.91
  18  11   9   -1.97    1.02
   4 -12  -9    6.12    1.94
   3 -12  -9   14.04    2.09
   1 -12  -9   -0.88    1.56
   0 -12  -9    1.13    1.46
  -1 -12  -9    1.68    1.37
  -2 -12  -9    9.05    1.55
  -3 -12  -9    3.96    1.19
  -4 -12  -9    0.31    1.15
  -5 -12  -9    7.35    1.15
  -6 -12  -9    8.11    1.35
  -7 -12  -9    6.20    1.10
  -8 -12  -9    0.17    1.06
   8  12   9    0.30    0.57
  -9 -12  -9    1.45    1.07
   9  12   9    0.75    0.56
 -10 -12  -9   -0.32    1.08
  10  12   9    0.27    0.57
  11  12   9   -0.63    0.58
  12  12   9   -0.45    0.64
  13  12   9    0.73    0.67
  14  12   9   -0.46    0.72
  15  12   9   -0.17    0.78
  16  12   9    0.33    0.89
  17  12   9    0.37    0.97
  18  12   9    0.08    1.09
   4 -13  -9    5.98    2.31
   3 -13  -9    2.27    2.02
   2 -13  -9    2.02    1.81
   1 -13  -9    4.60    1.76
   0 -13  -9    0.53    1.67
  -1 -13  -9   -0.19    1.57
  -2 -13  -9   11.07    1.80
  -3 -13  -9   14.80    1.74
  -4 -13  -9    4.10    1.30
  -5 -13  -9    7.33    1.50
  -6 -13  -9    1.99    1.20
  -7 -13  -9    0.20    1.18
  -8 -13  -9    0.46    1.16
   8  13   9    0.12    0.64
  -9 -13  -9   -0.34    1.14
   9  13   9    1.15    0.62
 -10 -13  -9   -0.35    1.17
  10  13   9    0.07    0.64
  11  13   9    1.98    0.64
  12  13   9   -0.21    0.66
  13  13   9   -1.15    0.73
  14  13   9    3.05    0.79
  15  13   9    2.24    0.84
  17  13   9    0.46    1.03
  18  13   9   -1.07    1.16
   5 -14  -9    2.86    3.01
   4 -14  -9    2.23    2.72
   3 -14  -9    1.77    2.42
   2 -14  -9    7.31    2.26
   1 -14  -9    3.37    1.94
   0 -14  -9    1.97    1.83
  -1 -14  -9   24.69    2.30
  -2 -14  -9   20.66    2.14
  -3 -14  -9    3.01    1.58
  -4 -14  -9    9.28    1.58
  -5 -14  -9   -0.98    1.41
  -6 -14  -9    3.10    1.36
  -7 -14  -9    7.73    1.59
  -8 -14  -9    1.03    1.30
  -9 -14  -9    2.45    1.30
   9  14   9    0.23    0.69
 -10 -14  -9    4.94    1.32
  10  14   9    2.54    0.70
 -11 -14  -9    4.80    1.35
  11  14   9    2.48    0.71
  12  14   9    3.21    0.74
  13  14   9   -0.47    0.75
  14  14   9   -0.56    0.84
  15  14   9   -1.48    0.89
  16  14   9    0.10    0.99
  17  14   9   -0.44    1.08
   3 -15  -9   -0.50    2.91
   2 -15  -9    1.59    2.62
   1 -15  -9    5.93    2.43
   0 -15  -9    5.07    2.18
  -1 -15  -9    9.11    1.99
  -2 -15  -9    7.18    1.89
  -3 -15  -9   10.43    2.13
  -4 -15  -9    1.46    1.68
  -5 -15  -9   -1.10    1.63
  -6 -15  -9    2.43    1.55
  -7 -15  -9    0.42    1.50
  -8 -15  -9   -1.04    1.46
  -9 -15  -9    2.33    1.45
 -10 -15  -9    3.20    1.50
  10  15   9    3.31    0.78
 -11 -15  -9    2.69    1.51
  11  15   9    4.15    0.81
  12  15   9    0.04    0.80
  13  15   9    1.25    0.82
  14  15   9   -1.26    0.88
  15  15   9    0.15    0.97
  16  15   9   -1.62    1.05
   2 -16  -9    6.49    3.04
   1 -16  -9    8.37    2.85
   0 -16  -9    4.84    2.62
  -1 -16  -9    3.86    2.39
  -2 -16  -9    5.36    2.20
  -3 -16  -9    4.29    1.99
  -4 -16  -9    0.99    1.85
  -5 -16  -9    2.41    1.78
  -6 -16  -9    4.35    1.74
  -7 -16  -9    1.59    1.67
  -8 -16  -9    2.32    1.62
  -9 -16  -9    2.42    1.59
 -10 -16  -9    2.63    1.60
  10  16   9    0.74    0.86
 -11 -16  -9    3.27    1.58
  11  16   9    4.28    0.88
 -12 -16  -9    1.13    1.63
  12  16   9    1.64    0.90
  13  16   9   -0.47    0.91
  14  16   9    0.52    0.95
  15  16   9   -0.49    1.02
   0 -17  -9    4.97    3.07
  -1 -17  -9    3.44    2.82
  -2 -17  -9    4.00    2.62
  -3 -17  -9    0.56    2.46
  -4 -17  -9    0.70    2.22
  -5 -17  -9    5.22    2.16
  -6 -17  -9    2.80    1.98
  -7 -17  -9    7.61    1.93
  -8 -17  -9   10.28    1.90
  -9 -17  -9    2.07    1.83
 -10 -17  -9    3.83    1.80
 -11 -17  -9    2.18    1.85
  11  17   9    0.17    0.95
 -12 -17  -9    0.52    1.93
  13  17   9    0.67    1.02
  14  17   9   -0.06    1.07
  -3 -18  -9    0.02    2.88
  -4 -18  -9    3.17    2.67
  -5 -18  -9    4.00    2.60
  -6 -18  -9    7.13    2.47
  -7 -18  -9    5.70    2.35
  -8 -18  -9    1.64    2.28
  -9 -18  -9    0.25    2.23
 -10 -18  -9   -0.60    2.24
 -11 -18  -9    1.22    2.25
 -12 -18  -9    2.02    2.33
  12  18   9    0.61    1.09
   4  18 -10    1.24    1.25
  -4 -18  10    8.10    3.02
  -3 -18  10    4.60    3.09
   8  17 -10   -1.69    1.12
   7  17 -10   -1.89    1.09
   6  17 -10   -1.39    1.06
  -6 -17  10    3.30    2.62
   5  17 -10   -1.90    1.08
  -5 -17  10    2.33    2.70
  -4 -17  10    7.51    2.69
  -3 -17  10    7.78    2.74
   2  17 -10    1.39    1.19
  -2 -17  10    4.43    2.73
  -1 -17  10    3.51    2.85
   0 -17  10    4.38    2.96
   1 -17  10    7.51    3.07
   2 -17  10    7.97    3.25
  10  16 -10    1.26    1.09
   9  16 -10   -1.23    1.07
   8  16 -10   -0.42    1.01
   7  16 -10   -0.14    0.97
   6  16 -10   -0.10    0.95
  -6 -16  10    3.43    2.37
  -5 -16  10    0.73    2.40
  -4 -16  10    5.38    2.41
  -3 -16  10    7.21    2.44
   2  16 -10    0.02    1.03
  -2 -16  10    4.18    2.44
  -1 -16  10    4.88    2.53
   0 -16  10    2.96    2.59
   1 -16  10    5.64    2.71
   2 -16  10    5.89    2.84
   3 -16  10    9.10    3.03
   4 -16  10    5.15    3.21
  11  15 -10   -0.43    1.12
  10  15 -10    0.37    1.04
   9  15 -10    1.37    0.95
   8  15 -10    1.20    0.92
  -7 -15  10    3.45    2.21
   6  15 -10   -0.48    0.83
   5  15 -10   -0.36    0.83
  -5 -15  10    1.40    2.16
  -4 -15  10    4.97    2.19
  -3 -15  10    3.88    2.19
   2  15 -10    0.79    0.89
  -2 -15  10    1.66    2.21
   1  15 -10    2.93    0.93
  -1 -15  10    2.58    2.25
   0 -15  10    5.58    2.32
   1 -15  10    5.47    2.39
   2 -15  10    6.61    2.51
   3 -15  10    8.36    2.67
   4 -15  10    5.79    2.83
   5 -15  10    1.48    2.93
  12  14 -10   -1.41    1.11
  11  14 -10   -0.74    1.05
  10  14 -10    0.45    0.97
   9  14 -10   -0.49    0.89
   8  14 -10    0.69    0.82
   7  14 -10    0.52    0.77
   6  14 -10    0.74    0.76
  -5 -14  10    7.88    1.94
  -4 -14  10    3.50    1.94
  -3 -14  10    2.20    1.97
   2  14 -10   -0.63    0.78
  -2 -14  10    3.07    1.95
  -1 -14  10    6.38    1.98
   0 -14  10    3.91    2.02
   1 -14  10    4.72    2.09
   2 -14  10    5.14    2.19
   3 -14  10    6.01    2.34
   4 -14  10    9.90    2.51
   5 -14  10   -0.64    2.56
   6 -14  10   -4.14    2.64
   8 -14  10    0.82    2.93
  13  13 -10   -1.43    1.11
  12  13 -10    1.25    1.04
  11  13 -10    0.83    0.94
  10  13 -10    0.12    0.88
   9  13 -10    1.26    0.81
   8  13 -10    1.28    0.76
   7  13 -10    0.30    0.71
   6  13 -10    0.48    0.67
  -6 -13  10    1.45    1.80
   5  13 -10    0.68    0.65
  -4 -13  10    3.48    1.71
   3  13 -10   -0.51    0.65
  -3 -13  10    1.83    1.71
  -2 -13  10    2.34    1.75
  -1 -13  10    4.44    1.76
   0 -13  10    6.64    1.78
   1 -13  10    6.53    1.84
   2 -13  10    8.67    1.94
   3 -13  10    4.82    2.06
   4 -13  10    2.99    2.11
   5 -13  10    0.23    2.24
   6 -13  10   -2.90    2.29
   7 -13  10   -2.47    2.42
   8 -13  10    3.59    2.62
   9 -13  10    2.79    2.85
  14  12 -10    1.65    1.21
  13  12 -10   -0.24    1.02
  12  12 -10    1.10    0.94
  11  12 -10    0.01    0.88
  10  12 -10    0.64    0.80
   9  12 -10    0.09    0.76
   8  12 -10    0.83    0.69
   7  12 -10   -0.55    0.65
   6  12 -10    0.03    0.60
  -5 -12  10    2.43    1.57
   4  12 -10   -0.15    0.56
  -4 -12  10   -0.24    1.54
   3  12 -10   -0.74    0.56
  -3 -12  10   -0.12    1.52
  -2 -12  10    0.96    1.52
   1  12 -10    4.20    0.63
   0  12 -10    1.94    0.64
   0 -12  10    4.71    1.58
  -1  12 -10    0.90    0.67
   1 -12  10    1.11    1.61
   2 -12  10    1.57    1.67
   3 -12  10    1.71    1.77
   4 -12  10   -0.04    1.81
   5 -12  10    0.41    1.92
   6 -12  10   -1.58    2.02
   7 -12  10   -2.44    2.12
   8 -12  10    2.21    2.29
  14  11 -10   -0.01    1.11
  13  11 -10    2.59    1.02
  12  11 -10    0.77    0.94
  11  11 -10    1.12    0.86
  10  11 -10   -0.43    0.79
   9  11 -10   -0.27    0.68
   8  11 -10   -0.35    0.64
   7  11 -10   -0.27    0.60
   6  11 -10    0.46    0.55
   5  11 -10    0.14    0.53
   4  11 -10   11.87    0.96
  -4 -11  10    9.70    1.74
   3  11 -10    0.42    0.48
  -3 -11  10    1.01    1.34
   2  11 -10    0.34    0.49
  -2 -11  10   -0.30    1.31
   1  11 -10   -0.96    0.51
  -1 -11  10    0.30    1.34
   0  11 -10    9.57    1.14
   0 -11  10    9.37    1.68
  -1  11 -10    1.37    0.65
   1 -11  10    2.42    1.35
   2 -11  10    3.94    1.39
   3 -11  10    1.14    1.46
   4 -11  10    2.15    1.54
   5 -11  10    1.49    1.72
   6 -11  10   -2.65    1.74
   7 -11  10    1.86    1.90
   8 -11  10    5.05    2.09
  14  10 -10   -0.55    0.99
  13  10 -10    1.27    0.92
  12  10 -10    1.04    0.84
  11  10 -10   -0.08    0.78
  10  10 -10    1.69    0.71
   9  10 -10    0.34    0.66
   8  10 -10    1.71    0.64
   7  10 -10    2.78    0.57
   6  10 -10    0.58    0.51
   5  10 -10   11.05    0.95
   4  10 -10    0.09    0.45
  -4 -10  10   -0.72    1.35
   3  10 -10    9.14    0.84
  -3 -10  10   10.53    1.59
   2  10 -10    2.91    0.46
  -2 -10  10    1.61    1.23
   1  10 -10   18.88    1.12
  -1 -10  10   15.57    1.65
   0 -10  10    0.77    1.19
  -1  10 -10    6.63    0.93
   1 -10  10    4.24    1.21
   2 -10  10    0.23    1.20
   3 -10  10    1.57    1.26
   4 -10  10    0.59    1.36
   5 -10  10   -2.41    1.42
   6 -10  10   -0.69    1.56
   7 -10  10    7.18    1.76
   8 -10  10    1.33    1.89
  15   9 -10    1.59    1.01
  14   9 -10    1.86    0.93
  13   9 -10    2.15    0.85
  12   9 -10    0.58    0.78
  11   9 -10    1.87    0.71
  10   9 -10    0.70    0.64
   9   9 -10    0.15    0.59
   8   9 -10    3.41    0.57
   7   9 -10    0.42    0.53
   6   9 -10    0.07    0.46
   5   9 -10    0.40    0.43
   4   9 -10   30.69    1.36
  -4  -9  10   31.02    1.90
  -3  -9  10    0.55    1.14
   2   9 -10   19.24    1.03
  -2  -9  10   15.46    1.64
   1   9 -10   -0.24    0.40
  -1  -9  10   -0.38    1.08
   0   9 -10    0.36    0.43
   0  -9  10    1.07    1.08
  -1   9 -10   14.02    0.94
   1  -9  10    9.21    1.42
  -2   9 -10    0.01    0.48
   2  -9  10    0.08    1.07
   3  -9  10   -0.48    1.11
   4  -9  10    3.41    1.21
   5  -9  10    8.20    1.38
   6  -9  10    2.08    1.42
   7  -9  10   -1.01    1.58
   8  -9  10    8.25    1.70
  13  -9  10    1.72    1.36
  15   8 -10   -0.06    0.94
  14   8 -10   -0.39    0.87
  13   8 -10    0.21    0.80
  12   8 -10   -0.33    0.73
  11   8 -10   -0.05    0.68
  10   8 -10   -0.14    0.62
   9   8 -10   -0.03    0.56
   8   8 -10    1.58    0.54
   7   8 -10   11.11    0.95
   6   8 -10    1.16    0.43
   5   8 -10   11.54    0.86
  -4  -8  10    3.36    1.07
   3   8 -10    2.35    0.41
  -3  -8  10    2.85    1.02
   2   8 -10   13.09    0.83
  -2  -8  10   10.11    1.34
   1   8 -10   10.53    0.73
  -1  -8  10    7.46    1.29
   0   8 -10    0.58    0.38
   0  -8  10    0.59    1.04
  -1   8 -10    2.09    0.38
   1  -8  10    1.53    1.03
   2  -8  10    8.73    1.33
   3  -8  10    0.97    1.05
   4  -8  10   15.58    1.54
   5  -8  10    2.48    1.22
   6  -8  10   -1.26    1.25
   7  -8  10    1.70    1.35
   8  -8  10   -0.31    1.43
   9  -8  10    4.65    1.62
  13  -8  10    3.95    1.23
  14  -8  10    4.14    1.36
   6   7 -10    5.41    0.77
   5   7 -10    0.10    0.38
   4   7 -10    0.45    0.35
   3   7 -10    0.98    0.34
  -3  -7  10    2.60    0.98
   2   7 -10   13.29    0.83
  -2  -7  10   17.92    1.32
   1   7 -10   14.70    0.81
  -1  -7  10   15.45    1.27
   0   7 -10    7.46    0.65
   0  -7  10    9.44    1.15
  -1   7 -10   26.53    1.09
   1  -7  10   26.27    1.59
   2  -7  10    0.31    0.89
   3  -7  10    2.53    0.94
   4  -7  10   10.11    1.31
   5  -7  10   11.38    1.38
   6  -7  10    4.46    1.12
   7  -7  10    2.38    1.19
   8  -7  10    2.67    1.33
  11  -7  10    1.95    0.89
  12  -7  10    3.93    0.98
  13  -7  10    4.55    1.11
  14  -7  10    2.02    1.27
  15  -7  10    2.15    1.44
   3   6 -10    0.70    0.33
   2   6 -10   28.30    1.15
  -2  -6  10   26.63    1.63
   1   6 -10   13.47    0.73
  -1  -6  10   13.45    1.33
   0   6 -10   17.78    0.83
   0  -6  10   15.96    1.29
   1  -6  10    8.92    1.06
   2  -6  10   23.40    1.43
   3  -6  10    3.52    0.84
   4  -6  10    5.81    1.11
   5  -6  10    2.41    0.94
   6  -6  10    2.80    1.01
   7  -6  10   12.76    1.41
   8  -6  10   14.85    1.55
   9  -6  10    2.73    0.65
  12  -6  10    1.61    0.89
  13  -6  10   -0.20    1.01
  14  -6  10    6.14    1.19
  15  -6  10   -0.43    1.32
  15   5 -10    0.83    1.74
  -2  -5  10    3.78    0.80
   1   5 -10   16.99    0.82
  -1  -5  10   16.70    1.29
   0   5 -10   11.86    0.64
   0  -5  10   12.03    1.15
   1  -5  10  107.61    3.96
   2  -5  10    7.51    1.08
   3  -5  10    8.51    1.07
   4  -5  10    2.95    0.85
   5  -5  10    4.03    0.89
   6  -5  10    2.09    0.92
   7  -5  10    0.05    0.50
   7  -5  10    1.33    0.99
   8  -5  10    5.68    1.11
   8  -5  10    4.42    0.63
   9  -5  10    4.59    0.63
  10  -5  10    2.45    0.64
  11  -5  10    3.83    0.73
  12  -5  10    2.09    0.82
  13  -5  10    2.45    0.94
  14  -5  10   -1.34    1.05
  15  -5  10    2.08    1.19
  16  -5  10    0.02    1.38
  15   4 -10   -0.81    1.73
  14   4 -10   -1.68    1.27
  13   4 -10   -0.19    1.13
  12   4 -10    9.29    1.23
  11   4 -10    3.94    1.00
  10   4 -10   -0.02    0.87
   9   4 -10    6.08    0.87
   8   4 -10   -1.09    0.71
  -2  -4  10   95.07    3.46
  -1  -4  10    2.15    0.72
   0  -4  10   27.57    1.46
   1  -4  10    2.57    0.68
   2  -4  10    4.69    0.97
   3  -4  10    2.16    0.78
   4  -4  10    1.93    0.77
   5  -4  10    6.98    1.10
   5  -4  10    7.84    0.71
   6  -4  10    9.97    0.79
   6  -4  10    9.87    1.17
   7  -4  10   12.97    1.27
   7  -4  10   13.07    0.82
   8  -4  10    5.98    1.06
   8  -4  10    5.23    0.61
   9  -4  10    8.84    0.87
  10  -4  10   19.43    1.12
  11  -4  10    2.35    0.67
  12  -4  10    1.21    0.75
  13  -4  10    0.47    0.86
  14  -4  10    5.16    1.01
  15  -4  10    0.17    1.11
  16  -4  10   -0.77    1.26
  15   3 -10    7.10    1.77
  14   3 -10    0.22    1.32
  13   3 -10    1.06    1.17
  12   3 -10    4.77    1.18
  11   3 -10   -1.08    0.97
  10   3 -10    1.35    0.89
   9   3 -10    1.54    0.77
   7   3 -10    6.75    0.84
   6   3 -10    1.56    0.52
   5   3 -10    2.33    0.54
  -2  -3  10    1.49    0.66
  -1  -3  10    4.76    0.82
   0  -3  10    2.46    0.66
   1  -3  10   11.10    0.95
   2  -3  10    0.92    0.29
   2  -3  10    0.05    0.55
   3  -3  10    2.30    0.63
   3  -3  10    3.13    0.53
   4  -3  10    2.54    0.67
   4  -3  10    2.57    0.43
   5  -3  10    9.81    0.70
   5  -3  10   10.84    1.03
   6  -3  10   12.88    0.88
   6  -3  10   14.08    1.19
   7  -3  10   -0.28    0.40
   7  -3  10   -0.62    0.82
   8  -3  10    1.61    0.49
   8  -3  10    2.71    0.84
   9  -3  10   14.35    0.95
  10  -3  10    1.42    0.56
  11  -3  10    8.48    0.90
  12  -3  10    1.44    0.71
  13  -3  10    0.27    0.80
  14  -3  10   -0.19    0.91
  15  -3  10    1.18    1.04
  16  -3  10   -1.22    1.19
  17  -3  10    5.99    1.42
  15   2 -10   -0.30    1.80
  14   2 -10   -1.37    1.35
  13   2 -10    0.83    1.20
  12   2 -10    0.03    1.19
  11   2 -10   -1.33    0.98
  10   2 -10    1.29    0.90
   9   2 -10    0.93    0.79
   8   2 -10   -1.20    0.68
   7   2 -10    5.92    0.81
   6   2 -10   41.94    1.71
   5   2 -10   -0.13    0.47
  -1  -2  10   26.83    1.34
   0  -2  10    5.10    0.65
   1  -2  10    4.00    0.74
   2  -2  10    1.36    0.52
   3  -2  10   54.99    2.23
   3  -2  10   56.27    1.91
   4  -2  10   10.49    0.90
   4  -2  10   10.25    0.66
   5  -2  10   24.33    1.08
   5  -2  10   24.67    1.35
   6  -2  10   22.42    1.34
   6  -2  10   22.76    1.07
   7  -2  10    7.70    1.09
   7  -2  10    8.50    0.65
   8  -2  10    2.76    0.44
   8  -2  10    2.41    0.83
   9  -2  10    0.61    0.47
  10  -2  10    1.53    0.52
  11  -2  10    1.80    0.58
  12  -2  10    0.97    0.65
  13  -2  10    1.31    0.75
  14  -2  10   11.11    1.26
  15  -2  10    2.33    0.98
  16  -2  10    0.76    1.13
  17  -2  10    0.50    1.29
  14   1 -10   -0.26    1.41
  13   1 -10    0.11    1.23
  12   1 -10   -0.37    1.23
  11   1 -10   -0.55    1.04
  10   1 -10    0.10    0.88
   9   1 -10    0.55    0.79
   8   1 -10    6.46    0.81
   7   1 -10   27.60    1.35
   6   1 -10   11.45    0.89
   5   1 -10    4.75    0.59
   2   1 -10    0.51    0.59
   1   1 -10   16.63    0.75
   1   1 -10   15.91    1.06
   2  -1  10   44.16    1.84
   3  -1  10    9.14    0.82
   3  -1  10    8.75    0.62
   4  -1  10    5.88    0.73
   4  -1  10    5.17    0.54
   5  -1  10   21.23    0.99
   5  -1  10   21.94    1.18
   6  -1  10   25.09    1.13
   7  -1  10    4.45    0.88
   7  -1  10    3.12    0.50
   8  -1  10    0.56    0.38
   9  -1  10    3.67    0.68
  10  -1  10    0.13    0.50
  11  -1  10    4.81    0.81
  12  -1  10    3.12    0.63
  13  -1  10    5.20    0.78
  14  -1  10   -0.60    0.81
  15  -1  10    1.76    0.93
  16  -1  10    1.01    1.07
  17  -1  10    1.53    1.21
  18  -1  10   -0.73    1.40
  14   0 -10   -0.03    1.48
  13   0 -10   -0.21    1.29
  12   0 -10    2.61    1.25
  11   0 -10    0.30    1.07
  10   0 -10    1.24    0.93
   9   0 -10    1.10    0.83
   8   0 -10    5.78    0.82
   7   0 -10   22.60    1.25
   6   0 -10   33.20    1.48
   5   0 -10    1.26    0.47
   2   0 -10    2.05    0.60
   1   0 -10   12.30    0.92
   0   0 -10   75.69    2.90
   0   0 -10   79.03    2.05
  -1   0 -10    9.48    0.85
  -1   0 -10    9.86    0.59
  -2   0 -10  114.63    4.07
  -2   0 -10  116.49    2.87
  -3   0 -10   16.28    0.76
  -3   0 -10   15.86    1.10
   3   0  10   15.51    0.77
   4   0  10    7.91    0.62
   5   0  10    3.18    0.51
   6   0  10    7.92    0.61
   7   0  10   10.33    0.75
   8   0  10    0.96    0.37
   9   0  10    1.57    0.45
  10   0  10   19.77    1.07
  11   0  10    9.38    0.87
  12   0  10    5.19    0.87
  13   0  10    1.95    0.68
  14   0  10   15.24    1.26
  15   0  10   -0.80    0.90
  16   0  10   -0.22    1.03
  17   0  10    2.16    1.18
  18   0  10   -0.54    1.36
  14  -1 -10    1.27    1.57
  13  -1 -10    1.99    1.37
  12  -1 -10   -1.64    1.33
  11  -1 -10    3.75    1.16
  10  -1 -10   12.72    1.54
   9  -1 -10    0.44    0.86
   8  -1 -10    5.57    1.07
   7  -1 -10   17.91    1.19
   6  -1 -10    2.37    0.56
   5  -1 -10    1.24    0.49
   1  -1 -10    3.39    0.61
   0  -1 -10  131.43    4.51
  -1  -1 -10  112.21    3.94
  -2  -1 -10  155.24    3.63
  -2  -1 -10  147.91    5.13
  -3  -1 -10    1.69    0.37
  -3  -1 -10    1.15    0.50
  -4  -1 -10    6.16    0.81
  -4  -1 -10    6.06    0.55
   4   1  10    6.14    0.53
  -5  -1 -10    1.05    0.46
  -5  -1 -10    1.76    0.63
   5   1  10    1.07    0.34
  -6  -1 -10    5.25    0.87
  -6  -1 -10    4.42    0.57
   6   1  10    4.25    0.57
  -7  -1 -10    5.89    0.96
  -7  -1 -10    5.15    0.61
   7   1  10    5.80    0.66
   8   1  10    2.71    0.53
   9   1  10    2.45    0.42
  10   1  10    5.14    0.74
  11   1  10    3.36    0.58
  12   1  10   14.02    1.03
  13   1  10    8.37    1.02
  14   1  10    1.16    0.76
  15   1  10    4.65    0.91
  16   1  10    1.56    1.02
  17   1  10    0.85    1.15
  18   1  10    0.26    1.31
  13  -2 -10   -0.76    1.44
  12  -2 -10    0.35    1.37
  11  -2 -10   11.04    1.36
  10  -2 -10    4.28    1.06
   9  -2 -10    2.99    0.89
   8  -2 -10    9.26    1.18
   7  -2 -10   -0.69    0.69
   6  -2 -10    1.13    0.57
   5  -2 -10    0.73    0.51
   4  -2 -10    2.00    0.51
   2  -2 -10   39.03    1.73
   1  -2 -10   52.19    2.12
   0  -2 -10   20.77    1.16
  -1  -2 -10   46.12    1.94
  -2  -2 -10    1.52    0.54
  -3  -2 -10   40.99    1.81
  -4  -2 -10   32.16    1.54
   4   2  10   32.90    1.28
  -5  -2 -10    1.42    0.56
   5   2  10    1.11    0.34
  -6  -2 -10    4.56    0.80
   6   2  10    4.50    0.56
  -7  -2 -10   30.30    1.54
   7   2  10   30.42    1.27
  -8  -2 -10    4.80    0.82
   8   2  10    4.42    0.59
   9   2  10    1.10    0.39
  10   2  10   24.48    1.17
  11   2  10    7.12    0.83
  12   2  10    3.63    0.64
  13   2  10    4.86    0.71
  14   2  10    1.14    0.76
  14   2  10    0.54    0.52
  15   2  10    1.71    0.60
  15   2  10    3.10    0.87
  16   2  10    1.64    1.00
  17   2  10    3.29    1.14
  18   2  10    2.51    1.29
  19   2  10    2.48    1.44
  12  -3 -10    0.40    1.39
  11  -3 -10   10.21    1.93
  10  -3 -10    5.30    1.12
   9  -3 -10   -0.97    0.96
   8  -3 -10    1.37    0.83
   7  -3 -10    0.04    0.70
   6  -3 -10    2.73    0.63
   5  -3 -10    1.02    0.54
   4  -3 -10    2.37    0.50
   2  -3 -10   41.17    1.85
   1  -3 -10   22.87    1.30
   0  -3 -10   22.55    1.28
  -1  -3 -10    9.56    0.87
  -2  -3 -10    5.02    0.69
  -3  -3 -10   36.80    1.67
  -4  -3 -10   32.63    1.55
  -5  -3 -10    5.27    0.73
   5   3  10    5.38    0.54
  -6  -3 -10   95.73    3.44
   6   3  10   94.54    3.03
  -7  -3 -10   15.71    1.07
   7   3  10   16.28    0.88
   7   3  10   14.29    0.78
  -8  -3 -10   18.99    1.19
   8   3  10   17.60    0.83
   8   3  10   15.09    0.89
   9   3  10    0.64    0.38
   9   3  10    1.56    0.31
  10   3  10    5.74    0.64
  10   3  10    6.04    0.68
  11   3  10    1.89    0.52
  11   3  10    3.50    0.62
  12   3  10    4.94    0.90
  12   3  10    5.93    0.76
  13   3  10    0.00    0.46
  13   3  10    0.23    0.68
  14   3  10    2.40    0.77
  14   3  10    1.64    0.54
  15   3  10    1.32    0.86
  15   3  10   -0.52    0.57
  16   3  10    5.31    0.69
  17   3  10    1.32    1.11
  18   3  10    1.13    1.26
  19   3  10    1.91    1.41
  13  -4 -10    1.58    1.66
  12  -4 -10   -0.23    1.46
  11  -4 -10    0.36    1.40
  10  -4 -10   -0.62    1.21
   9  -4 -10   -0.04    1.06
   8  -4 -10    0.79    0.92
   7  -4 -10    0.39    0.79
   6  -4 -10   11.98    1.14
   5  -4 -10   15.15    1.05
   4  -4 -10    0.71    0.54
   3  -4 -10    9.58    0.85
   2  -4 -10   53.92    2.29
   1  -4 -10   35.64    1.70
   0  -4 -10    7.57    0.90
  -1  -4 -10    0.33    0.60
  -2  -4 -10    3.66    0.75
  -3  -4 -10   47.69    2.03
  -4  -4 -10    4.46    0.75
  -5  -4 -10    5.76    0.78
   5   4  10    4.98    0.54
  -6  -4 -10    5.37    0.80
   6   4  10    5.53    0.61
  -7  -4 -10   80.31    2.93
   7   4  10   76.94    2.48
   7   4  10   77.77    2.59
  -8  -4 -10   14.41    1.10
   8   4  10   13.43    0.81
   8   4  10   12.23    0.78
   9   4  10    3.50    0.61
  10   4  10    0.48    0.43
  10   4  10    1.35    0.35
  11   4  10    0.90    0.50
  11   4  10    1.04    0.37
  12   4  10    0.27    0.43
  12   4  10    0.44    0.58
  13   4  10    1.09    0.69
  13   4  10    2.12    0.49
  14   4  10    4.96    0.84
  14   4  10    4.30    0.59
  15   4  10    3.38    0.61
  15   4  10    4.99    0.91
  16   4  10   -0.62    0.66
  16   4  10    1.49    1.01
  17   4  10   -0.34    0.76
  17   4  10    1.75    1.13
  18   4  10    0.73    1.25
  19   4  10    3.61    1.41
  12  -5 -10   -1.52    1.56
  11  -5 -10   -1.46    1.48
  10  -5 -10   -1.64    1.38
   9  -5 -10   -1.40    1.14
   8  -5 -10    0.69    0.99
   7  -5 -10    2.61    0.86
   6  -5 -10   19.42    1.43
   5  -5 -10   30.43    1.48
   4  -5 -10    0.52    0.57
   3  -5 -10    3.61    0.58
   2  -5 -10    5.77    1.03
   1  -5 -10    5.65    0.99
   0  -5 -10    8.22    1.06
  -1  -5 -10   15.43    1.12
  -2  -5 -10   16.15    1.13
  -3  -5 -10    1.23    0.64
  -4  -5 -10   42.69    1.90
  -5  -5 -10   -0.50    0.64
  -6  -5 -10   49.40    2.09
   6   5  10   47.04    1.74
  -7  -5 -10   13.53    1.07
   7   5  10   12.54    0.79
   7   5  10   11.57    0.83
  -8  -5 -10    5.04    0.95
   8   5  10    5.53    0.68
   8   5  10    3.79    0.63
   9   5  10   10.75    0.74
   9   5  10   11.34    0.81
  10   5  10    7.38    0.74
  10   5  10    7.42    0.75
  11   5  10    0.81    0.40
  11   5  10    0.35    0.49
  12   5  10    0.91    0.57
  12   5  10    0.90    0.43
  13   5  10    2.05    0.53
  13   5  10    1.63    0.69
  14   5  10    0.20    0.82
  14   5  10    1.24    0.52
  15   5  10   -0.38    0.91
  15   5  10    0.25    0.60
  16   5  10    4.89    0.72
  17   5  10   -0.63    1.16
  17   5  10   -0.86    0.79
  18   5  10    3.40    1.30
  19   5  10   -1.08    1.40
  11  -6 -10    0.21    1.50
  10  -6 -10   -0.07    1.47
   9  -6 -10   -2.12    1.27
   8  -6 -10    0.99    1.13
   7  -6 -10    1.53    0.99
   6  -6 -10   24.50    1.61
   5  -6 -10   21.19    1.36
   4  -6 -10    2.86    0.67
   3  -6 -10    6.30    1.17
   3  -6 -10    4.96    0.85
   2  -6 -10    5.17    0.92
   1  -6 -10    1.71    0.77
   0  -6 -10   35.03    1.69
  -1  -6 -10   14.51    1.13
  -2  -6 -10    8.98    1.00
  -3  -6 -10  114.83    4.12
  -4  -6 -10   51.30    2.19
  -5  -6 -10    1.83    0.71
  -6  -6 -10    2.61    0.73
   6   6  10    1.38    0.43
  -7  -6 -10    5.33    0.92
   7   6  10    3.77    0.66
   7   6  10    4.27    0.69
  -8  -6 -10   -0.05    0.73
   8   6  10    0.38    0.38
   9   6  10    1.39    0.42
   9   6  10    0.76    0.43
  10   6  10    1.40    0.44
  10   6  10    0.76    0.44
  11   6  10    5.38    0.78
  11   6  10    4.06    0.58
  12   6  10    3.96    0.66
  12   6  10    6.06    0.84
  13   6  10    3.00    0.70
  14   6  10    4.39    0.57
  15   6  10    4.16    0.63
  16   6  10   -0.39    1.06
  16   6  10    0.34    0.70
  17   6  10    0.62    1.19
  17   6  10   -0.47    0.81
  18   6  10   -0.83    0.91
  18   6  10    0.19    1.34
  19   6  10   -0.58    1.47
  11  -7 -10   -1.23    1.61
  10  -7 -10    3.48    1.54
   9  -7 -10    2.23    1.45
   8  -7 -10   -0.75    1.23
   7  -7 -10    9.62    1.64
   6  -7 -10   21.44    1.60
   5  -7 -10   -0.32    0.89
   4  -7 -10    1.69    0.74
   3  -7 -10    3.43    0.67
   2  -7 -10    0.74    0.58
   2  -7 -10    0.25    0.98
   1  -7 -10    2.97    0.90
   0  -7 -10   18.79    1.32
  -1  -7 -10    8.54    1.04
  -2  -7 -10   52.35    2.22
  -3  -7 -10   17.68    1.15
  -4  -7 -10   43.75    1.94
  -5  -7 -10    0.70    0.71
  -6  -7 -10    0.96    0.71
  -7  -7 -10    1.61    0.73
   7   7  10    1.81    0.43
  -8  -7 -10    0.19    0.74
   8   7  10    0.07    0.42
   9   7  10    0.43    0.43
  10   7  10    1.59    0.48
  10   7  10    0.89    0.51
  11   7  10    5.96    0.78
  11   7  10    5.38    0.78
  12   7  10   29.93    1.43
  12   7  10   37.23    1.54
  13   7  10    0.20    0.49
  14   7  10    2.36    0.81
  14   7  10    0.56    0.56
  15   7  10    0.04    0.63
  16   7  10    4.94    1.08
  16   7  10    2.18    0.73
  17   7  10    0.22    0.82
  18   7  10   -0.02    0.94
  19   7  10    2.10    1.11
  10  -8 -10    0.41    1.58
   9  -8 -10    9.02    1.58
   7  -8 -10    1.94    1.25
   6  -8 -10   -0.51    1.12
   5  -8 -10    0.09    0.98
   4  -8 -10    0.34    0.88
   3  -8 -10    0.16    1.21
   3  -8 -10    0.78    0.74
   2  -8 -10    3.95    1.10
   1  -8 -10   41.57    2.05
   0  -8 -10    8.80    1.24
  -1  -8 -10    5.44    1.12
  -2  -8 -10    4.00    0.86
  -3  -8 -10   44.54    2.00
  -4  -8 -10    1.86    0.75
  -5  -8 -10    4.81    0.79
  -6  -8 -10    4.58    0.94
  -7  -8 -10    5.74    0.83
  -8  -8 -10    1.56    0.78
   8   8  10    0.88    0.41
  -9  -8 -10    0.55    0.81
   9   8  10    1.18    0.41
  10   8  10    0.44    0.43
  11   8  10    8.62    0.87
  12   8  10    2.37    0.51
  13   8  10    0.43    0.51
  14   8  10    0.48    0.56
  15   8  10   -0.92    0.65
  16   8  10   -0.55    0.73
  17   8  10    1.19    0.84
  18   8  10    0.28    0.96
  19   8  10    1.22    1.56
  19   8  10   -0.41    1.08
   9  -9 -10    2.90    1.63
   8  -9 -10    1.54    1.53
   7  -9 -10   -1.40    1.35
   6  -9 -10   -0.74    1.24
   5  -9 -10    2.18    1.13
   4  -9 -10    3.30    1.44
   3  -9 -10    0.97    1.33
   2  -9 -10    9.65    1.59
   1  -9 -10   31.84    1.89
   0  -9 -10   31.22    1.79
  -1  -9 -10    4.50    1.02
  -2  -9 -10    6.97    1.19
  -3  -9 -10    1.08    0.86
  -4  -9 -10    1.71    0.83
  -5  -9 -10    6.76    1.07
  -6  -9 -10   18.80    1.31
  -7  -9 -10    3.95    0.85
  -8  -9 -10   13.28    1.18
   8   9  10   13.34    0.93
  -9  -9 -10   11.78    1.14
   9   9  10    8.67    0.87
  10   9  10   -0.16    0.45
  11   9  10    5.72    0.90
  12   9  10    0.10    0.51
  13   9  10   -0.64    0.55
  14   9  10    0.40    0.61
  15   9  10    0.27    0.68
  16   9  10   -1.33    0.74
  17   9  10   -0.26    0.87
  18   9  10    0.54    0.99
  19   9  10    1.15    1.12
   6 -10 -10    0.73    1.37
   3 -10 -10    1.18    1.51
   2 -10 -10    3.48    1.39
   1 -10 -10   32.68    2.05
   0 -10 -10    8.15    1.55
  -1 -10 -10   -0.21    1.11
  -2 -10 -10    0.80    1.00
  -3 -10 -10    0.78    0.95
  -4 -10 -10    1.96    0.94
  -5 -10 -10    5.23    0.98
  -6 -10 -10    2.28    0.91
  -7 -10 -10   18.05    1.32
  -8 -10 -10   58.79    2.44
   8  10  10   56.69    2.21
  -9 -10 -10    7.00    1.14
   9  10  10    5.73    0.86
  10  10  10    2.79    0.52
  11  10  10   -0.09    0.52
  12  10  10    0.06    0.56
  13  10  10    0.07    0.59
  14  10  10   -0.28    0.65
  15  10  10   -0.22    0.73
  16  10  10    0.88    0.80
  17  10  10   -0.56    0.89
  18  10  10    0.69    0.99
   3 -11 -10    1.74    1.70
   2 -11 -10    2.38    1.58
   1 -11 -10    2.62    1.46
   0 -11 -10    2.04    1.37
  -1 -11 -10    0.52    1.28
  -2 -11 -10   14.42    1.58
  -3 -11 -10    0.77    1.13
  -4 -11 -10    0.32    1.04
  -5 -11 -10   21.93    1.49
  -6 -11 -10    3.79    1.00
  -7 -11 -10    7.06    1.23
  -8 -11 -10    2.79    0.99
   8  11  10    0.45    0.55
  -9 -11 -10    7.40    1.25
   9  11  10    6.47    0.98
 -10 -11 -10    2.53    1.03
  10  11  10   -0.01    0.55
  11  11  10    1.55    0.57
  12  11  10    0.97    0.60
  13  11  10   -0.08    0.65
  14  11  10    0.23    0.69
  15  11  10   -1.39    0.77
  16  11  10    0.02    0.85
  17  11  10    1.06    0.94
  18  11  10    0.41    1.07
   3 -12 -10    0.41    1.87
   2 -12 -10    0.33    1.77
   1 -12 -10   -0.31    1.65
   0 -12 -10    4.53    1.57
  -1 -12 -10    8.63    1.74
  -2 -12 -10    0.28    1.35
  -3 -12 -10    6.77    1.33
  -4 -12 -10   38.77    2.16
  -5 -12 -10    5.73    1.21
  -6 -12 -10    1.14    1.15
  -7 -12 -10    7.04    1.18
  -8 -12 -10    5.78    1.16
  -9 -12 -10    0.29    1.12
   9  12  10    0.42    0.60
 -10 -12 -10   -0.30    1.15
  10  12  10    0.02    0.60
  11  12  10    1.93    0.62
  12  12  10    1.74    0.64
  13  12  10    1.00    0.69
  14  12  10    0.27    0.74
  15  12  10   -0.18    0.80
  16  12  10   -0.53    0.90
  17  12  10   -1.17    0.99
  18  12  10   -1.71    1.11
   4 -13 -10    2.53    2.37
   3 -13 -10    1.46    2.05
   2 -13 -10    0.93    1.94
   1 -13 -10   -0.60    1.87
   0 -13 -10    3.88    1.78
  -1 -13 -10    1.62    1.66
  -2 -13 -10    2.41    1.55
  -3 -13 -10    7.55    1.49
  -4 -13 -10   18.19    1.80
  -5 -13 -10   18.19    1.75
  -6 -13 -10   -0.96    1.28
  -7 -13 -10   -0.68    1.25
  -8 -13 -10    4.12    1.25
  -9 -13 -10    0.70    1.23
   9  13  10    0.77    0.66
 -10 -13 -10   -0.79    1.24
  10  13  10    0.71    0.66
 -11 -13 -10    0.89    1.27
  11  13  10    0.00    0.68
  12  13  10    1.20    0.69
  13  13  10    1.94    0.74
  14  13  10    0.48    0.79
  15  13  10   -0.15    0.87
  16  13  10   -0.72    0.94
  17  13  10   -1.67    1.04
   3 -14 -10    1.13    2.51
   2 -14 -10    3.54    2.22
   1 -14 -10    3.58    2.04
   0 -14 -10    0.67    1.97
  -1 -14 -10    2.80    1.90
  -2 -14 -10    5.05    1.82
  -3 -14 -10    8.79    1.73
  -4 -14 -10    6.99    1.61
  -5 -14 -10    0.24    1.50
  -6 -14 -10    1.96    1.44
  -7 -14 -10    0.97    1.39
  -8 -14 -10    1.46    1.36
  -9 -14 -10    1.39    1.35
 -10 -14 -10    1.45    1.35
  10  14  10   -0.26    0.72
 -11 -14 -10    2.88    1.38
  12  14  10    1.64    0.76
  13  14  10    3.09    0.79
  14  14  10    0.25    0.84
  15  14  10   -0.48    0.93
  16  14  10   -0.45    1.02
  17  14  10   -1.41    1.11
   3 -15 -10   -0.25    2.98
   2 -15 -10    4.68    2.68
   1 -15 -10    4.92    2.38
   0 -15 -10   15.85    2.54
  -1 -15 -10   12.32    2.50
  -2 -15 -10    0.45    2.01
  -3 -15 -10   -0.60    1.93
  -4 -15 -10   -0.81    1.81
  -5 -15 -10   -0.71    1.71
  -6 -15 -10    2.25    1.64
  -7 -15 -10    1.54    1.58
  -8 -15 -10    1.80    1.54
  -9 -15 -10    9.04    1.80
 -10 -15 -10    1.39    1.52
 -11 -15 -10   -0.28    1.53
  11  15  10    1.59    0.82
  12  15  10    1.12    0.82
  13  15  10    0.37    0.87
  14  15  10    1.47    0.91
  15  15  10   -0.20    0.97
  16  15  10   -1.77    1.08
   1 -16 -10    9.27    2.93
   0 -16 -10   12.97    2.74
  -1 -16 -10    8.53    2.44
  -2 -16 -10    4.51    2.21
  -3 -16 -10    1.58    2.11
  -4 -16 -10    1.24    2.03
  -5 -16 -10    1.23    1.94
  -6 -16 -10   -0.34    1.86
  -7 -16 -10   -1.58    1.80
  -8 -16 -10    8.02    1.81
  -9 -16 -10    2.77    1.71
 -10 -16 -10    1.49    1.69
 -11 -16 -10    0.07    1.70
  11  16  10    1.64    0.90
 -12 -16 -10    0.46    1.71
  12  16  10    0.55    0.92
  13  16  10    0.39    0.95
  14  16  10    0.17    1.01
  15  16  10    2.09    1.06
  -1 -17 -10    6.19    2.92
  -2 -17 -10    2.07    2.66
  -3 -17 -10    2.39    2.47
  -4 -17 -10    1.75    2.29
  -5 -17 -10    3.09    2.13
  -6 -17 -10    3.79    2.07
  -7 -17 -10    2.81    1.96
  -8 -17 -10    2.68    1.89
  -9 -17 -10    2.69    1.84
 -10 -17 -10    6.57    1.81
 -11 -17 -10    2.98    1.79
  12  17  10    0.19    1.01
  13  17  10    2.42    1.07
  14  17  10   -0.71    1.10
  -4 -18 -10    2.18    2.74
  -5 -18 -10    5.07    2.60
  -6 -18 -10    3.73    2.41
  -7 -18 -10    1.85    2.34
  -8 -18 -10    9.09    2.31
  -9 -18 -10    3.51    2.18
 -10 -18 -10    2.94    2.15
 -11 -18 -10    4.12    2.17
   7  17 -11   -1.44    1.15
  -7 -17  11    3.24    2.90
  -6 -17  11   -3.57    2.69
   5  17 -11   -1.95    1.12
   4  17 -11   -1.54    1.12
  -4 -17  11   -3.24    2.71
   3  17 -11   -0.36    1.17
  -3 -17  11   -0.36    2.82
   2  17 -11    2.17    1.20
  -2 -17  11    1.45    2.92
  -1 -17  11    0.79    2.98
   0 -17  11   -1.95    3.13
   1 -17  11   -3.28    3.39
   9  16 -11    0.25    1.13
   8  16 -11    0.09    1.06
   7  16 -11   -0.28    1.01
  -7 -16  11    1.60    2.70
   6  16 -11   -0.90    0.99
  -6 -16  11   -1.85    2.51
   4  16 -11   -1.50    0.99
  -4 -16  11   -2.06    2.42
  -3 -16  11    3.24    2.51
   2  16 -11    0.95    1.07
  -2 -16  11   -0.43    2.57
   1  16 -11    1.26    1.11
  -1 -16  11    1.94    2.65
   0 -16  11   -0.07    2.71
   1 -16  11   -1.13    2.85
   2 -16  11   -2.22    2.95
   3 -16  11   -0.34    3.06
   4 -16  11   -3.26    3.17
  10  15 -11    1.10    1.11
   9  15 -11   -1.07    1.02
   8  15 -11    2.01    0.95
   7  15 -11   -0.27    0.93
   6  15 -11   -0.10    0.89
   5  15 -11    0.08    0.87
  -5 -15  11    1.73    2.24
  -4 -15  11   -3.68    2.18
   3  15 -11   -0.78    0.88
  -3 -15  11   -1.98    2.22
   2  15 -11   -0.18    0.91
  -2 -15  11    1.64    2.28
   1  15 -11    0.26    0.97
  -1 -15  11    0.89    2.31
   0 -15  11    1.21    2.41
   1 -15  11   -0.89    2.49
   2 -15  11    2.36    2.60
   3 -15  11   -0.68    2.67
   4 -15  11   -4.48    2.81
   5 -15  11   -4.26    2.90
   6 -15  11   -2.20    3.06
  11  14 -11   -0.67    1.12
  10  14 -11    0.71    1.03
   9  14 -11   -0.95    0.94
   8  14 -11    0.27    0.89
   7  14 -11    2.19    0.84
   6  14 -11    0.18    0.79
  -6 -14  11   -2.37    2.17
   5  14 -11    0.71    0.78
  -5 -14  11    1.80    2.04
   4  14 -11   -0.54    0.77
  -4 -14  11   -1.59    2.00
  -3 -14  11    2.73    1.99
   2  14 -11   -0.98    0.81
  -2 -14  11   -2.03    2.01
   1  14 -11    1.80    0.86
  -1 -14  11    0.42    2.04
   0  14 -11    0.68    0.87
   0 -14  11    0.32    2.09
   1 -14  11   -0.63    2.16
   2 -14  11   -1.48    2.24
   3 -14  11   -0.09    2.35
   4 -14  11   -2.27    2.47
   5 -14  11   -2.96    2.56
   6 -14  11   -1.00    2.73
   7 -14  11    1.95    2.92
  12  13 -11   -0.70    1.09
  11  13 -11   -0.88    1.03
  10  13 -11    0.59    0.93
   9  13 -11   -0.15    0.87
   8  13 -11   -0.94    0.82
   7  13 -11    0.49    0.75
   6  13 -11   -0.75    0.72
   5  13 -11    0.63    0.67
  -5 -13  11   -0.71    1.94
   4  13 -11    0.29    0.68
  -4 -13  11    0.42    1.82
  -3 -13  11    2.45    1.79
   2  13 -11   -0.69    0.69
  -2 -13  11   -0.41    1.77
   1  13 -11   -0.84    0.72
  -1 -13  11    0.61    1.78
   0  13 -11    4.00    0.78
   1 -13  11   -1.08    1.88
   2 -13  11    3.31    1.93
   3 -13  11    1.31    2.04
   4 -13  11   -0.71    2.14
   6 -13  11   -0.87    2.42
   7 -13  11    1.16    2.66
   8 -13  11   -4.40    2.76
   9 -13  11   -0.40    2.88
  13  12 -11    0.41    1.19
  12  12 -11    0.07    1.00
  11  12 -11    0.55    0.94
  10  12 -11    0.58    0.87
   9  12 -11    0.46    0.81
   8  12 -11    0.15    0.73
   7  12 -11    1.11    0.69
   6  12 -11    0.32    0.66
   5  12 -11    0.55    0.62
  -5 -12  11    0.52    1.73
   4  12 -11    1.98    0.61
  -4 -12  11    3.96    1.77
  -3 -12  11    3.11    1.63
   2  12 -11   -0.84    0.59
  -2 -12  11   -1.46    1.62
   1  12 -11   -0.11    0.60
  -1 -12  11    0.86    1.59
   0  12 -11    6.02    1.11
   0 -12  11    6.39    1.64
  -1  12 -11   10.52    1.20
   1 -12  11    9.54    1.71
   2 -12  11   -1.17    1.68
   3 -12  11   -2.59    1.74
   4 -12  11    0.84    1.88
   5 -12  11   -1.38    2.00
   6 -12  11   -0.05    2.15
   7 -12  11   -0.88    2.35
   8 -12  11   -1.64    2.48
   9 -12  11    1.55    2.55
  10 -12  11    4.25    2.78
  13  11 -11    0.32    1.09
  12  11 -11    1.08    1.00
  11  11 -11    1.48    0.92
  10  11 -11    2.23    0.85
   9  11 -11   -0.42    0.77
   8  11 -11   -0.49    0.68
   7  11 -11    0.06    0.65
   6  11 -11   -0.41    0.59
   5  11 -11    0.57    0.57
  -5 -11  11    1.93    1.55
   4  11 -11   -0.03    0.53
  -4 -11  11    0.25    1.55
   3  11 -11   -0.02    0.52
  -3 -11  11   -1.15    1.58
   2  11 -11    7.93    0.94
  -2 -11  11   10.29    1.61
  -1 -11  11    1.57    1.46
   0  11 -11    2.55    0.67
   0 -11  11    2.55    1.48
  -1  11 -11   -0.61    0.64
   1 -11  11   -2.30    1.44
   2 -11  11    1.84    1.50
   3 -11  11   -0.60    1.57
   4 -11  11   -0.30    1.66
   5 -11  11   -0.09    1.77
   6 -11  11    1.27    2.03
   7 -11  11    3.11    2.10
   8 -11  11   -1.95    2.14
   9 -11  11    2.36    2.23
  10 -11  11    6.69    2.47
  14  10 -11    0.86    1.06
  13  10 -11   -0.94    0.97
  12  10 -11    1.09    0.91
  11  10 -11    2.15    0.84
  10  10 -11    0.00    0.78
   9  10 -11   -0.30    0.70
   8  10 -11    0.89    0.65
   7  10 -11    0.56    0.60
   6  10 -11   -0.02    0.55
   5  10 -11    6.04    0.94
   4  10 -11    0.72    0.48
  -4 -10  11    1.04    1.36
   3  10 -11   14.00    0.96
  -3 -10  11   16.14    1.79
   2  10 -11    0.39    0.46
  -2 -10  11   -2.03    1.35
   1  10 -11    0.34    0.53
  -1 -10  11   -0.30    1.40
   0  10 -11    7.06    0.90
   0 -10  11    5.41    1.40
  -1  10 -11    9.73    0.98
   1 -10  11    9.75    1.71
  -2  10 -11    0.50    0.56
   2 -10  11    0.67    1.38
   3 -10  11    2.29    1.45
   4 -10  11    0.86    1.53
   5 -10  11    0.41    1.64
   6 -10  11    4.46    1.72
   7 -10  11    1.29    1.82
   8 -10  11    1.36    1.92
   9 -10  11    1.99    2.06
  10 -10  11    7.10    2.26
  14   9 -11    0.60    1.00
  13   9 -11    1.19    0.92
  12   9 -11    1.05    0.84
  11   9 -11    0.44    0.78
  10   9 -11    0.53    0.71
   9   9 -11    0.18    0.64
   8   9 -11    0.53    0.60
   7   9 -11    0.28    0.57
   6   9 -11   11.59    1.03
   5   9 -11    0.99    0.47
  -4  -9  11    3.05    1.29
  -3  -9  11    3.14    1.25
   2   9 -11   11.78    0.92
  -2  -9  11    7.52    1.49
   1   9 -11   20.60    1.09
  -1  -9  11   19.04    1.71
   0   9 -11    6.00    0.81
  -1   9 -11   10.76    0.91
   1  -9  11    8.30    1.53
   2  -9  11    0.12    1.27
   3  -9  11    1.25    1.33
   4  -9  11   -0.60    1.31
   5  -9  11    1.52    1.40
   6  -9  11    2.53    1.49
   7  -9  11    4.00    1.61
   8  -9  11    4.17    1.74
   9  -9  11    4.36    1.91
  14   8 -11   -0.33    0.95
  13   8 -11    0.07    0.87
  12   8 -11   -0.10    0.80
  11   8 -11   -0.63    0.73
  10   8 -11   -0.10    0.68
   9   8 -11    1.00    0.62
   8   8 -11    0.26    0.57
   7   8 -11    1.89    0.54
   6   8 -11    2.12    0.48
   5   8 -11    7.13    0.80
   4   8 -11    0.58    0.41
  -4  -8  11   -0.81    1.14
   3   8 -11    5.18    0.76
  -3  -8  11    7.78    1.43
  -2  -8  11    2.31    1.09
   1   8 -11    0.35    0.38
  -1  -8  11    1.07    1.08
   0   8 -11    9.39    0.79
   0  -8  11   12.86    1.37
  -1   8 -11   10.42    0.80
   1  -8  11   10.94    1.40
   2  -8  11    4.60    1.11
   3  -8  11   -0.16    1.14
   4  -8  11    6.59    1.23
   5  -8  11   -0.07    1.24
   6  -8  11    8.15    1.58
   7  -8  11   13.27    1.75
   8  -8  11    2.90    1.58
   9  -8  11    4.02    1.73
  13  -8  11    1.79    1.29
  14  -8  11    1.30    1.41
   6   7 -11    8.80    0.92
   5   7 -11    6.58    0.82
   4   7 -11   15.94    0.95
   3   7 -11    6.43    0.71
  -3  -7  11    5.97    1.09
   2   7 -11    0.81    0.34
  -2  -7  11    1.22    0.99
   1   7 -11    5.73    0.62
  -1  -7  11    6.90    1.28
   0   7 -11    0.87    0.34
   0  -7  11    2.28    0.98
  -1   7 -11    5.13    0.61
   1  -7  11    6.53    1.22
   2  -7  11    8.68    1.29
   3  -7  11   55.18    2.48
   4  -7  11    2.81    1.05
   5  -7  11    2.58    1.12
   6  -7  11    3.92    1.18
   7  -7  11    9.82    1.63
   8  -7  11    3.84    1.43
   9  -7  11    3.38    1.54
  10  -7  11   -0.42    0.86
  12  -7  11   -1.05    1.02
  14  -7  11    2.21    1.29
   3   6 -11    4.73    0.69
  -3  -6  11    4.96    0.98
   2   6 -11    9.95    0.74
  -2  -6  11    9.01    1.23
  -1  -6  11    1.41    0.89
   0   6 -11   40.46    1.43
   0  -6  11   39.23    1.95
   1  -6  11    0.55    0.84
   2  -6  11   33.18    1.82
   3  -6  11    3.46    0.93
   4  -6  11   24.97    1.61
   5  -6  11    0.80    1.03
   6  -6  11   15.41    1.50
   7  -6  11   11.87    1.49
   8  -6  11    2.76    1.27
   9  -6  11    5.99    1.43
  10  -6  11    0.21    0.77
  11  -6  11    1.95    0.86
  12  -6  11    2.52    0.93
  13  -6  11    0.17    1.05
  14  -6  11    1.34    1.18
  15  -6  11    1.81    1.37
  13   5 -11    1.26    1.32
  11   5 -11    4.63    1.12
  -2  -5  11    2.39    0.79
   1   5 -11   66.29    2.14
  -1  -5  11   63.30    2.69
   0   5 -11    0.54    0.25
   0  -5  11    0.69    0.78
   1  -5  11    0.72    0.82
   2  -5  11    9.13    1.13
   3  -5  11   35.27    1.81
   4  -5  11    0.87    0.86
   5  -5  11    0.24    0.90
   6  -5  11   36.09    1.89
   7  -5  11    7.39    1.37
   8  -5  11    8.78    1.45
   8  -5  11    8.97    0.85
   9  -5  11    6.70    0.93
  10  -5  11    0.26    0.70
  11  -5  11   11.50    1.16
  12  -5  11    0.56    0.86
  13  -5  11    1.05    0.96
  14  -5  11    1.23    1.08
  15  -5  11    1.26    1.23
  16  -5  11    2.54    1.40
  14   4 -11   -1.78    1.40
  13   4 -11    3.23    1.36
  12   4 -11   -1.12    1.28
  11   4 -11   -0.21    1.06
  -2  -4  11    6.97    0.97
  -1  -4  11    5.16    0.81
   0  -4  11    5.83    0.96
   1  -4  11    4.96    0.93
   2  -4  11   40.80    1.93
   3  -4  11    2.94    0.75
   4  -4  11    1.06    0.76
   5  -4  11   11.79    1.14
   5  -4  11   10.83    0.86
   6  -4  11   19.29    1.36
   6  -4  11   19.39    1.03
   7  -4  11    1.18    0.95
   7  -4  11   -0.61    0.46
   8  -4  11    3.82    0.57
   8  -4  11    4.97    1.07
   9  -4  11    8.17    0.88
   9  -4  11    9.58    1.38
  10  -4  11    0.36    0.64
  11  -4  11   -0.32    0.72
  12  -4  11    3.80    0.82
  13  -4  11    0.59    0.90
  14  -4  11    1.96    1.02
  15  -4  11    2.02    1.17
  16  -4  11    9.12    1.34
  14   3 -11   -1.38    1.40
  13   3 -11    3.31    1.40
  12   3 -11    0.41    1.27
  11   3 -11    2.64    1.10
  10   3 -11    2.49    1.02
   9   3 -11    3.85    0.88
   8   3 -11    4.75    0.86
   7   3 -11    0.63    0.60
   6   3 -11    2.81    0.57
  -2  -3  11   27.56    1.46
  -1  -3  11   47.88    2.07
   0  -3  11    0.21    0.61
   1  -3  11    0.60    0.59
   2  -3  11    5.08    0.78
   3  -3  11   10.81    0.74
   3  -3  11   11.90    1.08
   4  -3  11    1.66    0.41
   4  -3  11    2.06    0.68
   5  -3  11    4.21    0.65
   5  -3  11    2.91    0.71
   6  -3  11    0.67    0.73
   6  -3  11    0.15    0.38
   7  -3  11   21.85    1.41
   7  -3  11   21.27    1.08
   8  -3  11   35.05    1.83
   8  -3  11   35.60    1.46
   9  -3  11    0.68    0.53
  10  -3  11   -0.62    0.60
  11  -3  11    0.89    0.67
  12  -3  11    0.03    0.73
  13  -3  11    2.06    0.84
  14  -3  11    1.18    0.95
  15  -3  11    1.32    1.07
  16  -3  11    0.53    1.22
  17  -3  11    0.85    1.39
  14   2 -11    5.18    1.47
  13   2 -11   -0.28    1.42
  12   2 -11    0.25    1.32
  11   2 -11   -1.62    1.10
  10   2 -11    8.05    1.51
   9   2 -11    2.80    0.90
   8   2 -11   -0.53    0.78
   7   2 -11    1.03    0.61
   6   2 -11    4.25    0.81
   5   2 -11   13.24    0.97
   2   2 -11    1.57    0.71
   0  -2  11    4.92    0.78
   1  -2  11    4.22    0.75
   2  -2  11   12.63    0.98
   3  -2  11    7.00    0.59
   3  -2  11    7.84    0.87
   4  -2  11   19.96    0.97
   4  -2  11   18.75    1.21
   5  -2  11   41.87    1.92
   5  -2  11   43.00    1.63
   6  -2  11    3.16    0.59
   6  -2  11    3.52    0.75
   7  -2  11    7.30    0.67
   7  -2  11    7.53    1.02
   8  -2  11    4.90    0.66
   8  -2  11    4.00    0.85
   9  -2  11    5.02    1.02
   9  -2  11    5.09    0.71
  11  -2  11    0.29    0.62
  12  -2  11    0.65    0.69
  13  -2  11    3.10    0.82
  14  -2  11    0.13    0.90
  15  -2  11    1.10    1.03
  16  -2  11    5.61    1.19
  17  -2  11    1.62    1.32
  14   1 -11   -1.74    1.52
  13   1 -11   -0.16    1.47
  12   1 -11    0.17    1.35
  11   1 -11   -1.02    1.13
  10   1 -11    1.52    1.03
   9   1 -11    4.41    0.92
   8   1 -11   12.07    1.32
   7   1 -11   -0.08    0.62
   6   1 -11    5.26    0.84
   5   1 -11   25.52    1.29
   2   1 -11    1.47    0.58
   1   1 -11    1.87    0.49
   1   1 -11    2.24    0.65
   0   1 -11    4.97    0.58
   0   1 -11    5.25    0.83
   3  -1  11   76.90    2.55
   3  -1  11   78.61    2.94
   4  -1  11   16.42    0.88
   4  -1  11   17.88    1.10
   5  -1  11    5.70    0.86
   5  -1  11    7.09    0.63
   6  -1  11   18.99    0.95
   6  -1  11   15.57    1.20
   7  -1  11   16.77    1.24
   7  -1  11   18.83    0.95
   8  -1  11   13.72    0.86
   8  -1  11   14.57    1.24
   9  -1  11    4.35    0.88
   9  -1  11    3.65    0.67
  10  -1  11    6.27    0.81
  11  -1  11    0.18    0.59
  12  -1  11    3.59    0.72
  13  -1  11    4.86    0.81
  14  -1  11    0.38    0.85
  15  -1  11    5.09    1.00
  16  -1  11    2.31    1.12
  17  -1  11    2.44    1.28
  18  -1  11    2.94    1.44
  14   0 -11    0.16    1.60
  13   0 -11    0.43    1.49
  12   0 -11    0.74    1.41
  11   0 -11    5.18    1.20
  10   0 -11    4.61    1.09
   9   0 -11   13.96    1.44
   8   0 -11    9.63    1.04
   7   0 -11    8.09    0.97
   6   0 -11    4.34    0.63
   5   0 -11    4.94    0.62
   1   0 -11    2.88    0.67
   0   0 -11  203.59    4.70
   0   0 -11  199.54    6.68
  -1   0 -11   71.67    2.82
  -1   0 -11   73.88    1.99
  -2   0 -11    6.24    0.59
  -2   0 -11    6.09    0.83
  -3   0 -11    0.90    0.62
  -3   0 -11    0.79    0.47
  -4   0 -11   24.32    1.42
  -4   0 -11   26.38    1.00
   4   0  11   23.53    1.08
  -5   0 -11   40.43    1.93
  -5   0 -11   41.28    1.34
   5   0  11   36.17    1.49
   6   0  11   31.54    1.32
   7   0  11    2.73    0.42
   8   0  11    7.00    0.68
   9   0  11   12.83    0.84
  10   0  11    0.35    0.51
  11   0  11    0.64    0.59
  12   0  11    7.13    0.96
  13   0  11   -0.94    0.73
  14   0  11    1.03    0.84
  15   0  11    2.70    0.94
  16   0  11    1.08    1.07
  17   0  11    2.03    1.22
  18   0  11    2.07    1.39
  13  -1 -11   -1.24    1.49
  12  -1 -11    2.70    1.48
  11  -1 -11    1.60    1.26
  10  -1 -11   -0.18    1.07
   9  -1 -11   17.34    1.56
   8  -1 -11   16.78    1.42
   7  -1 -11    1.85    0.68
   6  -1 -11    1.29    0.60
   5  -1 -11    1.34    0.54
   2  -1 -11    2.90    0.71
   1  -1 -11   28.34    1.43
   0  -1 -11   12.33    1.04
  -1  -1 -11    4.16    0.70
  -2  -1 -11   11.87    0.98
  -3  -1 -11   40.09    1.85
  -3  -1 -11   40.43    1.30
  -4  -1 -11   23.86    0.92
   4   1  11   24.91    1.09
  -5  -1 -11    0.12    0.49
  -5  -1 -11    0.46    0.69
   5   1  11    1.20    0.38
  -6  -1 -11   28.39    1.05
  -6  -1 -11   26.90    1.54
   6   1  11   26.91    1.21
  -7  -1 -11    1.01    0.76
  -7  -1 -11    0.88    0.54
   7   1  11    0.54    0.35
  -8  -1 -11   13.51    1.29
  -8  -1 -11   13.60    0.79
   8   1  11   11.62    0.78
   9   1  11    1.08    0.43
  10   1  11    1.83    0.47
  11   1  11    0.88    0.55
  12   1  11    8.44    0.98
  13   1  11    6.51    0.84
  14   1  11    2.32    0.82
  15   1  11    1.03    0.92
  16   1  11    0.24    1.05
  17   1  11    0.54    1.17
  18   1  11    3.57    1.34
  13  -2 -11   -1.03    1.58
  12  -2 -11    0.00    1.53
  11  -2 -11    1.95    1.34
  10  -2 -11    2.04    1.17
   9  -2 -11    7.81    1.53
   8  -2 -11   -0.47    0.85
   7  -2 -11    1.39    0.76
   6  -2 -11    4.75    0.92
   5  -2 -11    2.44    0.59
   4  -2 -11    1.46    0.54
   2  -2 -11    3.63    0.70
   1  -2 -11   11.50    1.01
   0  -2 -11   79.58    3.01
  -1  -2 -11  143.14    4.91
  -2  -2 -11    0.91    0.57
  -3  -2 -11    6.46    0.84
  -4  -2 -11    1.83    0.63
  -5  -2 -11    8.38    0.90
   5   2  11    8.61    0.64
  -6  -2 -11    2.33    0.65
   6   2  11    1.51    0.40
  -7  -2 -11    4.72    0.92
   7   2  11    3.37    0.47
  -8  -2 -11    2.07    0.81
   8   2  11    1.15    0.37
   9   2  11   31.83    1.35
  10   2  11   15.12    0.92
  11   2  11    4.37    0.76
  12   2  11   -0.11    0.61
  13   2  11   -0.10    0.72
  14   2  11   -0.97    0.81
  15   2  11    0.36    0.92
  16   2  11    1.99    1.03
  17   2  11    3.08    1.19
  18   2  11    0.69    1.33
  19   2  11    0.90    1.51
  12  -3 -11    6.68    1.63
  11  -3 -11   -1.88    1.48
  10  -3 -11   -0.46    1.23
   9  -3 -11    1.22    1.06
   8  -3 -11    4.53    0.93
   7  -3 -11    3.60    0.88
   6  -3 -11    0.41    0.68
   5  -3 -11    1.52    0.61
   4  -3 -11    5.47    0.82
   2  -3 -11    5.03    0.84
   1  -3 -11   31.32    1.59
   0  -3 -11    4.38    0.86
  -1  -3 -11   14.15    1.04
  -2  -3 -11    1.33    0.56
  -3  -3 -11    2.96    0.61
  -4  -3 -11   46.19    2.01
  -5  -3 -11   15.82    1.06
   5   3  11   14.14    0.83
  -6  -3 -11   28.67    1.51
   6   3  11   29.48    1.27
  -7  -3 -11    2.68    0.70
   7   3  11    1.15    0.37
  -8  -3 -11   24.48    1.46
   8   3  11   25.93    1.14
  -9  -3 -11   10.91    1.23
   9   3  11   10.65    0.81
  10   3  11    3.76    0.54
  11   3  11    4.63    0.77
  12   3  11    2.06    0.60
  13   3  11    1.65    0.46
  13   3  11    0.62    0.70
  14   3  11   -0.19    0.52
  14   3  11   -0.37    0.82
  15   3  11    0.98    0.92
  15   3  11    1.66    0.65
  16   3  11   -0.66    1.06
  17   3  11    0.18    1.17
  18   3  11    1.17    1.31
  19   3  11    1.04    1.47
  12  -4 -11   -2.18    1.61
  11  -4 -11    5.23    1.58
  10  -4 -11    2.07    1.33
   9  -4 -11   -1.62    1.14
   8  -4 -11    1.37    1.01
   7  -4 -11   -0.30    0.88
   6  -4 -11    1.85    0.72
   5  -4 -11    7.94    0.99
   4  -4 -11   21.84    1.20
   2  -4 -11    1.33    0.81
   1  -4 -11    2.50    0.79
   0  -4 -11    0.42    0.67
  -1  -4 -11    1.35    0.71
  -2  -4 -11    5.11    0.87
  -3  -4 -11    2.41    0.70
  -4  -4 -11    4.33    0.85
  -5  -4 -11  102.82    3.74
  -6  -4 -11    1.18    0.68
   6   4  11    1.20    0.40
  -7  -4 -11    1.38    0.69
   7   4  11    0.45    0.38
  -8  -4 -11    0.72    0.74
   8   4  11   -0.50    0.34
   8   4  11   -0.03    0.41
   9   4  11   36.06    1.45
   9   4  11   40.95    1.53
  10   4  11    0.77    0.39
  10   4  11    0.15    0.47
  11   4  11    4.01    0.60
  11   4  11    5.58    0.72
  12   4  11    0.69    0.59
  12   4  11    0.85    0.41
  13   4  11    0.33    0.47
  13   4  11    0.45    0.68
  14   4  11    6.71    1.17
  14   4  11    4.21    0.65
  15   4  11   -0.22    0.93
  15   4  11    0.24    0.58
  16   4  11    0.63    0.68
  16   4  11   -1.61    1.05
  17   4  11    3.49    1.20
  18   4  11   -0.18    1.33
  11  -5 -11    0.75    1.64
  10  -5 -11   -1.68    1.47
   9  -5 -11    0.39    1.28
   8  -5 -11    1.01    1.10
   7  -5 -11    3.06    0.96
   6  -5 -11    0.56    0.86
   5  -5 -11    6.61    1.09
   4  -5 -11   46.48    1.91
   3  -5 -11   16.55    1.24
   3  -5 -11   16.33    1.08
   2  -5 -11    0.97    0.76
   1  -5 -11    9.53    1.08
   0  -5 -11    1.26    0.75
  -1  -5 -11    8.20    0.95
  -2  -5 -11   14.96    1.08
  -3  -5 -11    2.01    0.68
  -4  -5 -11   52.20    2.22
  -5  -5 -11   14.72    1.16
  -6  -5 -11   27.70    1.54
   6   5  11   31.42    1.29
  -7  -5 -11    1.51    0.74
   7   5  11    1.12    0.42
  -8  -5 -11   28.75    1.60
   8   5  11   33.25    1.29
   8   5  11   31.86    1.36
  -9  -5 -11    0.18    0.82
   9   5  11    0.71    0.44
  10   5  11    0.98    0.47
  10   5  11    2.05    0.45
  11   5  11    9.89    0.91
  11   5  11   10.85    0.89
  12   5  11   -0.11    0.60
  12   5  11    1.42    0.46
  13   5  11    8.34    0.96
  13   5  11    8.92    1.05
  14   5  11    2.31    0.82
  15   5  11    0.05    0.60
  15   5  11    0.28    0.92
  16   5  11   -0.28    0.67
  16   5  11   -0.66    1.08
  17   5  11   -1.76    1.22
  18   5  11   -0.68    1.37
  19   5  11   -0.27    1.53
  11  -6 -11   -1.82    1.72
  10  -6 -11    0.22    1.59
   9  -6 -11    4.03    1.38
   8  -6 -11    2.70    1.23
   7  -6 -11   14.97    1.67
   6  -6 -11    4.73    0.97
   5  -6 -11    1.58    0.80
   4  -6 -11   17.82    1.25
   3  -6 -11    1.50    0.99
   3  -6 -11    0.74    0.64
   2  -6 -11    1.77    0.92
   1  -6 -11   -0.15    0.81
   0  -6 -11   -0.01    0.72
  -1  -6 -11   13.52    1.18
  -2  -6 -11    0.41    0.74
  -3  -6 -11    3.52    0.74
  -4  -6 -11    3.80    0.71
  -5  -6 -11   63.91    2.55
  -6  -6 -11    7.27    0.94
  -7  -6 -11   -0.53    0.72
   7   6  11    0.16    0.47
  -8  -6 -11   -0.02    0.75
   8   6  11    0.84    0.45
   8   6  11    0.21    0.41
   9   6  11    0.70    0.43
   9   6  11    1.38    0.44
  10   6  11    0.69    0.51
  10   6  11    0.69    0.44
  11   6  11    4.56    0.84
  12   6  11    1.69    0.51
  12   6  11    2.05    0.62
  13   6  11    2.72    0.72
  13   6  11    2.28    0.50
  14   6  11    7.23    1.01
  15   6  11    0.69    0.61
  15   6  11    3.06    0.95
  16   6  11    1.05    1.09
  16   6  11    0.06    0.70
  17   6  11    1.82    1.23
  17   6  11    0.46    0.81
  18   6  11   -1.43    1.38
  10  -7 -11   -0.06    1.71
   9  -7 -11   -2.44    1.51
   8  -7 -11    4.67    1.41
   7  -7 -11   11.24    1.76
   6  -7 -11    2.74    1.06
   5  -7 -11   -0.12    0.96
   4  -7 -11    2.25    0.81
   3  -7 -11    2.69    0.74
   2  -7 -11    0.67    0.68
   2  -7 -11    1.10    1.01
   1  -7 -11    3.99    0.98
   0  -7 -11   10.72    1.19
  -1  -7 -11   17.73    1.28
  -2  -7 -11   45.63    2.05
  -3  -7 -11    9.08    1.06
  -4  -7 -11   28.98    1.56
  -5  -7 -11    1.17    0.77
  -6  -7 -11    9.28    1.01
  -7  -7 -11    0.33    0.78
  -8  -7 -11   13.95    1.16
   8   7  11   15.07    1.02
  -9  -7 -11    0.88    0.84
   9   7  11    0.53    0.46
  10   7  11    0.05    0.47
  11   7  11    4.93    0.84
  12   7  11   -0.02    0.47
  13   7  11    0.24    0.72
  13   7  11   -0.21    0.51
  14   7  11    0.79    0.57
  15   7  11   -0.45    0.62
  16   7  11   -1.37    0.72
  16   7  11    1.00    1.09
  17   7  11    1.48    1.23
  17   7  11   -0.39    0.82
  18   7  11    0.28    0.94
  19   7  11    0.84    1.58
  10  -8 -11    0.33    1.74
   9  -8 -11    5.77    1.67
   8  -8 -11    0.66    1.47
   7  -8 -11    8.15    1.36
   6  -8 -11    2.85    1.22
   5  -8 -11   -1.11    1.10
   4  -8 -11    0.30    0.94
   3  -8 -11    5.97    1.28
   2  -8 -11    1.51    0.76
   2  -8 -11    2.63    1.17
   1  -8 -11   -0.52    1.10
   0  -8 -11   14.18    1.39
  -1  -8 -11   53.31    2.38
  -2  -8 -11    9.32    1.18
  -3  -8 -11    3.69    0.84
  -4  -8 -11    3.54    0.88
  -5  -8 -11    5.44    0.87
  -6  -8 -11    2.34    0.81
  -7  -8 -11    6.88    1.06
   8   8  11    3.52    0.47
  -9  -8 -11   12.63    1.24
   9   8  11   13.65    0.92
 -10  -8 -11   31.22    1.69
  10   8  11   31.00    1.42
  11   8  11    2.75    0.49
  12   8  11   -0.36    0.51
  13   8  11    1.92    0.56
  14   8  11   -0.02    0.60
  15   8  11    0.34    0.66
  16   8  11   -0.05    0.73
  16   8  11   -0.15    1.14
  17   8  11   -0.32    0.82
  18   8  11   -1.46    0.97
   9  -9 -11   -2.44    1.77
   8  -9 -11    4.68    1.67
   7  -9 -11   -1.68    1.51
   6  -9 -11    3.90    1.35
   5  -9 -11    1.24    1.23
   3  -9 -11    5.56    1.47
   2  -9 -11   10.75    1.70
   1  -9 -11    3.07    1.19
   0  -9 -11    4.41    1.15
  -1  -9 -11   31.82    1.87
  -2  -9 -11   13.64    1.35
  -3  -9 -11    3.62    0.94
  -4  -9 -11    0.65    0.91
  -5  -9 -11    1.17    0.90
  -6  -9 -11    2.56    0.91
  -7  -9 -11   20.59    1.37
  -8  -9 -11    5.45    1.08
  -9  -9 -11   11.13    1.17
   9   9  11    7.92    0.88
 -10  -9 -11   10.76    1.20
  10   9  11    7.52    0.92
  11   9  11   10.22    0.95
  12   9  11   -0.37    0.54
  13   9  11   -0.07    0.58
  14   9  11   -0.35    0.63
  15   9  11   -0.55    0.69
  16   9  11   -0.79    0.77
  17   9  11   -1.15    0.87
  18   9  11    0.85    0.98
  19   9  11   -1.23    1.11
   6 -10 -11    1.36    1.53
   5 -10 -11    1.53    1.39
   2 -10 -11   22.75    2.00
   1 -10 -11   10.09    1.76
   0 -10 -11    1.65    1.28
  -1 -10 -11    3.11    1.17
  -2 -10 -11    1.51    1.11
  -3 -10 -11    3.64    1.09
  -4 -10 -11   -0.70    0.99
  -5 -10 -11    2.56    0.97
  -6 -10 -11   10.74    1.26
  -7 -10 -11    3.24    0.99
  -8 -10 -11    9.19    1.25
  -9 -10 -11    5.88    1.23
 -10 -10 -11   18.65    1.44
  10  10  11   17.61    1.15
  11  10  11   -0.17    0.55
  12  10  11   -0.46    0.57
  13  10  11    1.13    0.63
  14  10  11    0.46    0.67
  15  10  11    0.46    0.75
  16  10  11   -1.39    0.82
  17  10  11   -1.65    0.93
  18  10  11   -0.49    1.03
   3 -11 -11   31.33    2.44
   2 -11 -11    6.42    1.67
   1 -11 -11   -0.62    1.53
   0 -11 -11   -0.16    1.45
  -1 -11 -11    3.66    1.40
  -2 -11 -11   -0.55    1.27
  -3 -11 -11    3.27    1.19
  -4 -11 -11    5.50    1.15
  -5 -11 -11    9.67    1.37
  -6 -11 -11   11.34    1.39
  -7 -11 -11   36.88    2.00
  -8 -11 -11   -0.52    1.07
  -9 -11 -11    1.34    1.09
   9  11  11    0.47    0.57
 -10 -11 -11    1.04    1.10
  10  11  11    0.86    0.57
 -11 -11 -11    1.18    1.12
  11  11  11    0.08    0.60
  12  11  11    1.11    0.62
  13  11  11    0.46    0.65
  14  11  11    0.02    0.73
  15  11  11    0.50    0.79
  16  11  11   -0.25    0.88
  17  11  11   -1.83    0.98
  18  11  11   -1.73    1.09
   3 -12 -11    0.59    2.00
   2 -12 -11   14.38    2.32
   1 -12 -11    2.73    1.76
   0 -12 -11    0.58    1.64
  -1 -12 -11   -0.07    1.54
  -2 -12 -11    0.34    1.44
  -3 -12 -11    1.09    1.39
  -4 -12 -11    2.49    1.31
  -5 -12 -11    8.38    1.32
  -6 -12 -11   15.44    1.58
  -7 -12 -11    4.44    1.17
  -8 -12 -11    4.07    1.17
  -9 -12 -11    1.61    1.16
 -10 -12 -11    0.61    1.16
  10  12  11    0.97    0.63
 -11 -12 -11    1.85    1.22
  11  12  11    1.44    0.65
  12  12  11    0.33    0.66
  13  12  11    0.80    0.70
  14  12  11    1.73    0.76
  15  12  11    0.57    0.85
  16  12  11    0.34    0.92
  17  12  11   -0.63    1.02
  18  12  11   -0.78    1.15
   3 -13 -11    8.42    2.14
   2 -13 -11    0.64    2.07
   1 -13 -11    2.29    2.01
   0 -13 -11    1.07    1.87
  -1 -13 -11    0.98    1.76
  -2 -13 -11    5.37    1.65
  -3 -13 -11    9.11    1.61
  -4 -13 -11    1.69    1.48
  -5 -13 -11   -0.90    1.40
  -6 -13 -11    3.30    1.38
  -7 -13 -11    0.85    1.35
  -8 -13 -11    1.01    1.33
  -9 -13 -11    3.52    1.33
 -10 -13 -11   -0.95    1.32
  10  13  11   -0.14    0.70
 -11 -13 -11    1.73    1.36
  11  13  11    1.12    0.70
 -12 -13 -11    2.67    1.39
  12  13  11    1.69    0.74
  13  13  11    0.91    0.76
  14  13  11    0.43    0.80
  15  13  11   -0.59    0.88
  16  13  11   -0.16    1.00
  17  13  11   -1.72    1.08
   4 -14 -11    2.81    2.90
   3 -14 -11    3.51    2.51
   2 -14 -11    4.77    2.23
   1 -14 -11    0.35    2.18
   0 -14 -11    0.10    2.11
  -1 -14 -11    8.10    2.07
  -2 -14 -11   12.43    2.29
  -3 -14 -11   13.99    2.14
  -4 -14 -11    6.35    1.69
  -5 -14 -11    0.70    1.57
  -6 -14 -11   -1.18    1.52
  -7 -14 -11   -0.54    1.47
  -8 -14 -11   -0.12    1.45
  -9 -14 -11    2.54    1.44
 -10 -14 -11    2.31    1.44
 -11 -14 -11    2.72    1.45
  11  14  11    2.29    0.77
 -12 -14 -11    2.31    1.48
  12  14  11    1.78    0.80
  13  14  11   -0.13    0.84
  14  14  11    2.68    0.90
  15  14  11    0.28    0.93
  16  14  11   -1.12    1.02
  17  14  11   -1.27    1.16
   2 -15 -11    2.17    2.72
   1 -15 -11    6.21    2.41
   0 -15 -11    4.06    2.31
  -1 -15 -11    1.32    2.21
  -2 -15 -11    6.82    2.19
  -3 -15 -11   -0.02    2.05
  -4 -15 -11    1.81    1.93
  -5 -15 -11   -0.27    1.83
  -6 -15 -11    0.48    1.74
  -7 -15 -11    2.37    1.69
  -8 -15 -11    1.05    1.63
  -9 -15 -11    4.96    1.60
 -10 -15 -11    2.51    1.59
 -11 -15 -11    9.76    1.93
  12  15  11    4.12    0.90
  13  15  11    1.01    0.89
  14  15  11    0.35    0.96
  15  15  11    0.49    1.02
  16  15  11    0.44    1.09
   0 -16 -11    2.95    2.66
  -1 -16 -11    1.33    2.43
  -2 -16 -11    6.60    2.37
  -3 -16 -11    0.20    2.28
  -4 -16 -11   -0.28    2.20
  -5 -16 -11   -1.66    2.09
  -6 -16 -11   -0.23    2.00
  -7 -16 -11   -1.08    1.91
  -8 -16 -11   -0.16    1.84
  -9 -16 -11    0.11    1.78
 -10 -16 -11    3.91    1.77
 -11 -16 -11    0.58    1.77
 -12 -16 -11   -1.50    1.80
  12  16  11    0.28    0.97
 -13 -16 -11   -2.68    1.89
  13  16  11    1.79    1.00
  14  16  11    1.62    1.03
  15  16  11   -0.14    1.12
  -2 -17 -11    2.85    2.72
  -3 -17 -11    4.47    2.49
  -4 -17 -11    2.37    2.37
  -5 -17 -11    0.94    2.31
  -6 -17 -11    6.76    2.23
  -7 -17 -11    5.59    2.14
  -8 -17 -11    4.45    2.05
  -9 -17 -11   -0.56    1.99
 -10 -17 -11   -0.33    1.93
 -11 -17 -11    0.95    1.91
 -12 -17 -11    1.52    1.97
  13  17  11   -0.65    1.09
  -5 -18 -11    3.76    2.64
  -6 -18 -11    4.71    2.48
  -7 -18 -11    8.42    2.37
  -8 -18 -11    5.24    2.22
  -9 -18 -11    4.36    2.16
 -10 -18 -11    1.64    2.06
   5  17 -12   -2.29    1.18
  -5 -17  12    2.01    2.97
  -4 -17  12    1.46    2.86
   3  17 -12    2.97    1.22
  -3 -17  12    0.91    2.97
  -2 -17  12    2.63    2.98
  -1 -17  12    2.03    3.08
   8  16 -12   -0.21    1.14
   7  16 -12   -0.51    1.10
   6  16 -12   -1.38    1.06
  -6 -16  12    0.30    2.68
  -5 -16  12    0.94    2.78
  -4 -16  12    2.38    2.64
   3  16 -12   -1.81    1.06
  -3 -16  12   -0.13    2.61
   2  16 -12    0.70    1.11
  -2 -16  12    1.62    2.68
  -1 -16  12    1.87    2.73
   0 -16  12   -1.43    2.77
   1 -16  12   -2.08    2.87
   2 -16  12   -0.35    2.98
   3 -16  12    1.20    3.14
  10  15 -12   -0.69    1.19
   9  15 -12   -0.37    1.09
   8  15 -12    0.92    1.04
   7  15 -12    0.18    0.98
   6  15 -12   -0.27    0.95
  -6 -15  12    0.91    2.41
  -5 -15  12    3.17    2.48
  -4 -15  12    5.45    2.47
   3  15 -12   -0.72    0.93
  -3 -15  12    0.11    2.42
   2  15 -12   -0.08    0.95
  -2 -15  12    0.22    2.40
   1  15 -12    0.74    1.00
  -1 -15  12   -0.06    2.45
   0 -15  12    3.28    2.49
   1 -15  12   -1.95    2.56
   2 -15  12   -0.69    2.67
   3 -15  12   -0.80    2.82
   4 -15  12   -0.11    2.92
   5 -15  12    0.18    3.25
  11  14 -12   -0.66    1.19
  10  14 -12   -0.12    1.12
   9  14 -12   -0.64    1.01
   8  14 -12    0.05    0.95
   7  14 -12   -0.39    0.88
   6  14 -12    0.31    0.86
   5  14 -12    0.02    0.82
  -5 -14  12   -2.91    2.20
   4  14 -12    0.46    0.81
  -4 -14  12   -3.21    2.23
   3  14 -12   -1.60    0.80
  -3 -14  12    1.58    2.25
   2  14 -12   -0.43    0.83
  -2 -14  12    1.23    2.21
   1  14 -12    1.52    0.85
  -1 -14  12    2.11    2.22
   0  14 -12    1.66    0.91
   0 -14  12    3.59    2.26
   1 -14  12    0.69    2.29
   2 -14  12    0.13    2.38
   3 -14  12    3.62    2.50
   4 -14  12    3.93    2.64
   5 -14  12    0.75    2.83
   6 -14  12   -0.10    2.99
   7 -14  12    0.11    3.09
  11  13 -12   -0.67    1.11
  10  13 -12    0.02    1.02
   9  13 -12   -0.48    0.94
   8  13 -12   -0.42    0.88
   7  13 -12   -0.14    0.82
   6  13 -12   -0.02    0.78
   5  13 -12    1.45    0.73
  -5 -13  12    2.53    1.96
   4  13 -12    0.11    0.71
  -4 -13  12    0.14    2.01
   3  13 -12   -0.50    0.71
  -3 -13  12   -1.51    2.05
   2  13 -12   -0.44    0.73
  -2 -13  12    0.44    2.08
  -1 -13  12    4.55    2.08
   0  13 -12    2.33    0.79
   0 -13  12    5.23    2.01
   1 -13  12    1.72    2.04
   2 -13  12    1.78    2.09
   3 -13  12    1.60    2.23
   4 -13  12    4.22    2.40
   5 -13  12   10.51    2.60
   6 -13  12   -3.42    2.66
   7 -13  12   -0.66    2.71
   8 -13  12   -1.25    2.83
  12  12 -12   -0.73    1.15
  11  12 -12   -1.20    1.01
  10  12 -12   -0.60    0.94
   9  12 -12    0.41    0.88
   8  12 -12    1.90    0.82
   7  12 -12    0.05    0.75
   6  12 -12    0.14    0.71
  -5 -12  12    3.84    1.87
   4  12 -12    1.23    0.64
  -4 -12  12    0.39    1.78
   3  12 -12   -0.18    0.62
  -3 -12  12    1.07    1.80
   2  12 -12   -0.07    0.63
   1  12 -12    0.08    0.65
  -1 -12  12    3.27    1.89
   0 -12  12    3.39    1.90
  -1  12 -12    1.18    0.73
   1 -12  12    2.28    1.92
   2 -12  12    4.48    1.98
   3 -12  12    3.05    2.02
   4 -12  12    0.33    2.17
   5 -12  12    2.74    2.22
   6 -12  12    3.13    2.35
   7 -12  12   -0.43    2.39
   8 -12  12    1.93    2.48
   9 -12  12    3.74    2.65
  10 -12  12    9.90    3.06
  13  11 -12    0.68    1.19
  12  11 -12   -0.19    1.06
  11  11 -12   -0.36    0.98
  10  11 -12    2.38    0.92
   9  11 -12    0.38    0.84
   8  11 -12    0.52    0.74
   7  11 -12   -0.13    0.69
   6  11 -12   -0.34    0.64
  -5 -11  12    3.85    1.73
  -4 -11  12   11.63    2.03
  -3 -11  12    5.62    1.61
   2  11 -12    0.29    0.55
  -2 -11  12   -0.03    1.60
   1  11 -12    0.14    0.56
  -1 -11  12   -2.24    1.63
   0  11 -12   15.89    1.24
   0 -11  12   11.50    1.75
  -1  11 -12    4.24    0.70
   1 -11  12    4.78    1.66
   2 -11  12    0.10    1.75
   3 -11  12   -1.53    1.73
   4 -11  12   -1.50    1.83
   5 -11  12    6.08    1.97
   6 -11  12    0.23    2.06
   7 -11  12   -0.63    2.12
   8 -11  12    2.31    2.24
   9 -11  12    8.48    2.48
  10 -11  12    6.12    2.67
  13  10 -12    2.22    1.05
  12  10 -12    3.14    0.98
  11  10 -12    1.38    0.90
  10  10 -12    0.16    0.84
   9  10 -12    0.61    0.79
   8  10 -12    0.08    0.70
   7  10 -12    1.36    0.66
   6  10 -12    0.19    0.61
   5  10 -12    0.73    0.55
   4  10 -12    0.15    0.51
  -3 -10  12    9.79    1.78
  -2 -10  12    1.45    1.45
   1  10 -12    9.90    1.02
  -1 -10  12    8.52    1.74
   0  10 -12    0.21    0.52
   0 -10  12    0.27    1.42
  -1  10 -12    1.56    0.60
   1 -10  12    2.87    1.45
   2 -10  12    4.77    1.48
   3 -10  12   -1.44    1.52
   4 -10  12    2.72    1.59
   5 -10  12    3.10    1.69
   6 -10  12    4.34    1.76
   7 -10  12    2.10    1.93
   8 -10  12   17.65    2.41
   9 -10  12    6.47    2.24
  13   9 -12    0.73    1.00
  12   9 -12    0.90    0.92
  11   9 -12    1.25    0.85
  10   9 -12    3.11    0.78
   9   9 -12    1.35    0.70
   8   9 -12    0.28    0.65
   7   9 -12    0.81    0.61
   6   9 -12    0.41    0.56
   5   9 -12    1.29    0.51
   4   9 -12   10.04    0.93
  -4  -9  12    9.95    1.70
  -3  -9  12    5.12    1.41
   2   9 -12    2.15    0.50
  -1  -9  12    1.63    1.31
   0   9 -12   -0.29    0.45
   0  -9  12    1.61    1.30
   1  -9  12   16.40    1.70
   2  -9  12    3.57    1.30
   3  -9  12    3.13    1.32
   4  -9  12    1.94    1.37
   5  -9  12    6.40    1.49
   6  -9  12    1.53    1.58
   7  -9  12    5.76    1.75
   8  -9  12    3.35    1.88
   9  -9  12   13.15    2.37
  10  -9  12    1.50    2.13
  14   8 -12   -0.19    1.04
  13   8 -12   -0.29    0.96
  12   8 -12    0.45    0.87
  11   8 -12   -0.03    0.80
  10   8 -12   -0.45    0.74
   9   8 -12    1.08    0.68
   8   8 -12   12.07    1.21
   7   8 -12    1.22    0.59
   6   8 -12    1.21    0.52
   5   8 -12    0.91    0.47
   4   8 -12    6.70    0.85
   3   8 -12    1.76    0.42
  -3  -8  12    2.62    1.22
   2   8 -12    0.82    0.43
  -2  -8  12    1.86    1.21
   1   8 -12    1.00    0.41
  -1  -8  12    1.58    1.21
   0  -8  12    3.64    1.19
   1  -8  12    3.48    1.17
   2  -8  12   18.84    1.66
   3  -8  12    2.25    1.23
   4  -8  12   15.87    1.68
   5  -8  12    4.09    1.33
   6  -8  12    9.98    1.78
   7  -8  12    5.62    1.59
   8  -8  12    7.07    1.72
   9  -8  12   -1.05    1.80
  10  -8  12    0.92    1.89
  13  -8  12   -1.91    1.34
   5   7 -12    0.09    0.46
   4   7 -12    0.61    0.43
   3   7 -12    6.00    0.73
  -3  -7  12    7.05    1.19
   2   7 -12    0.67    0.37
  -2  -7  12    0.63    1.11
   1   7 -12    7.22    0.72
  -1  -7  12    7.40    1.16
   0   7 -12    0.58    0.35
   0  -7  12    0.96    1.05
   1  -7  12   11.16    1.40
   2  -7  12    2.20    1.10
   3  -7  12    2.83    1.13
   4  -7  12    3.17    1.18
   5  -7  12   31.63    1.99
   6  -7  12    2.15    1.29
   7  -7  12    0.40    1.38
   8  -7  12    3.62    1.49
   9  -7  12    2.84    1.62
  10  -7  12    0.60    1.75
  13  -7  12    0.07    1.22
  14  -7  12   -1.01    1.36
  -3  -6  12    4.50    0.97
   2   6 -12    5.43    0.71
  -2  -6  12    5.74    1.05
   1   6 -12    0.51    0.30
  -1  -6  12    0.45    0.95
   0   6 -12    5.36    0.61
   0  -6  12    7.31    1.06
   1  -6  12    0.75    0.98
   2  -6  12   42.26    2.12
   3  -6  12    0.58    0.98
   4  -6  12    4.01    1.05
   5  -6  12    0.55    1.07
   6  -6  12    6.91    1.22
   7  -6  12    4.40    1.27
   8  -6  12   11.91    1.71
   9  -6  12    1.85    1.47
   9  -6  12    0.99    0.73
  10  -6  12    1.94    0.80
  12  -6  12   -0.87    0.99
  13  -6  12    2.74    1.11
  14  -6  12   -0.16    1.22
  15  -6  12   -1.35    1.40
  14   5 -12   -2.81    1.49
  10   5 -12    1.68    1.18
  -2  -5  12    3.12    0.88
  -1  -5  12    0.47    0.79
   0   5 -12    1.17    0.29
   0  -5  12    2.22    0.82
   1  -5  12   52.17    2.34
   2  -5  12    1.31    0.87
   3  -5  12    4.32    0.93
   4  -5  12    5.99    1.21
   5  -5  12   15.03    1.40
   6  -5  12    0.88    1.05
   7  -5  12   -0.06    0.57
   7  -5  12    0.72    1.10
   8  -5  12    5.00    0.87
   9  -5  12    4.90    0.70
   9  -5  12    4.59    1.34
  10  -5  12    3.48    0.74
  11  -5  12   -1.20    0.82
  12  -5  12   -0.39    0.93
  14  -5  12   -1.38    1.14
  15  -5  12   -1.55    1.33
  16  -5  12    0.37    1.48
  14   4 -12   -1.07    1.51
  11   4 -12   -0.40    1.26
  10   4 -12    2.42    1.19
   9   4 -12    0.14    1.05
   8   4 -12    2.19    0.92
   7   4 -12    0.21    0.67
  -2  -4  12   30.66    1.71
  -1  -4  12    3.77    0.78
   0  -4  12   41.82    1.97
   1  -4  12    2.22    0.75
   2  -4  12   21.48    1.34
   3  -4  12   10.51    0.78
   3  -4  12   11.47    1.06
   4  -4  12    6.31    1.03
   4  -4  12    4.82    0.78
   5  -4  12    1.54    0.47
   6  -4  12    9.40    0.78
   6  -4  12   10.34    1.21
   7  -4  12   27.69    1.31
   7  -4  12   27.27    1.64
   8  -4  12    5.30    0.88
   9  -4  12   10.93    0.95
   9  -4  12   10.23    1.51
  10  -4  12    2.85    1.35
  10  -4  12    2.37    0.68
  11  -4  12    1.99    0.78
  12  -4  12   -0.79    0.85
  13  -4  12   -0.82    0.94
  14  -4  12   -0.04    1.07
  15  -4  12    0.24    1.20
  16  -4  12   -0.80    1.35
  14   3 -12    1.03    1.54
  13   3 -12    1.77    1.57
  12   3 -12   -1.80    1.38
  11   3 -12   11.17    1.35
  10   3 -12    1.61    1.18
   9   3 -12    3.33    1.06
   8   3 -12   -0.57    0.87
   7   3 -12    0.77    0.67
   6   3 -12    9.47    0.97
  -1  -3  12    9.50    1.04
   0  -3  12    2.39    0.77
   1  -3  12   23.15    1.38
   2  -3  12    1.02    0.63
   3  -3  12    3.08    0.55
   3  -3  12    2.50    0.64
   4  -3  12   29.59    1.56
   4  -3  12   28.65    1.28
   5  -3  12    6.88    1.05
   5  -3  12    5.74    0.64
   6  -3  12    8.97    1.15
   6  -3  12    8.86    0.76
   7  -3  12    1.49    0.48
   7  -3  12    2.47    0.91
   8  -3  12   11.66    1.26
   8  -3  12   10.24    0.89
   9  -3  12    5.58    0.82
  10  -3  12   18.47    1.13
  11  -3  12    1.37    0.70
  12  -3  12   -0.05    0.80
  13  -3  12    0.57    0.89
  14  -3  12    1.27    1.01
  15  -3  12    0.00    1.14
  16  -3  12   -0.44    1.28
  17  -3  12    3.14    1.48
  13   2 -12    0.35    1.60
  12   2 -12    2.30    1.42
  11   2 -12   -0.38    1.28
  10   2 -12    3.32    1.18
   9   2 -12    0.46    1.01
   8   2 -12    6.85    0.95
   7   2 -12    4.97    0.74
   6   2 -12   13.40    1.04
   5   2 -12    5.06    0.88
   1  -2  12    1.98    0.65
   2  -2  12    0.64    0.59
   3  -2  12   25.80    1.41
   4  -2  12   68.76    2.63
   4  -2  12   60.32    2.22
   5  -2  12    0.59    0.73
   5  -2  12    1.19    0.41
   6  -2  12   36.17    1.80
   6  -2  12   37.61    1.47
   7  -2  12   29.09    1.62
   7  -2  12   29.19    1.27
   8  -2  12    1.33    0.49
   8  -2  12   -0.26    0.92
   9  -2  12   -0.29    0.94
   9  -2  12   -0.09    0.51
  10  -2  12    0.63    0.58
  11  -2  12    5.97    0.95
  13  -2  12   -0.07    0.85
  14  -2  12    0.15    0.95
  15  -2  12    3.20    1.10
  16  -2  12    0.90    1.21
  17  -2  12    1.18    1.38
  13   1 -12    0.72    1.64
  12   1 -12   -1.14    1.50
  11   1 -12   -1.69    1.26
  10   1 -12   -0.02    1.15
   9   1 -12    1.17    1.01
   8   1 -12    0.59    0.90
   7   1 -12    3.77    0.71
   6   1 -12   32.36    1.55
   5   1 -12    0.51    0.60
   2   1 -12    1.29    0.71
   2   1 -12    0.56    0.53
   1   1 -12    6.52    0.63
   1   1 -12    5.35    0.92
   0   1 -12    1.13    0.69
   0   1 -12    0.51    0.53
  -1   1 -12    7.85    0.98
  -1   1 -12    7.37    0.68
   4  -1  12   24.95    1.15
   5  -1  12   41.41    1.61
   5  -1  12   42.73    1.92
   6  -1  12    6.46    0.91
   6  -1  12    6.54    0.67
   7  -1  12    0.36    0.41
   7  -1  12   -0.68    0.72
   8  -1  12    4.53    0.72
   8  -1  12    4.57    0.89
   9  -1  12   -0.03    0.49
  10  -1  12    5.34    0.80
  11  -1  12    1.19    0.60
  12  -1  12    3.11    0.73
  13  -1  12   -0.38    0.81
  14  -1  12    4.67    0.95
  15  -1  12   -0.81    1.04
  16  -1  12   -1.17    1.18
  17  -1  12   -1.49    1.33
  13   0 -12   -2.64    1.69
  12   0 -12    0.68    1.57
  11   0 -12   -2.27    1.31
  10   0 -12   -0.45    1.20
   9   0 -12    9.12    1.54
   8   0 -12   -0.35    0.92
   7   0 -12   27.25    1.49
   6   0 -12    6.14    0.94
   5   0 -12    1.84    0.61
   1   0 -12    2.25    0.68
   0   0 -12    0.61    0.62
   0   0 -12    1.10    0.48
  -1   0 -12    1.92    0.43
  -1   0 -12    1.21    0.56
  -2   0 -12   69.56    1.95
  -2   0 -12   67.54    2.78
  -3   0 -12   34.38    1.24
  -3   0 -12   33.63    1.77
  -4   0 -12    1.99    0.78
  -4   0 -12    0.89    0.56
   4   0  12    0.54    0.33
  -5   0 -12    2.28    0.61
  -5   0 -12    2.08    0.80
   5   0  12    2.03    0.43
  -6   0 -12    3.21    0.84
  -6   0 -12    3.45    0.60
   6   0  12    3.96    0.55
  -7   0 -12   26.65    1.57
  -7   0 -12   24.46    1.04
   7   0  12   25.21    1.16
  -8   0 -12   -0.18    0.90
   8   0  12    0.06    0.40
   9   0  12    1.77    0.49
  10   0  12    0.55    0.51
  11   0  12    4.53    0.83
  12   0  12    1.34    0.69
  13   0  12   -1.02    0.78
  14   0  12    1.28    0.89
  15   0  12    1.93    1.01
  16   0  12   -1.32    1.13
  17   0  12   -2.09    1.29
  18   0  12   -2.36    1.49
  13  -1 -12   -2.15    1.75
  12  -1 -12   -0.91    1.62
  11  -1 -12    2.91    1.37
  10  -1 -12    8.16    1.28
   9  -1 -12    0.91    1.06
   8  -1 -12   -1.05    0.95
   7  -1 -12    3.86    0.77
   6  -1 -12   12.75    1.07
   5  -1 -12    0.94    0.59
   1  -1 -12    3.29    0.75
   0  -1 -12   28.59    1.57
  -1  -1 -12   20.75    1.29
  -2  -1 -12   22.34    1.36
  -3  -1 -12   19.64    1.33
  -3  -1 -12   20.07    0.92
  -4  -1 -12    7.52    0.86
  -4  -1 -12    7.48    0.59
  -5  -1 -12   14.58    0.76
   5   1  12   15.90    0.87
  -6  -1 -12    5.70    1.04
  -6  -1 -12    4.94    0.69
   6   1  12    5.12    0.60
  -7  -1 -12    3.11    0.80
  -7  -1 -12    2.05    0.57
   7   1  12    3.36    0.50
  -8  -1 -12    5.95    0.70
  -8  -1 -12    8.06    1.12
   8   1  12    6.37    0.67
  -9  -1 -12    5.62    0.75
  -9  -1 -12    5.51    1.01
   9   1  12    3.73    0.72
  10   1  12   24.31    1.22
  11   1  12    2.60    0.57
  12   1  12    5.45    0.92
  13   1  12    0.77    0.73
  14   1  12    2.73    0.90
  15   1  12    0.90    1.01
  16   1  12    0.78    1.12
  17   1  12   -1.54    1.25
  18   1  12   -2.72    1.42
  12  -2 -12    0.23    1.72
  11  -2 -12    5.94    1.51
  10  -2 -12    2.04    1.28
   9  -2 -12   20.46    1.79
   8  -2 -12   -0.19    0.99
   7  -2 -12    6.63    1.22
   6  -2 -12    2.16    0.71
   5  -2 -12    0.67    0.62
   2  -2 -12   10.28    1.12
   1  -2 -12   18.83    1.26
   0  -2 -12    1.87    0.63
  -1  -2 -12    3.86    0.77
  -2  -2 -12    2.12    0.69
  -3  -2 -12    9.11    1.02
  -4  -2 -12   -0.02    0.62
  -5  -2 -12    5.30    0.87
   5   2  12    5.11    0.59
  -6  -2 -12    3.44    0.80
   6   2  12    4.17    0.61
  -7  -2 -12   33.22    1.75
   7   2  12   39.68    1.47
  -8  -2 -12    2.44    0.78
   8   2  12    1.99    0.45
   9   2  12    8.11    0.73
  10   2  12    1.43    0.51
  11   2  12   41.78    1.74
  12   2  12    5.11    0.90
  13   2  12    1.03    0.71
  14   2  12   -0.75    0.82
  15   2  12   -1.35    0.97
  16   2  12   -0.15    1.11
  17   2  12    0.49    1.27
  18   2  12   -1.76    1.42
  12  -3 -12    0.83    1.78
  11  -3 -12    0.98    1.59
  10  -3 -12    7.40    1.42
   9  -3 -12    0.58    1.22
   8  -3 -12   -0.29    1.03
   7  -3 -12    0.63    0.92
   6  -3 -12    2.41    0.76
   5  -3 -12    1.07    0.67
   4  -3 -12    1.42    0.63
   1  -3 -12   31.58    1.63
   0  -3 -12    5.58    0.94
  -1  -3 -12    6.70    0.92
  -2  -3 -12    8.49    0.89
  -3  -3 -12    0.38    0.64
  -4  -3 -12    1.12    0.62
  -5  -3 -12    1.17    0.63
  -6  -3 -12   19.21    1.24
   6   3  12   21.91    0.99
  -7  -3 -12    1.33    0.68
   7   3  12    1.13    0.40
  -8  -3 -12    4.89    0.79
   8   3  12    3.69    0.66
   9   3  12    2.12    0.47
  10   3  12   29.08    1.35
  11   3  12    0.96    0.57
  12   3  12    0.36    0.60
  13   3  12    4.29    0.74
  14   3  12    2.60    0.82
  15   3  12    1.07    0.95
  16   3  12    0.96    1.10
  17   3  12    2.40    1.25
  18   3  12   -1.34    1.41
  19   3  12   -0.91    1.59
  11  -4 -12    3.00    1.76
  10  -4 -12   -0.95    1.46
   9  -4 -12    0.81    1.30
   8  -4 -12    2.99    1.13
   7  -4 -12    3.19    1.03
   6  -4 -12    1.13    0.81
   5  -4 -12   13.25    1.19
   4  -4 -12   18.67    1.17
   2  -4 -12   12.78    1.18
   1  -4 -12   11.92    1.09
   0  -4 -12    1.10    0.74
  -1  -4 -12   -0.32    0.69
  -2  -4 -12    0.08    0.65
  -3  -4 -12   -0.22    0.64
  -4  -4 -12    1.59    0.66
  -5  -4 -12    2.05    0.68
  -6  -4 -12    2.81    0.68
   6   4  12    2.02    0.40
  -7  -4 -12   81.35    3.06
   7   4  12   77.93    2.66
  -8  -4 -12   16.66    1.18
   8   4  12   15.00    0.85
  -9  -4 -12    4.31    0.83
   9   4  12    4.81    0.68
   9   4  12    3.45    0.52
  10   4  12    5.32    0.74
  10   4  12    3.76    0.73
  11   4  12    7.47    0.82
  11   4  12    7.67    0.90
  12   4  12   10.71    1.06
  12   4  12   10.53    0.90
  13   4  12   -0.04    0.69
  13   4  12    1.35    0.49
  14   4  12    8.62    1.03
  14   4  12    9.59    1.24
  15   4  12    0.96    0.62
  15   4  12    1.21    0.95
  16   4  12    7.81    1.17
  17   4  12   -0.59    1.23
  18   4  12   -1.31    1.43
  11  -5 -12   -0.69    1.82
  10  -5 -12    2.46    1.60
   9  -5 -12    3.71    1.41
   8  -5 -12    1.12    1.26
   7  -5 -12   -0.31    1.10
   6  -5 -12   22.20    1.66
   5  -5 -12   21.50    1.44
   4  -5 -12    5.35    0.77
   3  -5 -12    2.09    0.68
   2  -5 -12   10.04    1.21
   1  -5 -12    1.15    0.86
   0  -5 -12   -0.35    0.78
  -1  -5 -12    7.63    0.98
  -2  -5 -12    4.88    0.92
  -3  -5 -12    1.02    0.74
  -4  -5 -12   34.40    1.71
  -5  -5 -12    5.17    0.92
  -6  -5 -12   22.94    1.37
  -7  -5 -12    0.80    0.76
   7   5  12    1.51    0.46
  -8  -5 -12    7.00    1.08
   8   5  12    8.14    0.76
  -9  -5 -12    6.67    1.14
   9   5  12    7.49    0.72
   9   5  12    8.02    0.78
  10   5  12    5.18    0.79
  10   5  12    6.51    0.81
  11   5  12   -0.31    0.54
  11   5  12    1.03    0.47
  12   5  12    0.12    0.65
  12   5  12    1.69    0.49
  13   5  12    3.23    0.56
  13   5  12    4.44    0.78
  14   5  12   -0.95    0.81
  14   5  12   -0.13    0.59
  15   5  12    4.13    0.61
  16   5  12    1.39    1.10
  16   5  12   -0.88    0.70
  17   5  12    2.42    1.25
  18   5  12    1.53    1.40
  19   5  12    0.94    1.58
  10  -6 -12   -2.99    1.76
   9  -6 -12    0.82    1.55
   8  -6 -12   -0.01    1.36
   7  -6 -12    3.92    1.19
   6  -6 -12    1.30    1.09
   5  -6 -12   14.58    1.43
   4  -6 -12   10.27    1.24
   3  -6 -12    0.44    0.69
   1  -6 -12   -0.25    0.89
   0  -6 -12   -0.43    0.86
  -1  -6 -12    2.39    0.86
  -2  -6 -12    9.91    1.10
  -3  -6 -12   25.63    1.45
  -4  -6 -12   14.25    1.14
  -5  -6 -12    2.76    0.78
  -6  -6 -12    2.69    0.78
  -7  -6 -12   22.10    1.40
   7   6  12   22.70    1.09
  -8  -6 -12    2.39    0.85
   8   6  12    2.41    0.48
  -9  -6 -12    0.00    0.88
   9   6  12    0.76    0.43
   9   6  12    1.05    0.49
 -10  -6 -12    0.56    0.92
  10   6  12    1.39    0.53
  10   6  12    0.07    0.47
  11   6  12    0.63    0.46
  11   6  12   -0.06    0.60
  12   6  12    3.35    0.58
  12   6  12    2.85    0.65
  13   6  12   -0.79    0.75
  13   6  12   -0.43    0.50
  14   6  12   -1.10    0.55
  14   6  12    0.15    0.87
  15   6  12    2.16    0.98
  15   6  12    1.06    0.63
  16   6  12    4.12    0.72
  17   6  12    1.36    1.26
  18   6  12    2.71    1.42
  19   6  12    2.36    1.63
  10  -7 -12    1.39    1.87
   9  -7 -12    0.56    1.65
   8  -7 -12    0.29    1.50
   7  -7 -12   -0.34    1.34
   6  -7 -12   13.08    1.83
   5  -7 -12   12.19    1.62
   4  -7 -12    4.27    0.92
   3  -7 -12    1.97    0.81
   2  -7 -12    2.84    1.09
   2  -7 -12    1.04    0.77
   1  -7 -12   -0.21    1.02
   0  -7 -12    4.57    0.93
  -1  -7 -12    1.08    0.88
  -2  -7 -12    7.38    1.19
  -3  -7 -12   32.42    1.75
  -4  -7 -12   27.69    1.57
  -5  -7 -12    1.79    0.84
  -6  -7 -12    2.40    0.86
  -7  -7 -12   12.18    1.16
  -8  -7 -12    0.40    0.86
   8   7  12    0.59    0.51
  -9  -7 -12   10.27    1.21
   9   7  12   11.61    0.88
   9   7  12   11.22    1.02
  10   7  12    1.62    0.51
  10   7  12    2.44    0.55
  11   7  12   17.66    1.05
  12   7  12    6.62    0.91
  13   7  12    4.96    0.60
  14   7  12   -0.18    0.60
  14   7  12    1.16    0.87
  15   7  12    0.00    0.65
  16   7  12   -0.48    0.73
  17   7  12    0.99    1.27
  17   7  12   -0.42    0.83
  18   7  12    1.27    1.41
  19   7  12    1.57    1.59
   9  -8 -12    5.04    1.84
   8  -8 -12    5.68    1.61
   7  -8 -12    2.19    1.47
   6  -8 -12    4.07    1.33
   5  -8 -12    0.01    1.22
   4  -8 -12    0.27    1.02
   3  -8 -12    8.81    1.67
   3  -8 -12    9.54    1.41
   2  -8 -12    4.93    1.29
   2  -8 -12    3.93    0.84
   1  -8 -12    8.94    1.45
   0  -8 -12   39.31    2.04
  -1  -8 -12    1.71    1.00
  -2  -8 -12    2.40    0.94
  -3  -8 -12   25.21    1.58
  -4  -8 -12    5.92    1.10
  -5  -8 -12    1.04    0.89
  -6  -8 -12    0.01    0.89
  -7  -8 -12    7.28    1.16
  -8  -8 -12    1.39    0.92
  -9  -8 -12   -0.23    0.93
 -10  -8 -12    1.83    0.97
  10   8  12    2.42    0.49
  11   8  12   -0.07    0.49
  12   8  12    8.21    0.99
  13   8  12   -0.13    0.79
  13   8  12   -0.10    0.58
  14   8  12   -0.61    0.62
  15   8  12   -0.63    0.69
  16   8  12   -0.26    0.76
  17   8  12    0.94    1.31
  17   8  12    0.38    0.87
  18   8  12   -0.48    0.99
   8  -9 -12   -2.48    1.70
   7  -9 -12    1.59    1.65
   6  -9 -12    2.06    1.48
   5  -9 -12    1.03    1.31
   4  -9 -12    0.00    1.21
   3  -9 -12    1.16    1.05
   2  -9 -12    1.46    1.41
   1  -9 -12   24.68    1.87
   1  -9 -12   22.28    1.57
   0  -9 -12   19.95    1.76
  -1  -9 -12   14.47    1.54
  -2  -9 -12    1.04    1.06
  -3  -9 -12    1.30    1.02
  -4  -9 -12    0.02    0.98
  -5  -9 -12    2.73    0.96
  -6  -9 -12    2.10    0.92
  -7  -9 -12    0.59    0.94
  -8  -9 -12    1.33    0.97
  -9  -9 -12   20.66    1.48
 -10  -9 -12   -0.56    1.03
  10   9  12    0.94    0.52
  11   9  12    0.55    0.55
  12   9  12    1.38    0.56
  13   9  12    3.03    0.61
  14   9  12   -0.58    0.67
  15   9  12   -0.38    0.72
  16   9  12   -0.63    0.81
  17   9  12   -1.12    0.90
   7 -10 -12    0.12    1.71
   3 -10 -12    1.51    1.65
   2 -10 -12    9.78    1.98
   1 -10 -12    9.68    1.87
   0 -10 -12   14.98    1.77
  -1 -10 -12    6.33    1.33
  -2 -10 -12    1.84    1.23
  -3 -10 -12    1.44    1.10
  -4 -10 -12    2.61    1.08
  -5 -10 -12    1.74    1.05
  -6 -10 -12    0.65    1.03
  -7 -10 -12    9.66    1.36
  -8 -10 -12   22.50    1.61
  -9 -10 -12   -0.01    1.06
 -10 -10 -12    1.19    1.09
  10  10  12    0.39    0.56
  11  10  12    0.49    0.57
  12  10  12    4.04    0.63
  13  10  12   -0.60    0.62
  14  10  12   -0.27    0.70
  15  10  12    0.01    0.78
  16  10  12   -0.55    0.85
  17  10  12    1.24    0.96
  18  10  12   -2.14    1.07
   3 -11 -12    7.47    1.90
   2 -11 -12    1.62    1.75
   1 -11 -12   14.54    1.87
   0 -11 -12    1.75    1.61
  -1 -11 -12   -0.34    1.49
  -2 -11 -12    0.15    1.34
  -3 -11 -12    1.72    1.28
  -4 -11 -12    3.02    1.21
  -5 -11 -12    5.92    1.24
  -6 -11 -12    1.09    1.16
  -7 -11 -12    3.92    1.14
  -8 -11 -12    6.72    1.38
  -9 -11 -12    7.01    1.18
 -10 -11 -12    1.83    1.14
  10  11  12    1.98    0.63
 -11 -11 -12    2.44    1.16
  11  11  12    2.89    0.65
  12  11  12    1.58    0.68
  13  11  12    0.42    0.69
  14  11  12    0.57    0.73
  15  11  12   -0.91    0.82
  16  11  12   -0.89    0.91
  17  11  12   -1.64    1.00
  18  11  12   -0.27    1.11
   3 -12 -12   -0.30    2.09
   2 -12 -12    2.95    1.98
   1 -12 -12    2.37    1.84
   0 -12 -12   -0.88    1.72
  -1 -12 -12   -2.36    1.67
  -2 -12 -12    1.90    1.60
  -3 -12 -12    3.50    1.50
  -4 -12 -12    6.20    1.41
  -5 -12 -12   18.54    1.75
  -6 -12 -12    9.25    1.58
  -7 -12 -12    1.90    1.26
  -8 -12 -12    5.40    1.28
  -9 -12 -12    0.36    1.24
 -10 -12 -12    2.02    1.26
 -11 -12 -12    0.52    1.29
  11  12  12    0.21    0.67
 -12 -12 -12    6.13    1.35
  12  12  12    3.54    0.72
  13  12  12    0.77    0.76
  14  12  12    1.16    0.78
  15  12  12   -0.48    0.84
  16  12  12    0.80    0.95
  17  12  12   -1.09    1.06
   3 -13 -12    4.43    2.30
   2 -13 -12    2.35    2.24
   1 -13 -12    2.86    2.08
   0 -13 -12    3.07    2.00
  -1 -13 -12    1.32    1.85
  -2 -13 -12    1.10    1.75
  -3 -13 -12    9.20    1.77
  -4 -13 -12   11.08    1.98
  -5 -13 -12    9.76    1.90
  -6 -13 -12    1.40    1.49
  -7 -13 -12    0.62    1.43
  -8 -13 -12    1.88    1.39
  -9 -13 -12   -0.41    1.37
 -10 -13 -12    0.34    1.38
 -11 -13 -12    1.04    1.40
  11  13  12    0.72    0.75
 -12 -13 -12    1.40    1.46
  12  13  12    1.27    0.77
  13  13  12    2.54    0.81
  14  13  12    2.47    0.86
  15  13  12    1.50    0.91
  16  13  12    0.48    0.99
   3 -14 -12    3.21    2.55
   2 -14 -12    5.40    2.39
   1 -14 -12    0.34    2.36
   0 -14 -12    2.64    2.23
  -1 -14 -12    3.80    2.13
  -2 -14 -12    2.76    2.01
  -3 -14 -12    1.54    1.87
  -4 -14 -12    0.36    1.77
  -5 -14 -12    3.56    1.71
  -6 -14 -12    0.18    1.65
  -7 -14 -12   -2.04    1.59
  -8 -14 -12    0.30    1.55
  -9 -14 -12   -0.17    1.52
 -10 -14 -12   -1.49    1.50
 -11 -14 -12   -0.23    1.50
 -12 -14 -12    2.42    1.57
  12  14  12    1.32    0.81
  13  14  12   -0.04    0.86
  14  14  12   -0.45    0.92
  15  14  12    0.84    0.99
  16  14  12    0.36    1.06
   1 -15 -12    7.17    2.54
   0 -15 -12    9.67    2.49
  -1 -15 -12    5.38    2.41
  -2 -15 -12    4.71    2.30
  -3 -15 -12    1.40    2.19
  -4 -15 -12    2.57    2.06
  -5 -15 -12    0.61    1.95
  -6 -15 -12    0.83    1.86
  -7 -15 -12    0.98    1.76
  -8 -15 -12    0.38    1.72
  -9 -15 -12    1.20    1.67
 -10 -15 -12    0.68    1.65
 -11 -15 -12    0.26    1.65
 -12 -15 -12    0.36    1.73
  13  15  12    0.79    0.94
  14  15  12    3.44    1.00
  15  15  12    1.08    1.08
  -1 -16 -12   16.38    3.02
  -2 -16 -12   -2.57    2.54
  -3 -16 -12   -0.43    2.46
  -4 -16 -12   -1.44    2.35
  -5 -16 -12   -2.97    2.21
  -7 -16 -12    1.30    2.03
  -8 -16 -12    3.76    1.94
  -9 -16 -12    5.07    1.90
 -10 -16 -12    3.59    1.88
 -11 -16 -12    0.21    1.84
 -12 -16 -12   -0.19    1.89
  13  16  12    1.03    1.04
  14  16  12    0.56    1.08
  -3 -17 -12    3.36    2.64
  -4 -17 -12    2.34    2.57
  -5 -17 -12   -0.27    2.47
  -6 -17 -12    0.86    2.39
  -7 -17 -12   -0.81    2.32
  -8 -17 -12    0.96    2.21
  -9 -17 -12    3.66    2.17
 -10 -17 -12    1.61    2.08
 -11 -17 -12   -0.41    2.04
 -12 -17 -12   -0.36    2.09
   7  16 -13   -2.26    1.17
   6  16 -13   -1.24    1.12
  -5 -16  13   -1.08    2.80
   4  16 -13   -0.86    1.08
  -4 -16  13   -3.61    2.79
   3  16 -13   -0.92    1.12
  -3 -16  13   -0.16    2.89
  -1 -16  13   -1.08    3.06
   0 -16  13    1.52    3.19
   1 -16  13    2.12    3.23
   2 -16  13    1.14    3.34
   8  15 -13    0.29    1.11
   7  15 -13    0.03    1.05
   6  15 -13    0.03    1.01
  -6 -15  13    2.39    2.60
   5  15 -13   -0.98    0.97
  -5 -15  13    0.83    2.53
   4  15 -13   -1.90    0.98
  -4 -15  13    0.49    2.50
   3  15 -13    1.06    0.96
  -3 -15  13    0.88    2.61
   2  15 -13   -1.41    1.00
  -2 -15  13   -2.55    2.67
  -1 -15  13   -3.49    2.72
   0 -15  13   -0.94    2.82
   1 -15  13   -3.79    2.92
   2 -15  13   -1.28    2.99
   3 -15  13   -4.26    3.09
   4 -15  13   -3.61    3.24
  10  14 -13    0.28    1.20
   9  14 -13    1.00    1.10
   8  14 -13    0.00    1.02
   7  14 -13    0.30    0.95
   5  14 -13   -0.07    0.87
  -5 -14  13    4.10    2.33
  -4 -14  13    4.04    2.32
  -3 -14  13   -0.06    2.32
   2  14 -13    0.31    0.87
  -2 -14  13   -1.07    2.39
   1  14 -13   -1.27    0.90
  -1 -14  13   -0.04    2.51
   0 -14  13   -0.62    2.52
   1 -14  13   -3.16    2.57
   2 -14  13   -3.67    2.66
   3 -14  13   -4.64    2.74
   4 -14  13   -3.42    2.86
   5 -14  13    0.22    2.96
   6 -14  13   -0.39    3.01
  11  13 -13   -0.98    1.19
  10  13 -13    0.40    1.10
   9  13 -13    1.65    1.02
   8  13 -13   -0.51    0.94
   7  13 -13    0.27    0.88
   6  13 -13   -0.14    0.83
  -5 -13  13    5.75    2.22
  -4 -13  13    3.73    2.16
   3  13 -13   -1.21    0.73
  -3 -13  13    1.99    2.11
  -2 -13  13    0.51    2.12
   1  13 -13    0.23    0.78
  -1 -13  13    1.34    2.17
   0 -13  13    0.50    2.24
   2 -13  13   -1.73    2.36
   3 -13  13    5.21    2.44
   4 -13  13    0.90    2.51
   5 -13  13   -1.56    2.61
   6 -13  13    4.35    2.71
   7 -13  13    5.38    2.86
   8 -13  13    4.78    3.02
  11  12 -13   -0.84    1.09
  10  12 -13    0.25    1.03
   9  12 -13    0.95    0.94
   8  12 -13   -0.74    0.89
   7  12 -13    1.23    0.82
   6  12 -13   -0.63    0.76
  -5 -12  13    5.40    2.01
  -4 -12  13    2.99    1.98
  -3 -12  13    4.55    1.97
  -2 -12  13    2.28    1.94
  -1 -12  13    0.22    1.89
   0  12 -13   -0.40    0.72
   0 -12  13    3.46    1.95
   1 -12  13    6.18    2.02
   2 -12  13    1.91    2.05
   3 -12  13   -1.50    2.14
   4 -12  13    7.89    2.25
   5 -12  13    0.55    2.29
   6 -12  13   -1.10    2.40
   7 -12  13    1.20    2.53
   8 -12  13    8.20    2.73
   9 -12  13    7.45    3.00
  12  11 -13   -0.68    1.16
  11  11 -13    1.06    1.05
  10  11 -13    2.15    0.99
   9  11 -13    2.38    0.91
   8  11 -13   -0.18    0.82
   7  11 -13    0.11    0.75
   6  11 -13   -0.50    0.71
   5  11 -13    0.04    0.64
   4  11 -13    0.47    0.62
  -4 -11  13    3.70    1.84
  -3 -11  13    7.41    1.80
  -2 -11  13    4.78    1.80
  -1 -11  13    4.29    1.77
   0  11 -13    1.15    0.67
   0 -11  13    0.85    1.75
  -1  11 -13    1.40    0.69
   1 -11  13    0.63    1.74
   2 -11  13    2.04    1.76
   3 -11  13   16.36    2.24
   4 -11  13    1.56    1.93
   5 -11  13    2.60    2.06
   6 -11  13    2.45    2.18
   7 -11  13   11.86    2.39
   8 -11  13    4.62    2.50
   9 -11  13    6.35    2.61
  10 -11  13   -0.03    2.72
  12  10 -13    1.64    1.05
  11  10 -13    0.20    0.97
  10  10 -13    1.74    0.92
   9  10 -13    0.27    0.85
   8  10 -13   -0.79    0.78
   7  10 -13    0.80    0.72
   6  10 -13    2.69    0.66
   5  10 -13   -0.23    0.60
   4  10 -13   -0.09    0.57
  -4 -10  13    1.03    1.61
   3  10 -13   -0.08    0.54
  -3 -10  13    2.21    1.60
  -2 -10  13   10.39    1.96
   1  10 -13    4.88    0.92
  -1 -10  13    7.89    1.64
   0  10 -13    3.27    0.62
   0 -10  13    7.02    1.64
  -1  10 -13    2.33    0.61
   1 -10  13    4.70    1.61
   2 -10  13    1.44    1.61
   3 -10  13    2.75    1.65
   4 -10  13    2.43    1.74
   5 -10  13    3.10    1.86
   6 -10  13   11.79    2.29
   7 -10  13    5.63    2.14
   8 -10  13    4.98    2.23
   9 -10  13    1.93    2.34
  10 -10  13    1.50    2.44
  13   9 -13    3.05    1.10
  12   9 -13    3.16    0.99
  11   9 -13    1.56    0.93
  10   9 -13    1.34    0.84
   9   9 -13    5.82    0.82
   8   9 -13    0.39    0.70
   7   9 -13    0.81    0.66
   6   9 -13    0.41    0.63
   5   9 -13    5.78    1.01
   4   9 -13   -0.63    0.52
   3   9 -13    1.95    0.51
  -3  -9  13    3.14    1.50
   2   9 -13    2.81    0.47
  -1  -9  13    2.84    1.41
   0   9 -13   -0.61    0.47
   0  -9  13    1.61    1.46
   1  -9  13    8.95    1.80
   2  -9  13    2.88    1.46
   3  -9  13    5.87    1.50
   4  -9  13    3.90    1.57
   5  -9  13    2.69    1.64
   6  -9  13    2.98    1.76
   7  -9  13   29.12    2.47
   8  -9  13    2.72    1.96
   9  -9  13   -1.02    2.07
  10  -9  13    1.03    2.18
  13   8 -13    0.49    1.03
  12   8 -13   -0.34    0.95
  11   8 -13    0.67    0.87
  10   8 -13    1.38    0.81
   9   8 -13    1.72    0.75
   8   8 -13    1.28    0.69
   7   8 -13    0.22    0.63
   6   8 -13    7.63    1.06
   5   8 -13   11.13    0.99
   4   8 -13    1.01    0.49
  -4  -8  13    1.64    1.32
   3   8 -13    0.33    0.44
  -3  -8  13    0.32    1.31
   2   8 -13    0.57    0.48
  -2  -8  13    0.37    1.33
   1   8 -13    1.99    0.45
  -1  -8  13    1.50    1.30
   0   8 -13    0.30    0.43
   0  -8  13   -0.61    1.27
   1  -8  13    2.75    1.28
   2  -8  13    9.53    1.64
   3  -8  13    2.78    1.32
   4  -8  13   15.49    1.79
   5  -8  13    2.87    1.47
   6  -8  13   19.63    2.00
   7  -8  13    0.30    1.68
   8  -8  13    8.17    1.82
   9  -8  13    3.45    1.90
  10  -8  13    2.23    2.05
   5   7 -13    3.95    0.55
   4   7 -13    0.59    0.47
  -4  -7  13    0.76    1.20
   3   7 -13    1.58    0.42
   2   7 -13    8.97    0.86
  -2  -7  13    7.20    1.26
   1   7 -13    0.48    0.38
  -1  -7  13    1.45    1.15
   0   7 -13    0.77    0.37
   0  -7  13    0.33    1.20
   1  -7  13    1.70    1.20
   2  -7  13   -0.37    1.17
   3  -7  13   21.38    1.74
   4  -7  13   -1.48    1.23
   5  -7  13    0.05    1.32
   6  -7  13    1.20    1.39
   7  -7  13   25.20    2.05
   8  -7  13    0.48    1.61
   9  -7  13    1.53    1.72
  10  -7  13    0.82    1.80
  12  -7  13    3.89    1.14
  13  -7  13    3.20    1.26
  14  -7  13   -0.08    1.38
   2   6 -13    1.61    0.44
  -2  -6  13    2.24    1.02
   1   6 -13   12.56    0.82
  -1  -6  13   13.51    1.31
   0   6 -13    7.55    0.68
   0  -6  13    7.47    1.31
   1  -6  13   -0.08    1.01
   2  -6  13    6.16    1.08
   3  -6  13    5.34    1.14
   4  -6  13   14.68    1.54
   5  -6  13    6.88    1.24
   6  -6  13    5.23    1.31
   7  -6  13    4.38    1.34
   8  -6  13    2.78    1.41
   9  -6  13    6.46    1.58
  10  -6  13    0.86    0.86
  10  -6  13    2.08    1.63
  11  -6  13    2.24    0.94
  12  -6  13    1.03    1.04
  13  -6  13    3.01    1.15
  14  -6  13   -1.24    1.31
  11   5 -13   -1.07    1.37
  -2  -5  13    0.77    0.90
  -1  -5  13    1.30    0.93
   0   5 -13   20.23    0.93
   0  -5  13   16.54    1.40
   1  -5  13    1.37    0.84
   2  -5  13    2.72    0.90
   3  -5  13   17.92    1.41
   4  -5  13    8.07    1.07
   5  -5  13    1.99    1.05
   6  -5  13   10.71    0.94
   6  -5  13   11.60    1.45
   7  -5  13    3.96    1.16
   8  -5  13    5.06    1.27
   8  -5  13    2.71    0.68
   9  -5  13    1.96    1.36
   9  -5  13    0.44    0.74
  10  -5  13    0.58    1.53
  10  -5  13   -0.70    0.77
  11  -5  13    1.90    0.86
  12  -5  13   12.10    1.31
  13  -5  13    0.76    1.08
  11   4 -13   -1.48    1.37
  10   4 -13   17.59    1.93
   9   4 -13   -1.31    1.18
  -2  -4  13    1.60    0.83
  -1  -4  13   32.28    1.77
   0  -4  13    8.84    1.10
   1  -4  13    4.19    0.80
   2  -4  13    1.98    0.83
   3  -4  13   -0.13    0.84
   4  -4  13    0.43    0.46
   4  -4  13   -0.27    0.86
   5  -4  13    4.89    0.94
   5  -4  13    5.60    0.76
   6  -4  13    4.42    0.99
   6  -4  13    3.56    0.57
   7  -4  13    2.49    1.06
   7  -4  13    0.43    0.55
   8  -4  13    0.70    1.18
   8  -4  13    1.12    0.63
   9  -4  13   27.66    1.41
   9  -4  13   26.75    1.88
  10  -4  13    5.04    1.37
  10  -4  13    3.88    0.72
  11  -4  13    2.16    0.80
  12  -4  13    1.85    0.90
  13  -4  13    9.47    1.40
  13   3 -13    7.43    1.77
  12   3 -13   -0.51    1.50
  11   3 -13   -0.87    1.39
  10   3 -13    4.11    1.33
   9   3 -13    0.30    1.17
   8   3 -13    0.80    0.98
   7   3 -13    2.46    0.74
   6   3 -13    0.60    0.66
   0  -3  13    7.34    0.98
   1  -3  13   -0.67    0.69
   2  -3  13    0.45    0.76
   3  -3  13    9.04    1.07
   4  -3  13    6.69    1.05
   4  -3  13    7.07    0.72
   5  -3  13   -0.55    0.47
   5  -3  13    0.31    0.79
   6  -3  13   10.58    0.83
   6  -3  13   13.18    1.24
   7  -3  13    6.01    0.81
   7  -3  13    7.82    1.22
   8  -3  13   23.02    1.15
   8  -3  13   20.99    1.57
   9  -3  13    6.46    0.89
   9  -3  13    4.73    1.19
  10  -3  13    2.70    0.68
  10  -3  13    2.60    1.31
  11  -3  13    1.13    0.72
  12  -3  13   10.64    1.17
  13  -3  13    1.03    0.93
  14  -3  13    0.16    1.07
  15  -3  13    0.72    1.23
  16  -3  13   -0.41    1.37
  13   2 -13   -0.99    1.77
  12   2 -13   -2.82    1.54
  11   2 -13   -1.06    1.39
  10   2 -13    9.36    1.36
   9   2 -13   -0.87    1.16
   8   2 -13    1.63    0.99
   7   2 -13    7.04    1.12
   6   2 -13    3.63    0.70
   2   2 -13    3.17    0.81
   2   2 -13    3.76    0.62
   1   2 -13    3.70    0.81
   1   2 -13    4.53    0.64
   2  -2  13    0.35    0.64
   3  -2  13    0.87    0.68
   4  -2  13   13.88    0.85
   4  -2  13   16.84    1.15
   5  -2  13   10.98    1.03
   5  -2  13    9.83    0.77
   6  -2  13    3.83    0.81
   6  -2  13    3.58    0.65
   7  -2  13    1.49    0.83
   7  -2  13    0.50    0.48
   8  -2  13    2.76    0.94
   8  -2  13    1.82    0.51
   9  -2  13   17.28    1.08
   9  -2  13   18.57    1.49
  10  -2  13   -0.37    0.61
  11  -2  13    1.45    0.68
  12  -2  13    1.33    0.77
  13  -2  13    8.52    1.25
  14  -2  13   -0.90    1.00
  15  -2  13    0.51    1.15
  13   1 -13    1.27    1.81
  12   1 -13   -1.75    1.60
  11   1 -13    0.82    1.43
  10   1 -13    2.20    1.33
   9   1 -13   -1.01    1.15
   8   1 -13    6.99    1.08
   7   1 -13    0.99    0.78
   6   1 -13    1.12    0.72
   5   1 -13    0.42    0.67
   2   1 -13    0.57    0.73
   1   1 -13    0.49    0.45
   1   1 -13    0.43    0.57
   0   1 -13    4.58    0.95
   0   1 -13    4.63    0.66
  -1   1 -13    0.36    0.56
  -1   1 -13    0.85    0.71
  -2   1 -13    8.65    1.02
  -2   1 -13    8.62    0.71
   4  -1  13    9.13    0.68
   5  -1  13    2.04    0.44
   6  -1  13   14.36    0.88
   7  -1  13   18.35    1.02
   8  -1  13   13.51    0.90
   9  -1  13    0.27    0.55
  10  -1  13    6.40    0.91
  11  -1  13   -0.19    0.63
  12  -1  13    3.41    0.75
  13  -1  13    1.34    0.83
  14  -1  13   -0.91    0.96
  15  -1  13   -0.44    1.10
  16  -1  13    1.62    1.26
  17  -1  13   -0.88    1.42
  11   0 -13   -1.43    1.51
  10   0 -13    2.75    1.35
   9   0 -13    6.98    1.19
   8   0 -13    6.59    1.07
   7   0 -13   15.84    1.32
   6   0 -13    0.72    0.71
   5   0 -13   35.41    1.68
   1   0 -13    0.49    0.67
   0   0 -13    1.29    0.68
  -1   0 -13   15.17    0.74
  -1   0 -13   15.50    1.08
  -2   0 -13    2.63    0.73
  -2   0 -13    1.25    0.54
  -3   0 -13    0.94    0.69
  -3   0 -13    1.07    0.54
  -4   0 -13   18.34    0.88
  -4   0 -13   17.31    1.22
  -5   0 -13   38.76    1.33
  -5   0 -13   40.90    1.93
   5   0  13   38.08    1.53
  -6   0 -13    0.93    0.61
  -6   0 -13    0.21    0.80
   6   0  13    0.96    0.43
  -7   0 -13   -0.42    0.85
  -7   0 -13    0.10    0.64
   7   0  13    0.01    0.41
  -8   0 -13    0.31    0.93
  -8   0 -13    0.32    0.67
  -9   0 -13   10.58    0.89
  -9   0 -13   10.69    1.47
   9   0  13   11.90    0.87
  10   0  13    0.67    0.58
  11   0  13    0.23    0.61
  12   0  13    5.50    1.00
  13   0  13   11.61    1.19
  14   0  13    3.16    0.94
  15   0  13    3.05    1.05
  16   0  13   -1.62    1.22
  17   0  13    0.11    1.37
  18   0  13    1.13    1.54
  12  -1 -13   -3.44    1.81
  11  -1 -13   -0.52    1.53
  10  -1 -13   -1.83    1.41
   9  -1 -13    5.70    1.22
   8  -1 -13   18.59    1.73
   7  -1 -13   -0.01    0.84
   6  -1 -13    1.86    0.74
   5  -1 -13    2.34    0.66
   2  -1 -13    4.63    0.94
   1  -1 -13    6.56    0.90
   0  -1 -13   17.79    1.22
  -1  -1 -13   22.61    1.31
  -2  -1 -13    0.19    0.64
  -3  -1 -13    6.88    0.88
  -4  -1 -13    6.38    0.86
  -4  -1 -13    5.54    0.61
  -5  -1 -13    0.42    0.59
  -5  -1 -13    1.26    0.46
   5   1  13    0.94    0.36
  -6  -1 -13    7.00    0.88
  -6  -1 -13    6.90    0.58
   6   1  13    8.69    0.70
  -7  -1 -13    0.17    0.66
  -7  -1 -13    0.75    0.48
   7   1  13    0.61    0.41
  -8  -1 -13    9.19    0.66
  -8  -1 -13   11.30    1.07
   8   1  13   10.00    0.82
  -9  -1 -13    0.29    0.84
   9   1  13   -0.10    0.48
  10   1  13   13.51    1.01
  11   1  13    2.85    0.63
  12   1  13    1.73    0.67
  13   1  13    2.54    0.77
  14   1  13    2.70    0.89
  15   1  13    3.63    1.05
  16   1  13   -0.34    1.16
  17   1  13   -0.60    1.33
  18   1  13   -1.32    1.51
  11  -2 -13    2.25    1.62
  10  -2 -13   -1.15    1.47
   9  -2 -13    5.09    1.29
   8  -2 -13   -0.53    1.09
   7  -2 -13    3.62    0.93
   6  -2 -13    1.21    0.78
   5  -2 -13   14.10    1.16
   2  -2 -13    6.47    0.88
   1  -2 -13    7.66    1.02
   0  -2 -13   27.70    1.47
  -1  -2 -13   26.48    1.42
  -2  -2 -13    8.92    0.93
  -3  -2 -13    2.19    0.66
  -4  -2 -13    4.40    0.84
  -5  -2 -13    4.23    0.71
  -6  -2 -13    5.59    0.91
   6   2  13    5.01    0.65
  -7  -2 -13    3.07    0.76
   7   2  13    1.61    0.45
  -8  -2 -13    2.15    0.82
   8   2  13    0.26    0.47
  -9  -2 -13   16.80    1.31
   9   2  13   13.38    0.96
  10   2  13    1.31    0.52
  11   2  13   10.32    0.96
  12   2  13   -0.69    0.69
  13   2  13    3.26    0.74
  14   2  13   10.35    1.31
  15   2  13    2.07    1.00
  16   2  13    1.11    1.16
  17   2  13   -0.33    1.31
  18   2  13    1.03    1.46
  11  -3 -13   -1.64    1.74
  10  -3 -13   -1.95    1.53
   9  -3 -13    2.10    1.38
   8  -3 -13    3.59    1.20
   7  -3 -13    1.11    1.02
   6  -3 -13    1.19    0.85
   5  -3 -13    0.75    0.73
   4  -3 -13   16.17    1.21
   2  -3 -13    6.40    0.90
   1  -3 -13   -0.15    0.76
   0  -3 -13   19.60    1.30
  -1  -3 -13   10.81    1.06
  -2  -3 -13    0.36    0.65
  -3  -3 -13    0.83    0.62
  -4  -3 -13    1.62    0.68
  -5  -3 -13    4.57    0.84
  -6  -3 -13    9.07    1.00
   6   3  13    8.09    0.70
  -7  -3 -13    2.49    0.76
   7   3  13    1.68    0.43
  -8  -3 -13   19.03    1.30
   8   3  13   18.81    0.99
  -9  -3 -13   11.66    1.20
   9   3  13    9.33    0.86
  10   3  13    8.51    0.85
  11   3  13    9.24    0.97
  12   3  13    6.39    1.01
  13   3  13   -0.60    0.74
  14   3  13    0.04    0.83
  15   3  13    8.63    1.45
  16   3  13    1.50    1.15
  17   3  13    2.66    1.30
  18   3  13    1.50    1.47
  11  -4 -13    1.06    1.90
  10  -4 -13   -1.88    1.63
   9  -4 -13   -0.05    1.44
   8  -4 -13    1.41    1.25
   7  -4 -13    0.06    1.13
   6  -4 -13    1.65    0.93
   5  -4 -13    3.18    0.82
   4  -4 -13    5.40    1.05
   2  -4 -13   26.27    1.56
   1  -4 -13    3.64    0.87
   0  -4 -13    8.43    1.11
  -1  -4 -13   -0.21    0.76
  -2  -4 -13    0.79    0.75
  -3  -4 -13    0.31    0.71
  -4  -4 -13    0.88    0.73
  -5  -4 -13   18.02    1.22
  -6  -4 -13    8.53    1.01
  -7  -4 -13    2.17    0.72
   7   4  13    1.61    0.48
  -8  -4 -13    0.44    0.77
   8   4  13    0.61    0.49
  -9  -4 -13   12.50    1.24
   9   4  13   11.67    0.84
 -10  -4 -13    0.24    0.92
  10   4  13    0.06    0.53
  11   4  13    1.19    0.57
  12   4  13    1.74    0.68
  13   4  13    1.58    0.76
  14   4  13    5.72    0.91
  15   4  13   -0.29    0.96
  16   4  13    0.69    1.11
  17   4  13    1.38    1.29
  18   4  13    4.73    1.47
  19   4  13    2.58    1.66
  10  -5 -13   -1.52    1.72
   9  -5 -13   -0.32    1.55
   8  -5 -13    6.81    1.39
   7  -5 -13   -2.15    1.22
   6  -5 -13   -0.02    1.03
   5  -5 -13    3.05    0.91
   4  -5 -13   15.98    1.33
   3  -5 -13   20.42    1.37
   2  -5 -13   -0.97    0.97
   1  -5 -13    4.16    0.98
   0  -5 -13    4.67    0.92
  -1  -5 -13    5.34    0.87
  -2  -5 -13    4.54    0.81
  -3  -5 -13    0.81    0.80
  -4  -5 -13    5.17    1.01
  -5  -5 -13    4.94    1.00
  -6  -5 -13   31.24    1.67
  -7  -5 -13    5.20    0.89
   7   5  13    4.72    0.70
  -8  -5 -13    5.14    0.93
   8   5  13    6.82    0.74
  -9  -5 -13    7.57    1.25
   9   5  13    9.66    0.84
 -10  -5 -13   -1.29    0.97
  10   5  13    0.17    0.55
  11   5  13    6.22    0.87
  11   5  13    5.80    0.92
  12   5  13   -0.37    0.65
  12   5  13    0.03    0.48
  13   5  13    0.09    0.77
  13   5  13    0.73    0.54
  14   5  13    0.75    0.60
  14   5  13   -0.11    0.87
  15   5  13    5.48    1.03
  16   5  13   -0.84    1.14
  17   5  13    7.58    1.32
  18   5  13    1.87    1.45
  19   5  13    0.85    1.63
   9  -6 -13    0.86    1.69
   8  -6 -13   -0.41    1.50
   7  -6 -13   19.00    2.03
   6  -6 -13    9.26    1.80
   5  -6 -13    5.66    1.04
   4  -6 -13    4.66    0.92
   3  -6 -13    2.33    0.79
   2  -6 -13    5.00    1.03
   1  -6 -13   10.22    1.27
   0  -6 -13   -0.58    0.97
  -1  -6 -13    0.22    0.92
  -2  -6 -13    9.49    1.18
  -3  -6 -13    9.63    1.15
  -4  -6 -13    9.64    1.10
  -5  -6 -13   20.99    1.39
  -6  -6 -13    5.41    0.89
  -7  -6 -13    2.92    0.89
  -8  -6 -13    3.55    0.93
   8   6  13    2.51    0.50
  -9  -6 -13   -1.18    0.94
   9   6  13    0.50    0.51
 -10  -6 -13    4.14    1.01
  10   6  13    5.78    0.85
 -11  -6 -13    0.68    1.06
  11   6  13    0.46    0.50
  11   6  13    1.81    0.64
  12   6  13    0.93    0.68
  12   6  13    1.46    0.54
  13   6  13    2.70    0.58
  13   6  13    3.34    0.76
  14   6  13    7.71    1.09
  15   6  13    2.14    1.02
  16   6  13   -0.37    1.18
  17   6  13    0.29    1.34
  18   6  13    1.98    1.48
  19   6  13    1.63    1.65
   9  -7 -13   -2.24    1.77
   8  -7 -13   11.11    1.68
   7  -7 -13   15.36    2.15
   6  -7 -13   -1.56    1.33
   5  -7 -13    1.41    1.15
   4  -7 -13    6.24    1.06
   3  -7 -13    9.10    1.39
   2  -7 -13    8.30    1.51
   2  -7 -13    7.39    1.34
   1  -7 -13    4.58    1.13
   0  -7 -13    1.14    1.01
  -1  -7 -13   23.77    1.58
  -2  -7 -13   17.60    1.50
  -3  -7 -13    3.38    0.96
  -4  -7 -13    0.93    0.91
  -5  -7 -13    4.45    0.92
  -6  -7 -13    9.46    1.17
  -7  -7 -13    0.57    0.90
  -8  -7 -13    0.83    0.94
  -9  -7 -13    0.18    0.97
 -10  -7 -13    1.50    1.03
  10   7  13    2.07    0.62
  11   7  13   26.46    1.30
  11   7  13   22.84    1.24
  12   7  13    0.19    0.71
  12   7  13    0.30    0.52
  13   7  13    0.82    0.55
  13   7  13    3.11    0.80
  14   7  13    0.75    0.86
  14   7  13    0.12    0.62
  16   7  13   -0.37    0.78
  16   7  13   -0.02    1.16
  18   7  13   -0.77    1.50
  19   7  13    0.46    1.72
   8  -8 -13   -0.23    1.80
   7  -8 -13    3.69    1.59
   6  -8 -13   15.20    2.12
   5  -8 -13   -2.09    1.32
   4  -8 -13    0.62    1.13
   3  -8 -13    0.56    1.02
   3  -8 -13    2.63    1.48
   2  -8 -13    2.16    1.35
   2  -8 -13    2.23    0.91
   1  -8 -13    2.45    1.25
   0  -8 -13    1.65    1.16
  -1  -8 -13   10.51    1.43
  -2  -8 -13   28.37    1.75
  -3  -8 -13   14.03    1.39
  -4  -8 -13    4.42    1.00
  -5  -8 -13   -0.65    0.96
  -6  -8 -13   -0.38    0.97
  -7  -8 -13   -0.21    0.97
  -8  -8 -13    0.39    1.00
  -9  -8 -13    0.68    1.02
 -10  -8 -13   19.84    1.58
  10   8  13   21.64    1.21
  11   8  13    1.64    0.53
  12   8  13    0.40    0.55
  13   8  13    1.29    0.59
  13   8  13    1.18    0.81
  14   8  13    6.93    0.71
  15   8  13   -0.99    0.73
  15   8  13   -1.57    0.99
  16   8  13   -0.48    0.80
  16   8  13    0.19    1.14
  17   8  13    0.38    1.33
  17   8  13   -1.80    0.90
  18   8  13    3.30    1.51
   8  -9 -13    0.26    1.86
   7  -9 -13    0.24    1.73
   6  -9 -13    2.84    1.60
   5  -9 -13    0.31    1.47
   4  -9 -13    0.93    1.30
   3  -9 -13    9.53    1.71
   3  -9 -13   11.13    1.71
   2  -9 -13    2.90    1.05
   2  -9 -13    3.88    1.50
   1  -9 -13    3.49    1.03
   0  -9 -13    0.54    1.30
  -1  -9 -13   22.76    1.81
  -2  -9 -13   14.78    1.60
  -3  -9 -13   -0.92    1.10
  -4  -9 -13    2.81    1.07
  -5  -9 -13    2.21    1.03
  -6  -9 -13    7.68    1.33
  -7  -9 -13    0.49    1.02
  -8  -9 -13    0.71    1.04
  -9  -9 -13    1.35    1.07
 -10  -9 -13    3.47    1.12
  11   9  13    2.74    0.58
  12   9  13    0.24    0.59
  13   9  13    0.55    0.62
  14   9  13    0.64    0.67
  15   9  13    1.67    0.75
  16   9  13    0.03    0.85
  17   9  13   -1.43    0.94
   7 -10 -13   -2.13    1.83
   2 -10 -13   29.92    2.40
   1 -10 -13    6.38    1.60
   0 -10 -13    0.51    1.48
  -1 -10 -13    2.92    1.41
  -2 -10 -13   -0.03    1.31
  -3 -10 -13    2.96    1.22
  -4 -10 -13    2.48    1.15
  -5 -10 -13    0.65    1.15
  -6 -10 -13    2.30    1.13
  -7 -10 -13   15.53    1.54
  -8 -10 -13    3.54    1.14
  -9 -10 -13    3.16    1.13
 -10 -10 -13   13.88    1.51
 -11 -10 -13    3.94    1.20
  11  10  13    2.37    0.62
  12  10  13    3.31    0.65
  13  10  13    0.04    0.68
  14  10  13    1.55    0.73
  15  10  13   -1.48    0.77
  16  10  13   -0.29    0.88
  17  10  13   -1.96    1.00
  18  10  13   -1.91    1.10
   3 -11 -13    9.76    2.02
   2 -11 -13    8.10    1.90
   1 -11 -13    0.19    1.82
   0 -11 -13    1.82    1.71
  -1 -11 -13   11.83    1.96
  -2 -11 -13    0.21    1.46
  -3 -11 -13    5.51    1.41
  -4 -11 -13    0.85    1.34
  -5 -11 -13    3.93    1.29
  -6 -11 -13   10.41    1.55
  -7 -11 -13   11.56    1.54
  -8 -11 -13    4.06    1.23
  -9 -11 -13    1.42    1.23
 -10 -11 -13    1.71    1.24
 -11 -11 -13    1.78    1.26
 -12 -11 -13    2.66    1.28
  12  11  13    1.82    0.70
  13  11  13    0.49    0.72
  14  11  13    0.34    0.77
  15  11  13    1.70    0.84
  16  11  13   -0.98    0.91
  17  11  13   -0.45    1.03
  18  11  13   -1.77    1.18
   3 -12 -13    1.63    2.21
   2 -12 -13   12.20    2.15
   1 -12 -13    0.89    1.99
   0 -12 -13    0.65    1.93
  -1 -12 -13    0.12    1.84
  -2 -12 -13    0.84    1.73
  -3 -12 -13    5.49    1.59
  -4 -12 -13    3.54    1.47
  -5 -12 -13    5.80    1.46
  -6 -12 -13    8.98    1.69
  -7 -12 -13    8.83    1.67
  -8 -12 -13    2.49    1.35
  -9 -12 -13    0.54    1.35
 -10 -12 -13   -0.50    1.35
 -11 -12 -13    0.55    1.37
 -12 -12 -13    2.17    1.42
  12  12  13    0.36    0.72
  13  12  13    1.12    0.78
  14  12  13    1.08    0.84
  15  12  13    1.93    0.89
  16  12  13   -0.07    0.95
  17  12  13    0.07    1.07
   3 -13 -13    3.71    2.46
   2 -13 -13   -1.34    2.32
   1 -13 -13   -1.69    2.20
   0 -13 -13    0.48    2.09
  -1 -13 -13    2.87    1.96
  -2 -13 -13    0.79    1.95
  -3 -13 -13    2.89    1.84
  -4 -13 -13   20.91    2.24
  -5 -13 -13    0.87    1.65
  -6 -13 -13    2.42    1.55
  -7 -13 -13    4.55    1.52
  -8 -13 -13    1.32    1.46
  -9 -13 -13    1.64    1.43
 -10 -13 -13    2.04    1.44
 -11 -13 -13    1.26    1.46
  13  13  13    0.80    0.84
  14  13  13    1.05    0.89
  15  13  13   -0.64    0.97
  16  13  13    1.67    1.04
  17  13  13    1.42    1.15
   2 -14 -13    3.57    2.52
   1 -14 -13    2.09    2.47
   0 -14 -13    2.00    2.34
  -1 -14 -13    4.76    2.26
  -2 -14 -13   15.61    2.54
  -3 -14 -13    8.47    2.07
  -4 -14 -13   -1.94    1.92
  -5 -14 -13   -1.87    1.84
  -6 -14 -13    0.02    1.79
  -7 -14 -13   -0.40    1.73
  -8 -14 -13    0.01    1.70
  -9 -14 -13    1.37    1.65
 -10 -14 -13    2.88    1.65
 -11 -14 -13    2.62    1.64
 -12 -14 -13    1.32    1.67
  13  14  13    0.23    0.90
  14  14  13    2.35    0.96
  15  14  13    2.13    1.02
  16  14  13   -1.54    1.12
   0 -15 -13    2.85    2.63
  -1 -15 -13    0.32    2.53
  -2 -15 -13    8.58    2.45
  -3 -15 -13    3.50    2.32
  -4 -15 -13    7.84    2.23
  -5 -15 -13    1.65    2.07
  -6 -15 -13   -1.45    1.96
  -7 -15 -13   -0.92    1.88
  -8 -15 -13   -0.86    1.84
  -9 -15 -13    4.24    1.81
 -10 -15 -13    0.15    1.78
 -11 -15 -13    2.80    1.76
 -12 -15 -13    2.94    1.81
 -13 -15 -13   -3.23    1.83
  14  15  13    0.41    1.02
  15  15  13    2.58    1.10
  -2 -16 -13   -0.83    2.73
  -3 -16 -13    3.40    2.61
  -4 -16 -13    0.18    2.50
  -5 -16 -13    2.01    2.37
  -6 -16 -13    1.03    2.29
  -7 -16 -13    1.73    2.16
  -8 -16 -13    3.60    2.08
  -9 -16 -13    1.88    1.99
 -10 -16 -13    3.57    1.96
 -11 -16 -13    5.65    1.97
 -12 -16 -13    2.78    1.97
 -13 -16 -13    3.70    2.01
  -4 -17 -13    0.58    2.80
  -5 -17 -13   -3.70    2.69
  -6 -17 -13    0.04    2.56
  -7 -17 -13   -1.48    2.44
  -8 -17 -13    2.61    2.39
  -9 -17 -13    3.38    2.27
 -10 -17 -13    1.26    2.18
 -11 -17 -13   -0.12    2.18
   4  16 -14    0.18    1.15
  -4 -16  14    5.80    3.02
  -3 -16  14    3.56    2.97
  -2 -16  14   -0.86    3.03
  -1 -16  14    0.29    3.13
   0 -16  14    2.31    3.24
   7  15 -14    2.30    1.15
  -6 -15  14    4.78    2.89
  -5 -15  14    9.28    2.85
  -4 -15  14    7.71    2.73
   3  15 -14    0.11    1.00
  -3 -15  14    5.13    2.80
  -2 -15  14    1.81    2.77
  -1 -15  14    2.05    2.82
   0 -15  14    2.43    2.88
   1 -15  14    1.62    2.98
   2 -15  14    4.26    3.07
   3 -15  14    1.14    3.17
   9  14 -14    1.00    1.20
   8  14 -14   -1.79    1.10
   7  14 -14   -1.48    1.04
   6  14 -14    0.12    0.97
  -5 -14  14    3.32    2.56
  -4 -14  14    5.61    2.54
  -3 -14  14    6.29    2.54
   2  14 -14   -0.26    0.90
  -2 -14  14    1.04    2.54
  -1 -14  14    2.22    2.57
   0 -14  14    1.52    2.63
   1 -14  14    2.42    2.67
   2 -14  14    1.52    2.71
   3 -14  14    4.79    2.83
   4 -14  14   -0.97    3.00
   5 -14  14   -0.66    3.10
   6 -14  14    5.52    3.23
  10  13 -14   -1.44    1.20
   9  13 -14    1.03    1.11
   8  13 -14   -0.54    1.02
   7  13 -14    0.81    0.96
   6  13 -14   -0.56    0.90
  -5 -13  14    6.77    2.32
  -4 -13  14    2.26    2.33
  -3 -13  14    5.06    2.35
  -2 -13  14    5.36    2.35
  -1 -13  14    5.09    2.38
   0 -13  14    0.73    2.37
   1 -13  14    0.84    2.42
   2 -13  14    1.36    2.49
   3 -13  14    1.05    2.57
   4 -13  14    8.02    2.69
   5 -13  14    5.22    2.80
   6 -13  14    6.95    2.94
   7 -13  14    7.44    3.11
  10  12 -14   -1.72    1.11
   9  12 -14    0.58    1.03
   8  12 -14    2.80    0.96
   7  12 -14   -0.93    0.87
   6  12 -14   -0.61    0.81
   5  12 -14    0.16    0.77
  -5 -12  14    1.89    2.11
   4  12 -14   -0.36    0.74
  -4 -12  14    0.96    2.11
   3  12 -14    0.72    0.71
  -3 -12  14    4.57    2.17
  -1 -12  14    3.23    2.15
   0 -12  14    4.97    2.19
   1 -12  14    4.61    2.23
   2 -12  14    1.89    2.26
   3 -12  14    4.27    2.34
   4 -12  14    3.80    2.41
   5 -12  14    6.43    2.56
   6 -12  14    8.92    2.67
   7 -12  14    3.08    2.81
   8 -12  14    7.75    2.97
   9 -12  14    1.33    3.09
  11  11 -14    0.93    1.13
  10  11 -14    1.52    1.07
   9  11 -14    1.22    0.98
   8  11 -14    0.06    0.91
   7  11 -14    0.97    0.83
   6  11 -14    0.29    0.78
   5  11 -14    0.88    0.71
   4  11 -14   -0.20    0.67
  -4 -11  14    1.37    1.91
   3  11 -14    1.02    0.65
  -3 -11  14    0.72    1.89
  -2 -11  14    3.55    1.90
  -1 -11  14    9.06    2.00
   0 -11  14    4.03    1.96
   1 -11  14    5.85    1.99
   2 -11  14    4.38    2.00
   3 -11  14    2.53    2.05
   4 -11  14    8.44    2.17
   5 -11  14    9.78    2.31
   6 -11  14    4.19    2.41
   7 -11  14    2.59    2.53
   8 -11  14    3.28    2.59
   9 -11  14    2.93    2.75
  10 -11  14   -2.27    2.83
  12  10 -14   -0.80    1.14
  11  10 -14    0.93    1.06
  10  10 -14    1.14    0.99
   9  10 -14    0.97    0.92
   8  10 -14    1.27    0.85
   7  10 -14    0.88    0.76
   6  10 -14   -0.17    0.73
   5  10 -14    1.61    0.66
   4  10 -14    3.58    0.64
  -4 -10  14    7.23    1.76
  -3 -10  14    4.01    1.76
   2  10 -14    0.01    0.56
  -2 -10  14   -1.44    1.71
   1  10 -14    0.52    0.54
  -1 -10  14   -0.21    1.74
   0  10 -14    5.91    1.05
   0 -10  14    8.58    1.77
   1 -10  14   11.58    2.18
   2 -10  14    5.53    1.81
   3 -10  14    3.01    1.84
   4 -10  14    7.29    1.96
   5 -10  14    2.41    2.05
   6 -10  14    4.69    2.17
   7 -10  14   -0.88    2.20
   8 -10  14    7.74    2.35
   9 -10  14   -1.47    2.42
  10 -10  14    2.44    2.58
  11 -10  14    6.20    2.69
  12   9 -14    0.61    1.07
  11   9 -14    1.09    0.98
  10   9 -14    2.03    0.94
   9   9 -14    0.41    0.85
   8   9 -14    0.46    0.77
   7   9 -14    2.44    0.73
   6   9 -14    2.14    0.68
   5   9 -14    1.26    0.61
   4   9 -14    0.47    0.59
   3   9 -14    7.44    0.95
   2   9 -14    2.77    0.51
  -2  -9  14    6.06    1.62
   1   9 -14    2.70    0.56
  -1  -9  14    4.55    1.64
   0   9 -14    0.10    0.51
   0  -9  14   -0.69    1.54
   1  -9  14   -0.21    1.55
   2  -9  14   -0.47    1.58
   3  -9  14    7.21    1.62
   4  -9  14    0.44    1.67
   5  -9  14    4.56    1.79
   6  -9  14    0.69    1.90
   7  -9  14    1.10    1.96
   8  -9  14   -1.69    2.08
   9  -9  14    3.82    2.23
  10  -9  14    3.87    2.32
  12   8 -14    1.41    1.04
  11   8 -14   -0.64    0.95
  10   8 -14   -0.99    0.88
   9   8 -14    0.17    0.82
   8   8 -14    3.84    0.77
   7   8 -14   -0.16    0.68
   6   8 -14    0.46    0.64
   5   8 -14    1.66    0.57
   4   8 -14    5.23    0.96
  -3  -8  14    1.78    1.39
   2   8 -14    0.57    0.46
  -2  -8  14   -0.52    1.41
   1   8 -14    0.76    0.46
  -1  -8  14   -0.55    1.40
   0   8 -14    1.98    0.46
   0  -8  14    4.77    1.48
   1  -8  14    1.98    1.47
   2  -8  14    1.73    1.45
   3  -8  14   -1.44    1.45
   4  -8  14    0.68    1.52
   5  -8  14    3.07    1.60
   6  -8  14   25.61    2.25
   7  -8  14    3.43    1.81
   8  -8  14    4.13    1.92
   9  -8  14    0.96    2.02
  10  -8  14    1.11    2.09
  11  -8  14    5.58    2.23
   5   7 -14    1.28    0.56
   4   7 -14    0.69    0.51
   3   7 -14    2.07    0.47
  -3  -7  14    3.28    1.28
   2   7 -14    7.77    0.89
  -2  -7  14    9.52    1.55
  -1  -7  14    2.39    1.22
   0   7 -14    1.07    0.41
   0  -7  14    0.84    1.28
   1  -7  14    0.22    1.26
   2  -7  14    8.41    1.35
   3  -7  14    1.00    1.35
   4  -7  14    0.04    1.38
   5  -7  14   14.11    1.85
   6  -7  14   -0.58    1.52
   7  -7  14   -0.14    1.57
   8  -7  14    2.14    1.69
   9  -7  14    1.64    1.80
  10  -7  14    2.85    1.90
  10  -7  14    1.96    0.99
  13  -7  14    4.33    1.32
  14  -7  14    3.66    1.46
   2   6 -14    0.79    0.47
  -2  -6  14    1.77    1.04
   1   6 -14   11.74    0.84
  -1  -6  14   11.97    1.50
   0   6 -14    1.41    0.37
   1  -6  14    2.90    1.02
   2  -6  14    0.59    1.09
   3  -6  14    0.26    1.16
   4  -6  14   13.31    1.59
   5  -6  14    0.97    1.26
   6  -6  14    6.04    1.35
   7  -6  14   10.70    1.77
   8  -6  14    2.54    1.49
   9  -6  14    0.57    0.84
   9  -6  14    3.81    1.58
  10  -6  14    0.58    1.76
  10  -6  14    0.76    0.88
  11  -6  14    1.50    1.93
  11  -6  14   -0.43    1.01
  14  -6  14    2.03    1.34
  -3  -5  14    3.05    1.05
  -2  -5  14   16.92    1.53
  -1  -5  14    2.38    0.98
   0   5 -14    0.58    0.35
   0  -5  14    1.14    0.90
   1  -5  14    4.91    1.02
   2  -5  14   16.48    1.47
   3  -5  14    1.52    0.99
   4  -5  14   -0.20    0.99
   5  -5  14    1.57    1.07
   6  -5  14    1.16    0.60
   6  -5  14    1.81    1.12
   7  -5  14    0.89    0.68
   7  -5  14    1.02    1.23
   8  -5  14    0.86    1.36
   9  -5  14    4.18    1.51
  10  -5  14    8.49    1.68
  10  -5  14    6.81    1.17
  11  -5  14   -1.13    0.91
  12  -5  14    1.70    1.00
  13  -5  14    0.21    1.11
  14  -5  14    4.73    1.28
  15  -5  14    2.29    1.40
  12   4 -14   -0.90    1.60
  11   4 -14    0.29    1.64
   9   4 -14    0.51    1.32
   8   4 -14    9.40    1.38
   7   4 -14    0.27    0.83
  -2  -4  14   -0.54    0.94
  -1  -4  14   22.81    1.48
   0  -4  14    0.70    0.93
   1  -4  14    9.88    1.24
   2  -4  14   22.81    1.50
   3  -4  14    0.52    0.84
   4  -4  14   -0.18    0.46
   4  -4  14    0.67    0.83
   5  -4  14    1.29    0.54
   5  -4  14    1.14    1.02
   6  -4  14    4.59    1.10
   6  -4  14    4.40    0.86
   7  -4  14    1.57    1.04
   7  -4  14    1.10    0.63
   8  -4  14    3.76    1.17
   8  -4  14    3.40    0.67
   9  -4  14    2.20    1.31
   9  -4  14    1.31    0.68
  10  -4  14    0.69    0.77
  10  -4  14    1.18    1.45
  11  -4  14   14.35    1.30
  12  -4  14    0.14    0.91
  13  -4  14    2.38    1.04
  14  -4  14    2.68    1.20
  15  -4  14    4.57    1.35
  16  -4  14    1.40    1.48
  12   3 -14   -1.67    1.67
  11   3 -14   11.50    1.72
  10   3 -14    2.28    1.46
   9   3 -14    1.87    1.32
   8   3 -14    0.60    1.11
   7   3 -14    1.63    0.83
   6   3 -14    8.79    1.09
   2   3 -14   20.37    1.46
   1  -3  14    1.20    0.79
   2  -3  14   -0.27    0.76
   3  -3  14    2.50    0.76
   4  -3  14    0.54    0.43
   4  -3  14    0.89    0.89
   5  -3  14    2.42    0.93
   5  -3  14    3.79    0.74
   6  -3  14    6.81    1.10
   6  -3  14    6.67    0.84
   7  -3  14    1.24    0.57
   7  -3  14    0.13    1.05
   8  -3  14    0.04    0.62
   8  -3  14    0.00    1.15
   9  -3  14    0.36    0.63
   9  -3  14    0.50    1.26
  10  -3  14   34.53    1.62
  10  -3  14   32.00    2.08
  11  -3  14    0.62    0.81
  12  -3  14    8.47    1.22
  13  -3  14    3.03    0.99
  14  -3  14    3.84    1.12
  15  -3  14    1.23    1.26
  16  -3  14    1.26    1.40
  12   2 -14   -1.86    1.67
  11   2 -14   -0.15    1.68
  10   2 -14    1.10    1.46
   9   2 -14   -1.13    1.32
   8   2 -14    6.91    1.13
   7   2 -14   -0.36    0.84
   6   2 -14    1.45    0.76
   3   2 -14   14.00    1.18
   2   2 -14    2.97    0.87
   1   2 -14    7.86    0.75
   1   2 -14    6.11    1.04
   0   2 -14   -0.52    0.79
   0   2 -14   -0.20    0.63
   4  -2  14    2.09    0.74
   5  -2  14    1.46    0.49
   5  -2  14    1.85    0.78
   6  -2  14   11.30    0.93
   6  -2  14   13.77    1.27
   7  -2  14   14.31    0.95
   7  -2  14   14.44    1.35
   8  -2  14    1.26    0.57
   8  -2  14    2.61    1.01
   9  -2  14    0.64    1.11
   9  -2  14   -0.07    0.59
  10  -2  14    1.18    0.69
  11  -2  14    7.58    1.09
  12  -2  14   -0.98    0.82
  13  -2  14    0.97    0.92
  14  -2  14    2.12    1.06
  15  -2  14    3.31    1.20
  16  -2  14    1.37    1.37
  17  -2  14    4.19    1.51
  12   1 -14    0.10    1.75
  11   1 -14    0.33    1.59
  10   1 -14    1.08    1.49
   9   1 -14    0.27    1.31
   8   1 -14    2.62    1.10
   7   1 -14    7.63    1.33
   6   1 -14   24.54    1.47
   5   1 -14    1.74    0.77
   2   1 -14    5.91    1.02
   1   1 -14    0.48    0.73
   1   1 -14    1.38    0.59
   0   1 -14    1.33    0.75
   0   1 -14    1.00    0.59
  -1   1 -14    2.04    0.77
  -1   1 -14    1.78    0.60
  -2   1 -14    0.42    0.78
  -2   1 -14   -0.52    0.61
  -3   1 -14    5.74    1.06
  -3   1 -14    6.72    0.69
  -4   1 -14    5.40    0.91
  -4   1 -14    3.95    0.67
   5  -1  14    6.97    0.70
   6  -1  14   12.16    0.87
   7  -1  14    6.70    0.76
   8  -1  14    8.50    0.88
   9  -1  14    0.36    0.56
 -10   1 -14    2.04    1.31
 -10   1 -14    2.10    0.85
  10  -1  14    2.21    0.66
  11  -1  14    1.79    0.70
  12  -1  14    4.03    0.83
  13  -1  14   -0.06    0.86
  14  -1  14   12.10    1.44
  15  -1  14    1.83    1.14
  16  -1  14    2.52    1.31
  17  -1  14    2.04    1.45
  12   0 -14   -2.47    1.85
  11   0 -14    1.83    1.66
  10   0 -14    0.85    1.52
   9   0 -14    4.01    1.35
   8   0 -14    2.20    1.16
   7   0 -14    3.99    0.92
   6   0 -14    1.78    0.80
   5   0 -14   16.28    1.27
   2   0 -14    1.31    0.79
   1   0 -14    7.97    1.01
   0   0 -14    6.05    0.92
  -1   0 -14   15.06    1.15
  -1   0 -14   14.47    0.81
  -2   0 -14    6.49    0.83
  -2   0 -14    5.89    0.58
  -3   0 -14    9.79    0.75
  -3   0 -14   10.96    1.09
  -4   0 -14    9.34    1.04
  -4   0 -14    7.40    0.74
  -5   0 -14    5.29    1.06
  -5   0 -14    5.87    0.67
   5   0  14    5.14    0.66
  -6   0 -14    1.43    0.86
  -6   0 -14    1.60    0.65
  -7   0 -14    4.06    0.95
   7   0  14    4.85    0.73
  -8   0 -14    2.27    0.72
  -8   0 -14    4.58    1.02
   8   0  14    4.02    0.78
  -9   0 -14   -0.66    1.07
  -9   0 -14   -0.33    0.75
   9   0  14   -0.41    0.57
 -10   0 -14    6.61    0.95
 -10   0 -14    9.33    1.32
  10   0  14    9.66    0.92
  11   0  14    5.66    0.79
  12   0  14    0.02    0.76
  13   0  14    0.57    0.83
  14   0  14    0.58    0.95
  15   0  14    5.16    1.13
  16   0  14    3.55    1.27
  17   0  14    2.44    1.44
  11  -1 -14   -2.38    1.73
  10  -1 -14    3.87    1.59
   9  -1 -14    1.11    1.36
   8  -1 -14    1.39    1.21
   7  -1 -14    1.92    0.97
   6  -1 -14   20.13    1.44
   5  -1 -14    1.50    0.77
   2  -1 -14   19.75    1.36
   1  -1 -14    7.67    1.06
   0  -1 -14   10.45    1.11
  -1  -1 -14   12.83    1.11
  -2  -1 -14   11.15    1.00
  -3  -1 -14   28.32    1.55
  -4  -1 -14    3.83    0.77
  -4  -1 -14    3.90    0.59
  -5  -1 -14    1.20    0.73
  -5  -1 -14    1.33    0.56
  -6  -1 -14    2.44    0.70
  -6  -1 -14    1.85    0.52
   6   1  14    2.80    0.49
  -7  -1 -14    1.91    0.75
  -7  -1 -14    2.09    0.55
   7   1  14    2.26    0.51
  -8  -1 -14    6.77    0.68
  -8  -1 -14    7.12    1.09
   8   1  14    7.62    0.75
  -9  -1 -14    1.07    0.89
   9   1  14   -0.33    0.53
 -10  -1 -14    5.48    1.13
 -10  -1 -14    6.80    0.83
  10   1  14    5.24    0.84
 -11  -1 -14    1.75    1.22
  11   1  14    0.50    0.65
  12   1  14    1.31    0.73
  13   1  14    0.21    0.82
  14   1  14    6.84    1.33
  15   1  14    1.34    1.06
  16   1  14    0.42    1.21
  17   1  14    6.75    1.42
  18   1  14    3.44    1.58
  11  -2 -14   -0.08    1.78
  10  -2 -14    4.44    1.66
   9  -2 -14    8.61    1.46
   7  -2 -14    3.65    1.03
   6  -2 -14    0.65    0.89
   5  -2 -14    1.01    0.78
   2  -2 -14    2.21    0.85
   1  -2 -14   18.37    1.35
   0  -2 -14   36.16    1.79
  -1  -2 -14    0.78    0.72
  -2  -2 -14   20.85    1.35
  -3  -2 -14    4.66    0.95
  -4  -2 -14    0.64    0.71
  -5  -2 -14    2.92    0.75
  -6  -2 -14    1.26    0.74
   6   2  14    0.35    0.41
  -7  -2 -14    8.92    1.08
   7   2  14    7.98    0.78
  -8  -2 -14    0.66    0.85
   8   2  14    0.66    0.49
   9   2  14    3.88    0.61
 -10  -2 -14    1.21    1.02
  10   2  14    0.36    0.59
  11   2  14   12.30    1.02
  12   2  14    9.56    1.13
  13   2  14    0.74    0.81
  14   2  14    1.20    0.92
  15   2  14   -0.84    1.03
  16   2  14    6.52    1.22
  17   2  14    1.36    1.36
  18   2  14    0.97    1.55
  11  -3 -14   -0.45    1.89
  10  -3 -14    1.37    1.72
   9  -3 -14    4.02    1.52
   8  -3 -14   -0.78    1.33
   7  -3 -14    2.32    1.12
   6  -3 -14    1.53    0.98
   5  -3 -14    1.74    0.86
   4  -3 -14    1.49    0.79
   2  -3 -14   13.17    1.32
   1  -3 -14   35.94    1.84
   0  -3 -14    1.19    0.82
  -1  -3 -14   -0.57    0.78
  -2  -3 -14    4.95    0.96
  -3  -3 -14   10.02    0.98
  -4  -3 -14    0.66    0.71
  -5  -3 -14    1.52    0.70
  -6  -3 -14    8.71    1.08
  -7  -3 -14    8.01    1.08
   7   3  14    8.91    0.81
  -8  -3 -14   14.79    1.26
   8   3  14   12.70    0.96
  -9  -3 -14    1.35    0.90
   9   3  14    0.76    0.49
  10   3  14    1.66    0.59
  11   3  14    3.01    0.64
  12   3  14    0.03    0.67
  13   3  14    3.91    0.84
  14   3  14    1.71    0.92
  15   3  14   -0.71    1.04
  16   3  14   -0.03    1.19
  17   3  14    3.89    1.35
  18   3  14    0.17    1.50
  10  -4 -14    0.03    1.81
   9  -4 -14   -0.27    1.63
   8  -4 -14   -1.34    1.41
   7  -4 -14    0.55    1.26
   6  -4 -14   -0.12    1.05
   5  -4 -14    1.97    0.93
   4  -4 -14    6.40    1.18
   1  -4 -14    7.96    1.23
   0  -4 -14   33.74    1.80
  -1  -4 -14    0.19    0.83
  -2  -4 -14    1.02    0.82
  -3  -4 -14   -0.25    0.79
  -4  -4 -14    0.67    0.78
  -5  -4 -14   -0.40    0.77
  -6  -4 -14   16.38    1.24
  -7  -4 -14    1.90    0.78
   7   4  14    1.05    0.45
  -8  -4 -14   25.04    1.50
   8   4  14   24.06    1.20
  -9  -4 -14    2.03    0.91
   9   4  14    2.45    0.55
 -10  -4 -14    2.41    0.99
  10   4  14    1.51    0.55
  11   4  14    0.60    0.62
  12   4  14    8.84    1.06
  13   4  14    0.49    0.75
  14   4  14    8.63    1.36
  15   4  14    1.21    1.04
  16   4  14    4.58    1.24
  17   4  14   -0.79    1.35
  18   4  14    1.19    1.52
  10  -5 -14   -1.26    1.89
   9  -5 -14    2.42    1.74
   8  -5 -14    4.36    1.55
   7  -5 -14   -1.63    1.38
   6  -5 -14   13.51    1.74
   5  -5 -14    8.90    1.55
   4  -5 -14    8.68    1.39
   3  -5 -14    1.22    0.88
   2  -5 -14    7.27    1.39
   1  -5 -14    8.18    1.34
   0  -5 -14    2.57    0.96
  -1  -5 -14    1.27    0.89
  -2  -5 -14    0.22    0.90
  -3  -5 -14   24.61    1.54
  -4  -5 -14    2.54    0.84
  -5  -5 -14    9.31    1.16
  -6  -5 -14    0.00    0.86
  -7  -5 -14    2.17    0.91
  -8  -5 -14    1.84    0.94
   8   5  14    1.95    0.50
  -9  -5 -14    0.44    1.00
 -10  -5 -14    0.01    1.05
  11   5  14    0.80    0.64
  12   5  14    1.43    0.55
  12   5  14    2.02    0.71
  13   5  14    1.93    0.57
  13   5  14    1.82    0.78
  14   5  14    0.09    0.87
  15   5  14    1.51    1.06
  16   5  14    1.57    1.18
  17   5  14    1.09    1.36
  18   5  14    0.10    1.55
   9  -6 -14   -0.30    1.83
   8  -6 -14    3.08    1.66
   7  -6 -14   -1.94    1.49
   6  -6 -14   -1.55    1.32
   5  -6 -14   20.90    1.80
   4  -6 -14   13.64    1.59
   3  -6 -14    1.10    0.94
   2  -6 -14   -0.47    1.10
   1  -6 -14    1.51    1.10
   0  -6 -14   14.00    1.49
  -1  -6 -14    7.61    1.10
  -2  -6 -14    4.76    1.01
  -3  -6 -14    4.85    0.96
  -4  -6 -14   24.49    1.58
  -5  -6 -14    5.86    1.15
  -6  -6 -14    3.65    0.97
  -7  -6 -14   22.00    1.52
  -8  -6 -14    0.21    0.98
   8   6  14    0.14    0.54
  -9  -6 -14    0.18    1.02
   9   6  14    1.04    0.60
 -10  -6 -14    0.90    1.06
  10   6  14    2.49    0.66
 -11  -6 -14    1.11    1.13
  11   6  14    0.83    0.64
  12   6  14    2.52    0.59
  12   6  14    4.10    0.74
  13   6  14    1.84    0.81
  13   6  14    1.35    0.63
  14   6  14    1.49    0.59
  14   6  14    0.47    0.89
  15   6  14    0.66    1.00
  16   6  14    6.97    1.23
  17   6  14    3.13    1.34
  18   6  14    1.85    1.55
   8  -7 -14    0.01    1.80
   7  -7 -14    7.06    1.64
   6  -7 -14    2.29    1.48
   5  -7 -14   15.25    1.89
   4  -7 -14    1.52    1.13
   3  -7 -14    2.93    1.03
   2  -7 -14    1.12    1.27
   2  -7 -14    2.78    1.00
   1  -7 -14    7.90    1.49
   0  -7 -14    0.24    1.10
  -1  -7 -14    2.36    1.12
  -2  -7 -14    0.71    1.08
  -3  -7 -14   26.95    1.72
  -4  -7 -14   16.63    1.49
  -5  -7 -14    5.66    1.05
  -6  -7 -14    0.74    0.97
  -7  -7 -14   -0.88    0.98
  -8  -7 -14    0.57    1.00
  -9  -7 -14    1.00    1.04
   9   7  14    1.62    0.63
 -10  -7 -14    0.43    1.09
  10   7  14    2.05    0.64
 -11  -7 -14   -1.34    1.14
  12   7  14    0.40    0.55
  12   7  14    1.94    0.72
  13   7  14    7.54    1.07
  13   7  14    8.69    1.26
  14   7  14    1.19    0.64
  14   7  14    0.94    0.93
  15   7  14    0.54    0.69
  15   7  14    2.63    1.03
  16   7  14    0.11    1.16
  17   7  14    0.44    1.35
  18   7  14    2.99    1.55
   8  -8 -14    1.95    1.94
   7  -8 -14    0.41    1.76
   6  -8 -14   -1.18    1.58
   5  -8 -14   -0.80    1.46
   4  -8 -14    0.92    1.25
   3  -8 -14    3.11    1.14
   2  -8 -14    2.17    1.03
   2  -8 -14    2.77    1.43
   1  -8 -14    1.69    1.32
   0  -8 -14   15.82    1.69
  -1  -8 -14   10.54    1.50
  -2  -8 -14    0.38    1.12
  -3  -8 -14   -0.37    1.03
  -4  -8 -14   34.16    2.00
  -5  -8 -14    2.35    1.07
  -6  -8 -14    0.66    1.06
  -7  -8 -14    2.57    1.07
  -8  -8 -14    1.09    1.08
  -9  -8 -14    4.11    1.13
 -10  -8 -14    0.92    1.15
  10   8  14    0.86    0.74
 -11  -8 -14   -0.09    1.20
  11   8  14    0.95    0.71
  12   8  14    7.92    1.06
  13   8  14    0.93    0.61
  14   8  14   -0.24    0.67
  15   8  14    3.34    1.03
  15   8  14    0.74    0.73
  16   8  14   -0.38    0.82
  16   8  14    2.98    1.17
   7  -9 -14    0.12    1.91
   6  -9 -14    3.30    1.74
   5  -9 -14   -0.63    1.61
   4  -9 -14    1.16    1.41
   3  -9 -14    2.13    1.28
   2  -9 -14    2.65    1.65
   1  -9 -14   16.07    1.74
   1  -9 -14   15.18    1.99
   0  -9 -14   14.04    1.81
  -1  -9 -14    2.80    1.31
  -2  -9 -14    1.40    1.25
  -3  -9 -14    2.23    1.19
  -4  -9 -14    0.45    1.13
  -5  -9 -14    2.09    1.13
  -6  -9 -14    7.92    1.20
  -7  -9 -14    2.55    1.10
  -8  -9 -14    8.14    1.41
  -9  -9 -14    9.14    1.50
 -10  -9 -14    2.19    1.19
 -11  -9 -14    0.34    1.25
  12   9  14    0.42    0.61
  13   9  14    1.39    0.67
  14   9  14   -0.30    0.72
  15   9  14    2.39    0.79
  16   9  14   -0.94    0.84
   6 -10 -14   -3.59    1.87
   5 -10 -14    1.61    1.75
   3 -10 -14   -0.99    1.97
   2 -10 -14    2.93    1.87
   1 -10 -14    3.56    1.69
   0 -10 -14   23.27    2.14
  -1 -10 -14    8.51    1.57
  -2 -10 -14    4.59    1.40
  -3 -10 -14    1.56    1.31
  -4 -10 -14    0.89    1.28
  -5 -10 -14    4.80    1.25
  -6 -10 -14    2.72    1.22
  -7 -10 -14    3.99    1.22
  -8 -10 -14    8.15    1.50
  -9 -10 -14    7.35    1.28
 -10 -10 -14    2.99    1.23
 -11 -10 -14    2.77    1.26
  13  10  14    1.38    0.72
  14  10  14    0.16    0.76
  15  10  14    0.02    0.83
  16  10  14    1.85    0.90
  17  10  14    0.68    0.99
   5 -11 -14    0.53    1.89
   4 -11 -14    3.56    2.28
   4 -11 -14    2.71    1.77
   2 -11 -14   -3.01    2.09
   1 -11 -14   12.71    2.07
   0 -11 -14    0.40    1.79
  -1 -11 -14    1.65    1.67
  -2 -11 -14    9.47    1.99
  -3 -11 -14    2.49    1.54
  -4 -11 -14    3.28    1.42
  -5 -11 -14    2.57    1.37
  -6 -11 -14    5.96    1.39
  -7 -11 -14    2.51    1.33
  -8 -11 -14   22.94    1.88
  -9 -11 -14    2.30    1.34
 -10 -11 -14    3.98    1.37
 -11 -11 -14    1.09    1.36
  13  11  14    0.43    0.75
  14  11  14    0.66    0.81
  15  11  14    0.86    0.88
  16  11  14    0.19    0.95
  17  11  14    1.13    1.05
   4 -12 -14   12.23    2.57
   3 -12 -14    2.66    2.36
   2 -12 -14    1.84    2.21
   1 -12 -14   -1.66    2.09
   0 -12 -14   -1.57    2.05
  -1 -12 -14    3.50    1.98
  -2 -12 -14   10.26    1.85
  -3 -12 -14    2.97    1.69
  -4 -12 -14    3.55    1.64
  -5 -12 -14   25.19    2.15
  -6 -12 -14    2.78    1.54
  -7 -12 -14    1.29    1.48
  -8 -12 -14    0.68    1.46
  -9 -12 -14    2.88    1.44
 -10 -12 -14    0.55    1.44
 -11 -12 -14    0.91    1.47
 -12 -12 -14    0.57    1.50
  13  12  14    0.21    0.82
  14  12  14    1.48    0.88
  15  12  14    1.10    0.93
  16  12  14   -0.51    1.02
  17  12  14    0.82    1.11
   2 -13 -14    1.69    2.44
   1 -13 -14    2.84    2.35
   0 -13 -14    0.40    2.21
  -2 -13 -14    0.56    2.09
  -3 -13 -14    5.18    2.00
  -4 -13 -14    6.81    1.92
  -5 -13 -14    1.61    1.73
  -6 -13 -14    5.27    1.69
  -7 -13 -14    1.69    1.62
  -8 -13 -14    0.25    1.60
  -9 -13 -14    0.19    1.59
 -10 -13 -14    0.88    1.57
 -11 -13 -14    2.02    1.58
 -12 -13 -14    3.41    1.60
  14  13  14    1.14    0.91
  15  13  14    1.41    1.00
  16  13  14    2.01    1.08
   1 -14 -14    0.12    2.61
   0 -14 -14    7.10    2.51
  -1 -14 -14    6.20    2.39
  -2 -14 -14    0.97    2.26
  -3 -14 -14   -0.80    2.15
  -4 -14 -14    1.84    2.09
  -5 -14 -14    9.60    2.08
  -6 -14 -14    1.62    1.94
  -7 -14 -14    1.85    1.85
  -8 -14 -14   -0.60    1.80
  -9 -14 -14   -1.51    1.74
 -10 -14 -14   -0.75    1.72
 -11 -14 -14    0.46    1.71
 -12 -14 -14    0.72    1.77
  15  14  14    0.32    1.07
  -1 -15 -14    0.12    2.68
  -2 -15 -14    9.05    2.62
  -3 -15 -14    3.72    2.46
  -4 -15 -14    2.85    2.32
  -5 -15 -14   -0.90    2.19
  -6 -15 -14    0.10    2.12
  -7 -15 -14   -1.45    2.06
  -8 -15 -14    2.46    2.00
  -9 -15 -14    0.02    1.91
 -10 -15 -14    1.90    1.88
 -11 -15 -14   -0.11    1.86
 -12 -15 -14    0.25    1.90
 -13 -15 -14   -0.28    1.94
 -14 -15 -14    1.40    2.00
  -3 -16 -14    1.25    2.78
  -4 -16 -14    0.78    2.66
  -5 -16 -14    6.49    2.56
  -6 -16 -14    2.10    2.41
  -7 -16 -14    1.48    2.31
  -8 -16 -14   -1.05    2.19
  -9 -16 -14    2.56    2.14
 -10 -16 -14    2.61    2.09
 -11 -16 -14    1.06    2.07
 -12 -16 -14    0.62    2.09
  -7 -17 -14    3.29    2.62
  -8 -17 -14    3.60    2.50
  -9 -17 -14    3.58    2.41
   5  15 -15   -0.61    1.10
  -4 -15  15    6.86    2.95
  -3 -15  15    6.51    3.01
  -2 -15  15    8.56    3.09
  -1 -15  15    7.35    3.10
   0 -15  15    7.51    3.23
   1 -15  15    6.35    3.24
   2 -15  15    5.19    3.29
   7  14 -15   -0.86    1.14
  -6 -14  15    8.43    2.73
   5  14 -15    0.99    1.00
  -5 -14  15   -1.50    2.67
   4  14 -15   -1.28    0.95
  -4 -14  15    0.75    2.75
   3  14 -15   -1.33    0.95
  -3 -14  15    2.62    2.72
  -2 -14  15   10.14    2.82
  -1 -14  15    5.42    2.84
   0 -14  15    7.66    2.88
   1 -14  15    7.39    2.92
   2 -14  15    6.49    3.06
   3 -14  15    5.34    3.05
   4 -14  15    8.61    3.24
   5 -14  15    5.28    3.43
   9  13 -15    0.51    1.20
   8  13 -15   -0.41    1.10
   7  13 -15   -0.41    1.04
   6  13 -15    0.00    0.98
  -5 -13  15    6.10    2.45
   4  13 -15    0.42    0.88
   3  13 -15   -0.86    0.84
  -3 -13  15   -0.19    2.47
  -2 -13  15    3.76    2.52
  -1 -13  15    5.58    2.59
   0 -13  15    7.41    2.67
   1 -13  15    8.41    2.70
   2 -13  15    7.58    2.79
   3 -13  15    6.71    2.86
   4 -13  15    5.69    2.94
   5 -13  15    4.80    3.07
   6 -13  15    4.35    3.16
   7 -13  15    7.36    3.31
  10  12 -15   -0.72    1.20
   9  12 -15    0.60    1.12
   8  12 -15    0.00    1.04
   7  12 -15   -0.72    0.96
   6  12 -15    0.35    0.88
   5  12 -15    0.53    0.84
   4  12 -15    1.34    0.80
  -4 -12  15    2.18    2.23
   3  12 -15    1.81    0.75
  -3 -12  15    0.14    2.23
  -2 -12  15    1.45    2.27
   1  12 -15   -1.39    0.76
  -1 -12  15    0.20    2.28
   0 -12  15    4.74    2.40
   1 -12  15    4.54    2.42
   2 -12  15    7.71    2.49
   3 -12  15    5.72    2.54
   4 -12  15   11.65    2.68
   5 -12  15    3.99    2.76
   6 -12  15    3.50    2.85
   7 -12  15   -0.51    2.95
   8 -12  15    3.08    3.05
  10  11 -15    0.51    1.15
   9  11 -15    1.74    1.09
   8  11 -15    0.06    0.99
   7  11 -15   -0.16    0.90
   6  11 -15   -0.43    0.84
   5  11 -15    1.52    0.77
  -5 -11  15    3.21    2.00
   4  11 -15   -0.68    0.72
  -4 -11  15    0.10    2.02
   3  11 -15    0.07    0.69
  -3 -11  15    0.44    2.06
   2  11 -15    0.20    0.67
  -2 -11  15    0.38    2.08
   1  11 -15    0.13    0.65
  -1 -11  15   -0.07    2.08
   0 -11  15    5.15    2.17
   1 -11  15    0.45    2.11
   2 -11  15    3.55    2.18
   3 -11  15    7.40    2.27
   4 -11  15    0.42    2.31
   5 -11  15   -0.37    2.41
   6 -11  15    2.59    2.55
   7 -11  15   -0.11    2.62
   8 -11  15   -2.43    2.74
   9 -11  15   -1.65    2.88
  11  10 -15    1.74    1.16
  10  10 -15    1.44    1.09
   9  10 -15    0.12    1.01
   8  10 -15    0.29    0.93
   7  10 -15    0.43    0.84
   6  10 -15    1.33    0.79
   5  10 -15   -0.55    0.71
   4  10 -15    0.49    0.67
   3  10 -15    1.50    0.63
  -3 -10  15    2.83    1.85
   2  10 -15   13.35    1.15
  -1 -10  15    4.32    1.92
   0  10 -15    0.48    0.62
   0 -10  15    1.63    1.90
   1 -10  15    2.65    1.91
   2 -10  15    0.15    1.94
   3 -10  15    1.13    1.97
   4 -10  15    1.43    2.06
   5 -10  15    1.41    2.13
   6 -10  15    0.60    2.25
   7 -10  15   -2.44    2.36
   8 -10  15    1.68    2.51
   9 -10  15    1.67    2.60
  10 -10  15    2.60    2.67
  11 -10  15    0.22    2.86
  11   9 -15    0.67    1.10
  10   9 -15    0.37    1.01
   9   9 -15    2.15    0.92
   8   9 -15    1.17    0.84
   7   9 -15    0.43    0.79
   6   9 -15    0.38    0.73
   5   9 -15    1.17    0.69
   4   9 -15    1.81    0.63
  -4  -9  15    4.72    1.69
   3   9 -15    3.96    0.59
   2   9 -15    1.52    0.54
  -2  -9  15    1.70    1.69
   1   9 -15    3.25    0.55
  -1  -9  15    3.03    1.70
   0  -9  15    6.93    1.78
   1  -9  15    1.13    1.75
   2  -9  15    0.86    1.80
   3  -9  15    1.19    1.81
   4  -9  15    0.93    1.87
   5  -9  15    2.38    1.98
   6  -9  15    3.51    2.08
   7  -9  15   11.24    2.21
   8  -9  15    3.54    2.25
   9  -9  15   -1.03    2.33
  10  -9  15    2.10    2.49
  11  -9  15    4.27    2.54
  11   8 -15   -0.31    1.04
  10   8 -15    1.62    0.97
   9   8 -15   -0.19    0.90
   8   8 -15    0.15    0.83
   7   8 -15    0.47    0.75
   6   8 -15    4.15    0.73
   5   8 -15    1.81    0.64
  -4  -8  15    2.48    1.48
   3   8 -15    2.07    0.56
  -3  -8  15    4.92    1.51
   2   8 -15    9.53    0.97
  -2  -8  15   12.87    1.83
   1   8 -15    2.06    0.54
  -1  -8  15    3.59    1.45
   0   8 -15    1.86    0.51
   0  -8  15    1.13    1.53
   1  -8  15    5.15    1.55
   2  -8  15    0.07    1.55
   3  -8  15    2.17    1.62
   4  -8  15    0.17    1.69
   5  -8  15    1.45    1.76
   6  -8  15   -0.76    1.83
   7  -8  15    1.23    1.91
   8  -8  15    0.03    2.01
   9  -8  15    5.99    2.15
  10  -8  15    2.02    2.19
  11  -8  15    2.86    2.42
  12  -8  15    0.83    2.58
   4   7 -15    4.29    0.60
   3   7 -15    5.10    0.94
  -3  -7  15    7.98    1.65
  -2  -7  15    5.63    1.42
   1   7 -15    0.48    0.47
  -1  -7  15   -0.17    1.34
   0   7 -15    2.18    0.45
   0  -7  15    4.69    1.30
   1  -7  15    1.95    1.34
   2  -7  15    1.60    1.39
   3  -7  15    1.19    1.43
   4  -7  15    1.20    1.47
   5  -7  15    0.71    1.53
   6  -7  15    0.65    1.62
   7  -7  15    0.98    1.70
   8  -7  15    4.77    1.78
   9  -7  15    4.87    1.90
  10  -7  15    6.17    2.09
  11  -7  15   -0.30    2.20
  12  -7  15    4.20    1.22
  13  -7  15    1.45    1.36
  -3  -6  15    7.86    1.31
   2   6 -15    5.03    0.82
  -2  -6  15    5.06    1.28
   1   6 -15    2.34    0.46
  -1  -6  15    4.08    1.18
   0   6 -15   -0.01    0.40
   0  -6  15    0.74    1.24
   1  -6  15    4.32    1.23
   2  -6  15    1.40    1.18
   3  -6  15   13.28    1.63
   4  -6  15    5.87    1.23
   5  -6  15    4.12    1.26
   6  -6  15    2.33    1.35
   7  -6  15    6.39    1.50
   8  -6  15    2.02    1.62
   9  -6  15    1.51    1.77
  10  -6  15    0.50    1.88
  12  -6  15    2.25    1.14
  14  -6  15    0.05    1.40
  12   5 -15   -2.17    1.75
   8   5 -15    1.97    1.04
  -2  -5  15    7.81    1.19
  -1  -5  15    0.13    1.01
   0  -5  15   18.01    1.61
   1  -5  15    0.39    1.04
   2  -5  15    3.94    1.03
   3  -5  15    2.26    1.15
   4  -5  15    6.02    1.20
   5  -5  15    1.90    1.21
   6  -5  15    0.38    0.74
   6  -5  15    0.80    1.29
   7  -5  15    2.90    1.37
   8  -5  15    0.99    1.49
   8  -5  15    0.20    0.78
   9  -5  15    4.90    0.85
   9  -5  15    6.36    1.54
  10  -5  15   -0.57    1.69
  10  -5  15   -0.50    0.86
  11  -5  15    0.32    1.85
  11  -5  15    1.45    0.97
  12  -5  15    4.09    1.08
  13  -5  15   -0.26    1.20
  14  -5  15    0.29    1.30
  15  -5  15    1.67    1.46
  12   4 -15    0.93    1.76
  11   4 -15    0.47    1.84
  10   4 -15    3.18    1.64
   9   4 -15    0.79    1.53
   8   4 -15    1.16    1.06
  -1  -4  15   11.97    1.39
   0  -4  15    3.43    0.97
   1  -4  15    6.16    0.97
   2  -4  15    6.75    1.15
   3  -4  15    1.19    1.01
   4  -4  15    7.23    1.12
   5  -4  15    0.14    0.62
   5  -4  15   -0.67    1.06
   6  -4  15    1.48    0.68
   6  -4  15    1.52    1.11
   7  -4  15    3.15    0.66
   7  -4  15    1.70    1.23
   8  -4  15    8.75    1.05
   8  -4  15    8.95    1.42
   9  -4  15    0.38    0.75
   9  -4  15   -0.01    1.46
  10  -4  15    1.68    1.61
  10  -4  15    1.62    0.81
  11  -4  15    0.25    0.92
  12  -4  15    0.97    1.00
  13  -4  15    3.12    1.12
  14  -4  15   -1.21    1.22
  15  -4  15    0.61    1.36
  12   3 -15   -2.14    1.80
  11   3 -15   -1.47    1.84
  10   3 -15    4.82    1.67
   9   3 -15   -2.66    1.48
   8   3 -15    2.78    1.09
   7   3 -15    3.20    0.94
   6   3 -15   -0.65    0.82
   2   3 -15    1.27    0.72
   2   3 -15    0.89    0.89
   1   3 -15    4.80    0.99
   1   3 -15    4.83    0.75
   2  -3  15    5.27    0.90
   3  -3  15    2.26    0.88
   4  -3  15    4.67    0.92
   5  -3  15    1.61    0.51
   5  -3  15    3.76    0.93
   6  -3  15    2.11    0.99
   6  -3  15    2.70    0.59
   7  -3  15    1.31    0.62
   7  -3  15    0.37    1.07
   8  -3  15    6.63    1.20
   8  -3  15    5.00    0.98
   9  -3  15    2.20    0.74
   9  -3  15    3.15    1.30
  10  -3  15    3.15    1.44
  11  -3  15   -0.36    0.85
  11  -3  15   -0.11    1.54
  12  -3  15    3.49    0.95
  13  -3  15   -0.83    1.07
  14  -3  15    0.87    1.16
  15  -3  15   -0.45    1.29
  16  -3  15    3.64    1.47
  12   2 -15    1.05    1.85
  11   2 -15    1.33    1.84
  10   2 -15    4.31    1.64
   9   2 -15    3.52    1.49
   8   2 -15    1.33    1.11
   7   2 -15    3.72    0.99
   6   2 -15    0.77    0.83
   2   2 -15    1.59    0.56
   2   2 -15    1.08    0.71
   1   2 -15    8.91    0.84
   1   2 -15    8.78    1.18
   0   2 -15    0.30    0.85
   0   2 -15    1.40    0.69
  -1   2 -15    2.42    0.90
  -1   2 -15    1.12    0.69
   5  -2  15   -0.10    0.47
   6  -2  15    3.31    0.58
   7  -2  15    2.03    0.60
   8  -2  15    6.03    0.89
   9  -2  15    7.81    0.99
  10  -2  15    8.19    1.04
  11  -2  15    0.37    0.80
  12  -2  15    1.63    0.88
  13  -2  15    4.25    1.03
  14  -2  15   -0.52    1.11
  15  -2  15   -0.05    1.23
  16  -2  15    1.06    1.42
  11   1 -15   -0.04    1.86
  10   1 -15    4.45    1.69
   9   1 -15   -0.71    1.50
   8   1 -15    4.17    1.27
   7   1 -15    0.25    1.01
   6   1 -15    5.20    0.92
   5   1 -15    0.61    0.84
   1   1 -15   11.14    1.18
   0   1 -15   25.94    1.53
   0   1 -15   28.28    1.07
  -1   1 -15    8.75    0.82
  -1   1 -15    8.11    1.14
  -2   1 -15   -0.21    0.66
  -2   1 -15    0.23    0.83
  -3   1 -15    1.05    0.67
  -3   1 -15    1.15    0.86
  -4   1 -15    0.87    0.69
  -4   1 -15    1.20    0.89
  -5   1 -15    8.08    0.87
  -5   1 -15    8.58    1.24
  -6   1 -15    1.42    0.97
  -6   1 -15    0.67    0.75
   6  -1  15    0.17    0.53
  -7   1 -15    0.26    1.03
  -7   1 -15    0.21    0.79
   7  -1  15    0.00    0.58
  -8   1 -15    4.18    0.83
  -8   1 -15    5.21    1.14
   8  -1  15    5.77    0.82
  -9   1 -15   -1.04    1.23
  -9   1 -15   -0.51    0.86
   9  -1  15    0.54    0.65
 -10   1 -15    2.05    1.37
  10  -1  15    1.36    0.68
  11  -1  15    2.45    0.73
  12  -1  15   -0.55    0.85
  13  -1  15    1.36    0.95
  14  -1  15   -0.75    1.06
  15  -1  15    0.20    1.19
  16  -1  15    2.56    1.36
  17  -1  15    2.12    1.53
  11   0 -15    0.16    1.81
  10   0 -15    2.61    1.71
   9   0 -15   -0.74    1.53
   8   0 -15    6.02    1.32
   7   0 -15   18.41    1.72
   6   0 -15    1.91    0.93
   5   0 -15    2.25    0.86
   2   0 -15    0.83    0.88
   1   0 -15    4.03    0.91
   0   0 -15   16.22    1.23
  -1   0 -15    2.21    0.80
  -2   0 -15   11.16    1.08
  -2   0 -15    8.66    0.75
  -3   0 -15    9.15    0.68
  -3   0 -15    9.14    1.00
  -4   0 -15    6.73    0.78
  -4   0 -15    5.73    1.08
  -5   0 -15   13.35    1.26
  -5   0 -15   12.01    0.87
  -6   0 -15   11.84    0.90
  -6   0 -15   10.67    1.28
   6   0  15   10.95    0.85
  -7   0 -15    0.33    0.96
  -7   0 -15    0.03    0.72
   7   0  15    0.72    0.51
  -8   0 -15    0.26    1.02
  -8   0 -15    0.78    0.75
  -9   0 -15    1.89    1.13
  -9   0 -15    0.79    0.79
   9   0  15    2.13    0.63
 -10   0 -15   -0.07    1.23
  10   0  15    0.61    0.67
  11   0  15    1.82    0.71
  12   0  15   -0.19    0.81
  13   0  15   18.66    1.47
  14   0  15    0.34    1.04
  15   0  15    2.85    1.17
  16   0  15    0.25    1.31
  17   0  15    2.24    1.48
  11  -1 -15    0.81    1.90
  10  -1 -15    3.03    1.77
   9  -1 -15   -0.42    1.55
   8  -1 -15    5.43    1.39
   7  -1 -15    1.42    1.11
   6  -1 -15    1.30    0.97
   5  -1 -15    1.05    0.87
   2  -1 -15    2.98    0.91
   1  -1 -15    4.84    0.91
   0  -1 -15   41.75    2.03
  -1  -1 -15   57.61    2.52
  -2  -1 -15    0.95    0.75
  -3  -1 -15    1.77    0.77
  -4  -1 -15    2.54    0.78
  -5  -1 -15   21.10    0.99
  -5  -1 -15   20.43    1.40
  -6  -1 -15    0.33    0.83
  -6  -1 -15   -0.23    0.64
   6   1  15    0.03    0.44
  -7  -1 -15    1.55    0.87
  -7  -1 -15    1.29    0.65
   7   1  15    0.99    0.51
  -8  -1 -15    1.36    0.94
  -8  -1 -15    1.38    0.68
   8   1  15    0.78    0.56
  -9  -1 -15    3.00    1.03
  -9  -1 -15    3.56    0.72
   9   1  15    3.25    0.58
 -10  -1 -15    5.13    0.79
 -10  -1 -15    8.65    1.52
  10   1  15    5.06    0.96
  11   1  15    5.15    0.98
  12   1  15    8.97    1.10
  13   1  15   -0.42    0.89
  14   1  15    3.34    1.00
  15   1  15    1.42    1.17
  16   1  15   -0.51    1.28
  17   1  15    0.41    1.46
  10  -2 -15    1.71    1.83
   9  -2 -15    2.69    1.60
   8  -2 -15    4.54    1.47
   7  -2 -15    4.39    1.22
   6  -2 -15    0.88    1.03
   5  -2 -15    2.38    0.88
   2  -2 -15    5.04    1.00
   1  -2 -15   -0.43    0.89
   0  -2 -15    7.43    1.14
  -1  -2 -15    1.54    0.85
  -2  -2 -15   21.81    1.41
  -3  -2 -15    2.64    0.81
  -4  -2 -15    7.74    1.09
  -5  -2 -15    1.30    0.81
  -6  -2 -15    7.12    1.07
  -7  -2 -15    5.53    1.08
   7   2  15    3.90    0.58
  -8  -2 -15    2.72    0.90
   8   2  15    1.97    0.54
  -9  -2 -15    4.14    1.01
   9   2  15    3.22    0.59
 -10  -2 -15    2.10    1.08
  10   2  15    0.71    0.63
  11   2  15   -0.15    0.68
  12   2  15    2.12    0.74
  13   2  15    7.05    1.25
  14   2  15    4.96    0.99
  15   2  15    0.68    1.11
  16   2  15    1.82    1.28
  17   2  15    0.03    1.46
  18   2  15   -0.15    1.62
  10  -3 -15   -1.56    1.93
   9  -3 -15    6.52    1.70
   8  -3 -15   -2.15    1.48
   7  -3 -15    1.12    1.26
   6  -3 -15    1.79    1.11
   5  -3 -15    2.40    0.99
   4  -3 -15    4.88    0.94
   2  -3 -15    3.05    1.01
   1  -3 -15    4.44    0.99
   0  -3 -15    3.34    0.96
  -1  -3 -15   17.78    1.40
  -2  -3 -15    3.88    0.85
  -3  -3 -15    0.30    0.76
  -4  -3 -15    1.03    0.80
  -5  -3 -15   20.26    1.36
  -6  -3 -15    1.66    0.77
  -7  -3 -15    0.33    0.87
   7   3  15   -0.16    0.47
  -8  -3 -15    1.92    0.92
   8   3  15    0.96    0.53
  -9  -3 -15   10.03    1.35
   9   3  15    9.67    0.98
 -10  -3 -15    8.82    1.45
  10   3  15    7.81    0.91
 -11  -3 -15    5.20    1.17
  11   3  15    4.77    0.74
  12   3  15    0.13    0.75
  13   3  15   -0.10    0.81
  14   3  15   -0.96    0.97
  15   3  15    5.41    1.13
  16   3  15    1.00    1.25
  17   3  15    0.18    1.45
  18   3  15   -2.20    1.64
  10  -4 -15    1.68    1.98
   9  -4 -15    0.09    1.80
   8  -4 -15   -1.31    1.61
   7  -4 -15    1.02    1.41
   6  -4 -15    0.89    1.19
   5  -4 -15    1.63    1.06
   4  -4 -15    2.84    0.99
   1  -4 -15    2.00    1.01
   0  -4 -15    3.41    1.01
  -1  -4 -15    1.29    0.92
  -2  -4 -15    4.75    0.97
  -3  -4 -15    0.57    0.88
  -4  -4 -15   14.19    1.33
  -5  -4 -15    3.76    0.92
  -6  -4 -15   12.30    1.25
  -7  -4 -15    0.73    0.85
  -8  -4 -15    5.88    1.17
   8   4  15    5.52    0.80
  -9  -4 -15    3.12    0.98
   9   4  15    1.65    0.57
 -10  -4 -15   12.89    1.47
  10   4  15   14.31    1.07
 -11  -4 -15    3.39    1.16
  11   4  15    3.32    0.67
  12   4  15    0.54    0.74
  13   4  15    0.24    0.82
  14   4  15   -0.24    0.92
  15   4  15    0.54    1.11
  16   4  15    0.12    1.23
  17   4  15    3.01    1.39
  18   4  15    2.54    1.62
   9  -5 -15    4.05    1.94
   8  -5 -15    1.60    1.70
   7  -5 -15    1.32    1.57
   6  -5 -15    5.92    1.33
   5  -5 -15    2.02    1.17
   4  -5 -15    8.98    1.61
   3  -5 -15   10.95    1.55
   2  -5 -15    2.34    1.18
   1  -5 -15    0.23    1.10
   0  -5 -15    1.60    1.06
  -1  -5 -15    4.08    1.03
  -2  -5 -15    0.24    0.99
  -3  -5 -15    0.26    0.97
  -4  -5 -15   10.79    1.30
  -5  -5 -15   47.34    2.26
  -6  -5 -15    6.17    1.02
  -7  -5 -15    0.30    0.98
  -8  -5 -15   -0.61    1.02
   8   5  15    0.38    0.53
  -9  -5 -15    8.42    1.24
   9   5  15    9.47    0.97
 -10  -5 -15   -0.20    1.15
  10   5  15    2.68    0.67
 -11  -5 -15   -0.67    1.21
  11   5  15    1.63    0.67
  12   5  15    3.71    0.77
  13   5  15    0.07    0.84
  14   5  15    2.35    0.93
  15   5  15    4.46    1.08
  16   5  15    0.30    1.22
  17   5  15    1.90    1.39
  18   5  15    1.65    1.56
   8  -6 -15    4.11    1.85
   7  -6 -15    1.67    1.67
   6  -6 -15    6.49    1.49
   5  -6 -15    1.17    1.26
   4  -6 -15   -0.10    1.15
   3  -6 -15   11.61    1.68
   2  -6 -15    1.94    1.21
   1  -6 -15    0.41    1.19
   0  -6 -15    2.34    1.18
  -1  -6 -15    0.15    1.10
  -2  -6 -15   17.27    1.53
  -3  -6 -15    5.02    1.04
  -4  -6 -15   11.95    1.41
  -5  -6 -15    0.61    1.02
  -6  -6 -15   27.87    1.80
  -7  -6 -15   11.80    1.40
  -8  -6 -15   -0.89    1.07
  -9  -6 -15    0.40    1.10
   9   6  15    0.92    0.62
 -10  -6 -15   -0.72    1.14
  10   6  15    0.98    0.64
  11   6  15    2.00    0.74
  12   6  15    3.82    0.74
  13   6  15    1.56    0.84
  14   6  15    2.01    0.95
  15   6  15   -0.11    1.06
  16   6  15    0.30    1.19
  17   6  15   -0.28    1.36
  18   6  15    0.05    1.56
   8  -7 -15    0.73    1.96
   7  -7 -15    7.52    1.81
   6  -7 -15    2.65    1.63
   5  -7 -15    4.10    1.40
   4  -7 -15    0.98    1.27
   3  -7 -15    2.39    1.14
   2  -7 -15   -1.12    1.35
   2  -7 -15    1.72    1.12
   1  -7 -15    1.24    1.22
   0  -7 -15    0.83    1.18
  -1  -7 -15   17.69    1.72
  -2  -7 -15    1.41    1.18
  -3  -7 -15   10.26    1.54
  -4  -7 -15    6.80    1.14
  -5  -7 -15    8.34    1.41
  -6  -7 -15    1.17    1.08
  -7  -7 -15    0.00    1.07
  -8  -7 -15   -1.33    1.11
  -9  -7 -15   -1.30    1.14
 -10  -7 -15    7.57    1.57
  10   7  15    7.93    1.12
 -11  -7 -15    1.62    1.24
  11   7  15    3.40    0.75
  12   7  15    1.12    0.81
  13   7  15    2.27    0.84
  14   7  15    2.92    0.67
  14   7  15    1.17    0.94
  15   7  15    2.49    1.07
  16   7  15    2.36    1.20
  17   7  15   -0.47    1.33
  18   7  15   -2.25    1.52
   7  -8 -15    3.43    1.91
   6  -8 -15    2.78    1.78
   5  -8 -15    0.82    1.58
   4  -8 -15    2.37    1.38
   3  -8 -15    0.90    1.27
   2  -8 -15    1.90    1.53
   2  -8 -15    2.17    1.15
   1  -8 -15    1.12    1.43
   0  -8 -15    4.24    1.36
  -1  -8 -15    0.66    1.25
  -2  -8 -15   14.23    1.69
  -3  -8 -15    9.02    1.33
  -4  -8 -15    1.18    1.21
  -5  -8 -15    1.40    1.20
  -6  -8 -15    6.70    1.22
  -7  -8 -15    6.70    1.21
  -8  -8 -15   -1.05    1.18
  -9  -8 -15    1.47    1.21
 -10  -8 -15   -0.24    1.25
 -11  -8 -15    5.53    1.33
  12   8  15    1.25    0.84
  14   8  15    2.72    0.71
  15   8  15    0.94    1.04
  15   8  15    1.29    0.77
  16   8  15    0.76    1.20
  18   8  15   -0.13    1.51
   6  -9 -15    4.88    1.92
   5  -9 -15   -2.81    1.77
   4  -9 -15    2.53    1.58
   3  -9 -15    1.66    1.40
   2  -9 -15    6.27    1.75
   2  -9 -15    5.97    1.32
   1  -9 -15    3.71    1.28
   1  -9 -15    3.83    1.62
   0  -9 -15    4.28    1.55
  -1  -9 -15   10.89    1.86
  -2  -9 -15    8.11    1.40
  -3  -9 -15    1.77    1.27
  -4  -9 -15    0.62    1.26
  -5  -9 -15    6.15    1.28
  -6  -9 -15    0.14    1.19
  -7  -9 -15    0.19    1.26
  -8  -9 -15    5.44    1.29
  -9  -9 -15    1.28    1.28
 -10  -9 -15    6.61    1.34
 -11  -9 -15    0.66    1.33
  14   9  15    1.92    0.75
  15   9  15    1.46    0.81
  16   9  15    2.10    0.97
   5 -10 -15   -1.36    1.87
   3 -10 -15    2.77    1.57
   3 -10 -15    3.04    2.18
   2 -10 -15   12.59    2.40
   1 -10 -15   11.91    2.29
   0 -10 -15    1.44    1.74
  -1 -10 -15    0.14    1.61
  -2 -10 -15   10.42    1.94
  -3 -10 -15    4.15    1.44
  -4 -10 -15    1.29    1.39
  -5 -10 -15    0.31    1.35
  -6 -10 -15    1.73    1.31
  -7 -10 -15   15.35    1.75
  -8 -10 -15   -0.18    1.31
  -9 -10 -15    0.29    1.35
 -10 -10 -15    0.48    1.36
 -11 -10 -15    9.47    1.71
 -12 -10 -15    2.30    1.42
  14  10  15    0.65    0.78
  15  10  15    0.63    0.86
  16  10  15    0.99    0.94
   4 -11 -15   -1.82    1.95
   2 -11 -15    9.43    2.25
   1 -11 -15   11.12    2.16
   0 -11 -15    3.90    1.93
  -1 -11 -15    6.67    1.89
  -2 -11 -15    1.64    1.75
  -3 -11 -15   -0.33    1.65
  -4 -11 -15    3.72    1.55
  -5 -11 -15    3.00    1.52
  -6 -11 -15   12.03    1.85
  -7 -11 -15    2.13    1.48
  -8 -11 -15   11.62    1.86
  -9 -11 -15   -0.56    1.45
 -10 -11 -15    3.31    1.46
 -11 -11 -15   -1.22    1.49
 -12 -11 -15   -0.18    1.51
  15  11  15    3.36    0.93
  16  11  15    1.58    1.01
  17  11  15    0.20    1.11
   3 -12 -15    3.30    2.52
   2 -12 -15    1.98    2.34
   1 -12 -15    3.03    2.29
   0 -12 -15    3.34    2.25
  -1 -12 -15    2.47    2.11
  -2 -12 -15    1.57    1.95
  -3 -12 -15    7.97    1.91
  -4 -12 -15    3.47    1.77
  -5 -12 -15    3.01    1.71
  -6 -12 -15   -0.27    1.64
  -7 -12 -15   12.95    1.98
  -8 -12 -15    0.98    1.54
  -9 -12 -15    1.00    1.54
 -10 -12 -15    1.55    1.54
 -11 -12 -15    3.83    1.52
 -12 -12 -15    1.79    1.55
  15  12  15    1.17    0.95
  16  12  15    2.71    1.06
   2 -13 -15    1.44    2.60
   1 -13 -15    1.71    2.48
   0 -13 -15   -0.53    2.35
  -1 -13 -15   -2.68    2.33
  -2 -13 -15    7.96    2.30
  -3 -13 -15    3.52    2.14
  -4 -13 -15    6.64    1.98
  -5 -13 -15    4.05    1.87
  -6 -13 -15    3.11    1.83
  -7 -13 -15    1.29    1.78
  -8 -13 -15    4.39    1.78
  -9 -13 -15    2.02    1.70
 -10 -13 -15    1.83    1.69
 -11 -13 -15    1.62    1.67
 -12 -13 -15    2.97    1.71
 -13 -13 -15    4.88    1.77
 -14 -13 -15    2.35    1.84
  16  13  15   -0.45    1.13
   0 -14 -15    3.53    2.66
  -1 -14 -15    2.47    2.50
  -2 -14 -15   -1.19    2.40
  -3 -14 -15    9.07    2.43
  -4 -14 -15    1.95    2.30
  -5 -14 -15    1.74    2.19
  -6 -14 -15    1.12    2.10
  -7 -14 -15    6.06    2.01
  -8 -14 -15   -0.16    1.88
  -9 -14 -15    1.58    1.85
 -10 -14 -15    0.75    1.81
 -11 -14 -15    2.96    1.81
 -12 -14 -15    2.95    1.84
 -14 -14 -15    3.05    1.99
  -2 -15 -15    7.33    2.75
  -3 -15 -15    3.74    2.61
  -4 -15 -15   11.00    2.53
  -5 -15 -15   -1.53    2.37
  -6 -15 -15    2.68    2.33
  -7 -15 -15    0.62    2.21
  -8 -15 -15   -1.63    2.16
  -9 -15 -15    2.38    2.12
 -10 -15 -15    1.55    2.08
 -11 -15 -15    1.03    2.05
 -12 -15 -15   -0.19    2.04
 -13 -15 -15    0.92    2.05
  -4 -16 -15    2.29    2.87
  -5 -16 -15    4.68    2.71
  -6 -16 -15   -0.66    2.57
  -7 -16 -15    1.94    2.48
  -8 -16 -15   -1.48    2.35
  -9 -16 -15    0.04    2.29
 -10 -16 -15   -1.08    2.22
 -11 -16 -15    1.07    2.19
  -2 -15  16    2.31    3.23
  -1 -15  16   10.47    3.36
   0 -15  16    6.44    3.45
   6  14 -16    0.37    1.14
   5  14 -16    0.81    1.09
  -5 -14  16   -1.55    2.86
  -4 -14  16   11.73    2.88
  -3 -14  16    0.74    2.84
  -2 -14  16   -1.79    2.93
  -1 -14  16    3.15    3.02
   0 -14  16    6.69    3.11
   1 -14  16    2.87    3.18
   2 -14  16    6.41    3.31
   3 -14  16    3.55    3.38
   4 -14  16    4.67    3.45
   7  13 -16    0.22    1.14
   6  13 -16    0.59    1.05
   5  13 -16   -0.40    0.99
  -5 -13  16   -0.54    2.54
   4  13 -16    1.80    0.92
  -4 -13  16   -1.80    2.55
  -3 -13  16    6.34    2.65
  -2 -13  16    0.50    2.65
  -1 -13  16    2.35    2.70
   0 -13  16    1.93    2.83
   1 -13  16    3.48    2.84
   2 -13  16    1.06    2.92
   3 -13  16    5.05    3.00
   4 -13  16   -0.62    3.13
   5 -13  16    0.45    3.24
   6 -13  16    3.23    3.34
   8  12 -16   -0.90    1.15
   7  12 -16   -0.72    1.05
   6  12 -16   -0.35    0.97
   5  12 -16   -0.22    0.92
   4  12 -16    0.24    0.87
  -4 -12  16    2.07    2.34
   3  12 -16    1.13    0.83
  -3 -12  16    0.41    2.42
   2  12 -16   -1.58    0.81
  -2 -12  16    2.41    2.44
  -1 -12  16    2.16    2.50
   0 -12  16    0.64    2.51
   1 -12  16    1.85    2.59
   2 -12  16   -1.30    2.61
   3 -12  16   -0.57    2.72
   4 -12  16   -1.46    2.79
   5 -12  16    1.98    2.88
   6 -12  16   -2.23    2.99
   7 -12  16   -1.22    3.08
   9  11 -16    1.10    1.18
   8  11 -16    0.71    1.08
   7  11 -16   -0.59    0.98
   6  11 -16   -0.47    0.91
   5  11 -16   -0.02    0.84
  -4 -11  16    2.80    2.09
  -3 -11  16    2.73    2.16
   2  11 -16   -0.13    0.72
  -2 -11  16   -0.46    2.22
   1  11 -16   -0.44    0.72
  -1 -11  16   -0.85    2.28
   0 -11  16    1.99    2.32
   1 -11  16   -1.33    2.36
   2 -11  16    7.02    2.40
   3 -11  16   -1.47    2.43
   4 -11  16    0.54    2.51
   5 -11  16   -0.34    2.60
   6 -11  16    3.82    2.77
   7 -11  16    3.42    2.85
   8 -11  16    4.76    2.91
   9 -11  16    3.61    3.01
  10  10 -16   -0.11    1.19
   9  10 -16    1.58    1.11
   8  10 -16    0.03    1.01
   7  10 -16   -0.36    0.93
   6  10 -16    0.54    0.86
   5  10 -16   -0.24    0.78
   4  10 -16    1.21    0.74
  -3 -10  16    2.72    1.91
   2  10 -16   -0.61    0.65
  -2 -10  16    2.60    1.97
  -1 -10  16    4.48    2.06
   0 -10  16    5.79    2.11
   1 -10  16    2.16    2.15
   2 -10  16    0.16    2.18
   3 -10  16    4.43    2.24
   4 -10  16    1.37    2.31
   5 -10  16    4.17    2.39
   6 -10  16    1.93    2.47
   7 -10  16    0.93    2.56
   8 -10  16   -1.58    2.62
   9 -10  16    3.36    2.73
  10 -10  16   -0.30    2.84
  10   9 -16    1.50    1.11
   9   9 -16    2.27    1.02
   8   9 -16    1.28    0.93
   7   9 -16    0.90    0.86
   6   9 -16   -0.10    0.81
   5   9 -16   -0.64    0.75
   4   9 -16    0.42    0.69
  -4  -9  16    1.05    1.74
  -3  -9  16    1.44    1.81
  -2  -9  16    9.10    1.79
  -1  -9  16    2.60    1.79
   0  -9  16   -1.10    1.85
   1  -9  16    0.62    1.89
   2  -9  16   10.56    2.02
   3  -9  16   -0.26    1.98
   4  -9  16   -1.07    2.00
   5  -9  16    0.83    2.09
   6  -9  16   -0.61    2.18
   7  -9  16    2.59    2.28
   8  -9  16   -1.09    2.40
   9  -9  16    0.56    2.47
  10  -9  16    3.69    2.57
  11  -9  16    1.92    2.77
  11   8 -16   -0.54    1.13
  10   8 -16    0.36    1.06
   9   8 -16   -0.08    0.97
   8   8 -16   -0.24    0.91
   7   8 -16   -1.10    0.83
   6   8 -16    1.19    0.78
   5   8 -16    2.66    0.70
   4   8 -16    4.33    0.66
  -3  -8  16    2.79    1.59
  -2  -8  16    3.13    1.61
   1   8 -16   -0.07    0.53
  -1  -8  16    0.82    1.63
   0  -8  16    1.65    1.55
   1  -8  16    7.22    1.68
   2  -8  16    1.31    1.71
   3  -8  16    4.13    1.74
   4  -8  16    0.67    1.80
   5  -8  16    3.09    1.89
   6  -8  16    1.49    1.98
   7  -8  16   -0.58    2.05
   8  -8  16    1.39    2.10
   9  -8  16    3.28    2.22
  10  -8  16    0.66    2.43
  11  -8  16    2.79    2.54
   4   7 -16   -0.24    0.63
   3   7 -16    1.16    0.58
  -3  -7  16    2.54    1.50
   2   7 -16    2.82    0.52
  -2  -7  16    4.22    1.45
  -1  -7  16    1.69    1.38
   0   7 -16    0.65    0.47
   0  -7  16    1.85    1.47
   1  -7  16    0.36    1.47
   2  -7  16   15.88    1.89
   3  -7  16    0.75    1.46
   4  -7  16    1.94    1.47
   5  -7  16    2.79    1.54
   6  -7  16   14.14    2.05
   7  -7  16    2.05    1.78
   8  -7  16    0.93    1.93
   9  -7  16   -0.36    2.09
  10  -7  16    1.97    2.21
  11  -7  16    1.10    1.19
  -3  -6  16    5.03    1.35
   2   6 -16    0.48    0.52
  -2  -6  16   -0.25    1.29
   1   6 -16    5.20    0.95
  -1  -6  16    4.95    1.37
   0   6 -16    0.47    0.45
   0  -6  16   -0.37    1.29
   1  -6  16   16.29    1.73
   2  -6  16    2.33    1.38
   3  -6  16   10.68    1.75
   4  -6  16    0.09    1.39
   5  -6  16    8.74    1.58
   6  -6  16   -0.33    1.58
   7  -6  16    6.14    1.68
   8  -6  16    2.58    1.77
   9  -6  16    2.11    1.89
  10  -6  16    3.21    1.97
  11  -6  16    2.59    1.08
  11  -6  16    1.98    2.12
  12  -6  16   -0.43    1.16
  13  -6  16    0.19    1.30
  11   5 -16   -1.22    2.05
  10   5 -16    4.40    1.85
   8   5 -16    3.24    1.22
  -1  -5  16    0.09    1.16
   0  -5  16    1.93    1.15
   1  -5  16    2.18    1.26
   2  -5  16   25.68    1.89
   3  -5  16    7.69    1.25
   4  -5  16    1.49    1.20
   5  -5  16    1.06    1.22
   6  -5  16    5.09    1.37
   7  -5  16    5.02    1.46
   7  -5  16    6.14    0.90
   8  -5  16    1.88    0.81
   8  -5  16    4.05    1.56
   9  -5  16    1.04    1.69
   9  -5  16    1.23    0.89
  10  -5  16   -0.34    1.81
  11  -5  16   -0.31    1.01
  11  -5  16   -1.77    1.97
  12  -5  16    0.75    1.11
  13  -5  16    1.02    1.25
  14  -5  16    1.68    1.35
  11   4 -16    0.65    2.00
   9   4 -16   -1.04    1.70
   8   4 -16    2.55    1.24
   7   4 -16    1.13    1.07
   3   4 -16   -0.12    1.03
   2   4 -16    0.17    1.03
   2   4 -16    1.60    0.83
   1  -4  16   15.61    1.48
   2  -4  16    7.85    1.35
   3  -4  16    0.42    1.05
   4  -4  16   24.43    1.74
   5  -4  16    0.00    1.21
   5  -4  16    0.25    0.60
   6  -4  16    0.30    1.28
   6  -4  16    0.83    0.73
   7  -4  16    1.04    0.80
   7  -4  16   -0.13    1.37
   8  -4  16    4.85    1.48
   8  -4  16    6.45    1.11
   9  -4  16    1.00    0.83
   9  -4  16    0.61    1.49
  10  -4  16    9.92    1.95
  10  -4  16    7.64    1.27
  11  -4  16    2.23    1.79
  11  -4  16    1.89    0.95
  12  -4  16    0.31    1.03
  13  -4  16   -0.16    1.17
  14  -4  16   -0.05    1.28
  15  -4  16    1.74    1.46
  11   3 -16    1.29    2.01
  10   3 -16    2.59    1.80
   9   3 -16   -1.42    1.67
   8   3 -16    1.51    1.25
   7   3 -16    2.32    1.10
   6   3 -16    0.84    0.92
   3   3 -16    1.31    0.82
   2   3 -16   10.62    1.36
   1   3 -16    0.58    0.98
   1   3 -16    1.11    0.78
   0   3 -16    1.14    0.79
   0   3 -16    1.20    1.00
   3  -3  16    4.76    1.04
   4  -3  16    2.11    0.98
   5  -3  16    3.56    1.03
   6  -3  16    1.63    1.13
   6  -3  16    0.95    0.67
   7  -3  16   10.69    1.17
   7  -3  16   10.70    1.60
   8  -3  16    2.48    0.74
   8  -3  16    1.70    1.29
   9  -3  16    1.68    0.78
   9  -3  16    2.78    1.41
  10  -3  16    0.58    0.84
  10  -3  16    0.61    1.52
  11  -3  16    2.73    0.89
  12  -3  16    0.83    0.96
  13  -3  16    0.99    1.12
  14  -3  16    1.19    1.21
  15  -3  16    0.44    1.39
  16  -3  16   -2.22    1.55
  11   2 -16    1.16    2.09
  10   2 -16    5.48    1.82
   9   2 -16   -1.25    1.69
   8   2 -16    2.11    1.29
   7   2 -16    1.45    1.12
   6   2 -16    1.50    0.97
   3   2 -16    6.47    1.29
   2   2 -16    4.24    0.74
   2   2 -16    5.24    1.01
   1   2 -16   13.92    0.98
   1   2 -16   12.53    1.38
   0   2 -16    1.83    0.94
   0   2 -16    1.14    0.73
  -1   2 -16    5.67    1.19
  -1   2 -16    7.28    0.88
  -2   2 -16   -1.41    0.75
  -2   2 -16    0.01    0.95
  -3   2 -16    3.28    0.78
  -3   2 -16    3.35    1.01
   6  -2  16    0.57    0.54
   7  -2  16    1.68    0.63
   8  -2  16    1.62    0.69
   9  -2  16   -0.20    0.70
  10  -2  16    3.50    0.81
  11  -2  16    0.53    0.84
  12  -2  16    3.94    0.93
  13  -2  16    0.84    1.06
  14  -2  16    2.17    1.17
  15  -2  16    1.63    1.33
  16  -2  16   -2.30    1.52
  11   1 -16   -0.15    2.09
  10   1 -16    3.18    1.85
   9   1 -16    0.51    1.66
   8   1 -16    3.79    1.42
   7   1 -16    2.34    1.18
   6   1 -16    5.30    1.03
   5   1 -16    5.44    1.02
   2   1 -16    6.64    1.21
   1   1 -16    3.88    0.95
   0   1 -16    0.72    0.67
   0   1 -16    1.56    0.85
  -1   1 -16    1.70    0.57
  -1   1 -16    1.17    0.73
  -2   1 -16    3.85    0.74
  -2   1 -16    5.54    0.98
  -3   1 -16    3.43    0.75
  -3   1 -16    5.46    0.99
  -4   1 -16   -0.64    0.74
  -4   1 -16    0.85    0.94
  -5   1 -16   -0.59    0.97
  -5   1 -16    0.32    0.77
  -6   1 -16   18.63    1.61
  -6   1 -16   17.51    1.08
   6  -1  16   18.49    1.12
  -7   1 -16   14.41    1.07
  -7   1 -16   15.29    1.62
   7  -1  16   16.32    1.09
  -8   1 -16    3.67    0.88
  -8   1 -16    4.95    1.21
   8  -1  16    6.15    1.02
  -9   1 -16   -0.45    0.90
  -9   1 -16    0.61    1.27
   9  -1  16    0.89    0.65
 -10   1 -16   -0.64    1.40
 -10   1 -16   -0.05    0.95
  10  -1  16    0.51    0.76
 -11   1 -16    4.13    1.58
  11  -1  16    3.59    0.86
  12  -1  16    1.60    0.87
  13  -1  16    0.07    1.00
  14  -1  16    0.40    1.12
  15  -1  16    3.99    1.27
  16  -1  16    0.63    1.44
  10   0 -16    2.57    1.88
   9   0 -16   -2.96    1.70
   8   0 -16    2.46    1.46
   7   0 -16    0.67    1.23
   6   0 -16    6.16    1.10
   5   0 -16    6.02    1.00
   1   0 -16   16.66    1.53
   0   0 -16    1.31    0.86
  -1   0 -16    8.97    1.10
  -2   0 -16    4.33    0.90
  -3   0 -16    2.46    0.84
  -3   0 -16    2.89    0.66
  -4   0 -16   18.93    0.90
  -4   0 -16   17.98    1.31
  -5   0 -16    3.91    1.00
  -5   0 -16    4.67    0.76
  -6   0 -16    1.97    0.97
  -6   0 -16    1.59    0.74
   6   0  16    0.73    0.51
  -7   0 -16    0.18    0.79
  -7   0 -16    0.69    1.04
   7   0  16    0.61    0.59
  -8   0 -16    8.19    0.97
  -8   0 -16   11.84    1.49
   8   0  16   11.57    1.09
  -9   0 -16    8.87    1.55
  -9   0 -16    5.73    0.89
   9   0  16    9.59    1.02
 -10   0 -16    1.12    1.30
 -10   0 -16    0.95    0.87
  10   0  16    0.27    0.71
 -11   0 -16    2.31    1.34
  11   0  16    0.54    0.78
  12   0  16    0.32    0.84
  13   0  16   -0.28    0.92
  14   0  16   -0.56    1.09
  15   0  16    2.24    1.22
  16   0  16    2.55    1.39
  17   0  16    0.26    1.58
  10  -1 -16    4.07    1.98
   9  -1 -16    7.08    1.76
   8  -1 -16    0.73    1.53
   7  -1 -16    1.26    1.29
   6  -1 -16    5.40    1.15
   5  -1 -16    2.59    1.01
   2  -1 -16    0.84    0.99
   1  -1 -16    4.29    1.01
   0  -1 -16    1.94    0.87
  -1  -1 -16   16.92    1.45
  -2  -1 -16    3.80    0.94
  -3  -1 -16   16.74    1.28
  -4  -1 -16    0.49    0.84
  -5  -1 -16    6.67    1.13
  -6  -1 -16    1.52    0.92
  -7  -1 -16   12.68    1.36
  -7  -1 -16   11.86    0.92
   7   1  16   12.63    0.95
  -8  -1 -16   -0.05    0.76
  -8  -1 -16    0.92    1.00
   8   1  16    1.07    0.60
  -9  -1 -16    2.15    1.10
  -9  -1 -16    1.21    0.78
   9   1  16    0.53    0.64
 -10  -1 -16    1.42    1.21
  10   1  16    0.84    0.65
 -11  -1 -16    4.83    1.37
  11   1  16    5.42    0.82
  12   1  16    4.50    0.87
  13   1  16    1.21    0.91
  14   1  16    2.12    1.04
  15   1  16    2.28    1.20
  16   1  16    2.31    1.33
  17   1  16    3.08    1.55
  10  -2 -16    6.10    2.05
   9  -2 -16    0.51    1.79
   8  -2 -16    1.89    1.61
   7  -2 -16    1.41    1.36
   6  -2 -16    4.25    1.20
   5  -2 -16    1.36    1.02
   1  -2 -16    4.48    1.05
   0  -2 -16    7.44    1.29
  -1  -2 -16    0.70    0.94
  -2  -2 -16   42.50    2.13
  -3  -2 -16    2.81    0.91
  -4  -2 -16   14.81    1.37
  -5  -2 -16    2.71    0.89
  -6  -2 -16    3.96    0.91
  -7  -2 -16    1.18    0.92
   7   2  16   -0.04    0.50
  -8  -2 -16    4.24    1.01
   8   2  16    4.67    0.89
  -9  -2 -16   11.90    1.42
   9   2  16    9.39    1.07
 -10  -2 -16    9.93    1.53
  10   2  16    7.11    1.01
 -11  -2 -16    3.18    1.30
  11   2  16    0.55    0.73
  12   2  16    1.56    0.82
  13   2  16    1.07    0.89
  14   2  16   -0.91    1.00
  15   2  16    0.42    1.18
  16   2  16    4.23    1.33
  17   2  16    1.63    1.47
   9  -3 -16    8.11    1.94
   8  -3 -16   -2.77    1.70
   7  -3 -16    2.97    1.45
   6  -3 -16    0.62    1.27
   5  -3 -16    7.19    1.16
   4  -3 -16    2.70    1.05
   2  -3 -16    2.86    1.12
   1  -3 -16    3.15    1.08
   0  -3 -16    3.20    1.06
  -1  -3 -16   -0.77    0.97
  -2  -3 -16    2.05    0.92
  -3  -3 -16   18.03    1.41
  -4  -3 -16    2.50    0.94
  -5  -3 -16    2.44    0.89
  -6  -3 -16    0.78    0.86
  -7  -3 -16    7.39    1.18
  -8  -3 -16    2.98    1.03
   8   3  16    2.45    0.56
  -9  -3 -16    0.44    1.07
   9   3  16    0.74    0.62
 -10  -3 -16    2.45    1.17
  10   3  16    0.92    0.68
 -11  -3 -16    5.02    1.25
  11   3  16    4.53    0.71
  12   3  16    5.60    0.84
  13   3  16    0.73    0.90
  14   3  16    0.99    0.99
  15   3  16   -0.16    1.12
  16   3  16   -1.51    1.32
  17   3  16    1.27    1.48
  18   3  16    3.87    1.65
   9  -4 -16    2.56    2.01
   8  -4 -16   -1.75    1.81
   7  -4 -16   -1.11    1.58
   6  -4 -16    1.40    1.37
   5  -4 -16    0.53    1.22
   4  -4 -16    5.15    1.13
   2  -4 -16    2.17    1.16
   1  -4 -16   12.47    1.56
   0  -4 -16   14.28    1.55
  -1  -4 -16    0.48    1.01
  -2  -4 -16    0.01    1.01
  -3  -4 -16    0.10    0.98
  -4  -4 -16    4.86    1.04
  -5  -4 -16   12.06    1.37
  -6  -4 -16   10.03    1.34
  -7  -4 -16   -0.04    0.94
  -8  -4 -16   12.11    1.39
   8   4  16   12.58    1.00
  -9  -4 -16    1.87    1.05
   9   4  16    1.59    0.66
 -10  -4 -16    3.96    1.15
  10   4  16    4.64    0.72
 -11  -4 -16    0.26    1.22
  11   4  16    1.98    0.72
  12   4  16    0.07    0.76
  13   4  16   10.15    1.35
  14   4  16    0.45    1.01
  15   4  16    0.71    1.11
  16   4  16    0.05    1.26
  17   4  16    1.18    1.45
  18   4  16   -0.10    1.66
   8  -5 -16    1.91    1.90
   7  -5 -16    0.84    1.75
   6  -5 -16    4.01    1.49
   5  -5 -16    7.79    1.37
   4  -5 -16   17.98    1.83
   3  -5 -16    2.00    1.13
   2  -5 -16   -0.33    1.26
   1  -5 -16    2.15    1.23
   0  -5 -16   -0.41    1.14
  -1  -5 -16    0.44    1.09
  -2  -5 -16    1.16    1.11
  -3  -5 -16   11.53    1.49
  -4  -5 -16   -0.45    1.02
  -5  -5 -16   -0.49    1.01
  -6  -5 -16    6.55    1.11
  -7  -5 -16   20.81    1.68
  -8  -5 -16    7.87    1.31
  -9  -5 -16   -0.35    1.23
   9   5  16    0.24    0.64
 -10  -5 -16    3.80    1.36
  10   5  16    6.16    1.03
 -11  -5 -16   -2.15    1.31
  11   5  16    0.21    0.78
 -12  -5 -16    0.28    1.41
  12   5  16    6.35    1.20
  13   5  16   -0.38    0.89
  14   5  16    0.13    1.00
  15   5  16   -0.07    1.14
  16   5  16    1.88    1.25
  17   5  16    0.47    1.42
  18   5  16   -0.58    1.61
   8  -6 -16    0.49    2.02
   6  -6 -16    0.30    1.63
   5  -6 -16    7.65    1.45
   4  -6 -16    2.70    1.28
   3  -6 -16    5.48    1.23
   1  -6 -16    0.88    1.30
   0  -6 -16    1.84    1.28
  -1  -6 -16   -0.99    1.21
  -2  -6 -16    2.42    1.16
  -3  -6 -16    1.55    1.11
  -4  -6 -16    9.92    1.47
  -5  -6 -16   13.28    1.56
  -6  -6 -16    0.15    1.14
  -7  -6 -16    1.76    1.15
  -8  -6 -16    9.32    1.32
  -9  -6 -16    7.68    1.59
 -10  -6 -16   -0.45    1.27
  10   6  16    0.17    0.71
 -11  -6 -16    2.05    1.33
  11   6  16    7.20    1.16
 -12  -6 -16   -1.35    1.38
  12   6  16   -0.18    0.86
  13   6  16    3.57    0.91
  14   6  16    1.73    1.00
  15   6  16    1.44    1.11
  16   6  16    1.83    1.26
  17   6  16    1.07    1.41
  18   6  16   -0.14    1.60
   7  -7 -16    4.98    1.98
   6  -7 -16   -1.47    1.80
   5  -7 -16    8.09    1.61
   4  -7 -16    3.12    1.43
   3  -7 -16    1.13    1.29
   2  -7 -16    1.98    1.26
   2  -7 -16    2.69    1.48
   1  -7 -16    1.14    1.37
   0  -7 -16    0.43    1.31
  -1  -7 -16    1.80    1.33
  -2  -7 -16    0.59    1.30
  -3  -7 -16   12.08    1.70
  -4  -7 -16    7.71    1.27
  -5  -7 -16    1.07    1.17
  -6  -7 -16    3.27    1.19
  -7  -7 -16    8.27    1.26
  -8  -7 -16   -1.73    1.21
  -9  -7 -16   -1.07    1.26
 -10  -7 -16    4.26    1.32
  10   7  16    4.26    0.80
 -11  -7 -16   -1.04    1.36
  11   7  16    0.93    0.88
 -12  -7 -16    1.47    1.42
  12   7  16    6.84    1.28
  13   7  16    1.07    0.96
  14   7  16    2.11    0.97
  15   7  16    0.17    1.10
  16   7  16    3.28    1.24
  17   7  16    1.64    1.42
  18   7  16    3.38    1.60
   6  -8 -16   -0.94    1.96
   5  -8 -16    6.75    1.77
   4  -8 -16    1.66    1.54
   3  -8 -16    2.79    1.45
   2  -8 -16    0.58    1.29
   2  -8 -16    2.47    1.66
   1  -8 -16    0.73    1.55
   0  -8 -16    8.01    1.50
  -1  -8 -16    9.87    1.81
  -3  -8 -16   -0.62    1.34
  -4  -8 -16    5.15    1.33
  -5  -8 -16    6.43    1.33
  -6  -8 -16    2.27    1.29
  -7  -8 -16    2.49    1.29
  -8  -8 -16   -0.92    1.27
  -9  -8 -16    8.33    1.65
 -10  -8 -16   -0.56    1.33
 -11  -8 -16   -0.59    1.38
  14   8  16    1.43    1.07
  17   8  16    1.52    1.39
   4  -9 -16    5.53    1.70
   3  -9 -16    2.09    2.02
   3  -9 -16    0.02    1.55
   2  -9 -16    3.06    1.48
   2  -9 -16    5.29    1.92
   1  -9 -16    3.64    1.44
   1  -9 -16    2.80    1.76
   0  -9 -16   15.33    2.08
  -1  -9 -16    4.56    1.56
  -2  -9 -16   11.82    1.92
  -3  -9 -16    5.76    1.44
  -4  -9 -16    1.45    1.39
  -5  -9 -16    0.73    1.33
  -6  -9 -16    4.68    1.42
  -7  -9 -16    6.68    1.40
  -8  -9 -16    3.98    1.39
  -9  -9 -16   -0.04    1.38
 -10  -9 -16    5.82    1.43
 -11  -9 -16   -0.95    1.43
 -12  -9 -16    6.35    1.51
  14   9  16    8.77    1.60
   4 -10 -16   -1.83    1.90
   2 -10 -16    0.33    2.08
   1 -10 -16    3.02    2.02
   0 -10 -16    7.84    1.90
  -1 -10 -16    1.77    1.73
  -2 -10 -16    2.76    1.64
  -3 -10 -16   -0.86    1.59
  -4 -10 -16   -1.16    1.51
  -5 -10 -16    5.97    1.50
  -6 -10 -16    2.51    1.43
  -7 -10 -16   -0.39    1.46
  -8 -10 -16   -1.41    1.45
  -9 -10 -16    9.78    1.57
 -10 -10 -16   -0.55    1.49
 -12 -10 -16   -1.58    1.53
   3 -11 -16   -1.34    2.41
   3 -11 -16    0.94    1.93
   2 -11 -16    1.04    2.42
   1 -11 -16    4.27    2.23
   0 -11 -16    3.82    2.09
  -1 -11 -16    3.61    1.97
  -2 -11 -16    0.70    1.90
  -3 -11 -16    3.96    1.76
  -4 -11 -16    4.25    1.72
  -5 -11 -16    3.11    1.63
  -6 -11 -16    2.86    1.62
  -7 -11 -16   -2.01    1.59
  -8 -11 -16   11.62    1.68
  -9 -11 -16    1.68    1.57
 -10 -11 -16    3.30    1.57
 -11 -11 -16    1.78    1.57
 -12 -11 -16    1.50    1.58
 -13 -11 -16    0.37    1.65
  16  11  16    0.41    1.06
   2 -12 -16    0.20    2.49
   1 -12 -16    0.06    2.49
   0 -12 -16    0.01    2.41
  -1 -12 -16    0.69    2.20
  -2 -12 -16    1.13    2.09
  -3 -12 -16    2.30    2.04
  -4 -12 -16    4.16    1.94
  -5 -12 -16   11.60    2.27
  -6 -12 -16    1.97    1.79
  -7 -12 -16    2.38    1.69
  -8 -12 -16    4.28    1.70
  -9 -12 -16   12.26    2.14
 -10 -12 -16    3.79    1.69
 -11 -12 -16    2.69    1.68
 -12 -12 -16    5.48    1.71
 -13 -12 -16    1.88    1.72
   1 -13 -16   -1.24    2.62
   0 -13 -16   -1.99    2.50
  -1 -13 -16   -2.36    2.55
  -2 -13 -16    3.95    2.44
  -3 -13 -16    0.84    2.27
  -4 -13 -16    4.40    2.13
  -5 -13 -16    5.91    2.08
  -6 -13 -16   11.42    2.39
  -7 -13 -16    2.63    1.91
  -8 -13 -16    1.77    1.87
  -9 -13 -16    0.77    1.87
 -10 -13 -16   -2.26    1.83
 -11 -13 -16    3.49    1.84
 -12 -13 -16    1.92    1.84
 -13 -13 -16   -0.35    1.90
  -1 -14 -16   -0.72    2.66
  -2 -14 -16   -2.82    2.63
  -3 -14 -16    0.61    2.57
  -4 -14 -16    4.56    2.51
  -5 -14 -16    4.96    2.39
  -6 -14 -16   -0.96    2.21
  -7 -14 -16    0.25    2.12
  -8 -14 -16    4.83    2.07
  -9 -14 -16    4.21    2.01
 -10 -14 -16    0.48    1.95
 -11 -14 -16   -0.52    1.94
 -12 -14 -16    1.27    1.94
 -13 -14 -16    2.73    1.99
  -3 -15 -16   -0.89    2.78
  -4 -15 -16   -3.82    2.67
  -6 -15 -16   -0.11    2.54
  -7 -15 -16    1.41    2.46
  -8 -15 -16    7.25    2.38
  -9 -15 -16    2.55    2.29
 -10 -15 -16    0.80    2.23
 -11 -15 -16    4.82    2.21
 -12 -15 -16    2.27    2.20
  -8 -16 -16    0.42    2.58
  -9 -16 -16    4.53    2.53
  -3 -14  17   -2.94    3.01
  -2 -14  17    7.31    3.10
  -1 -14  17    2.45    3.19
   0 -14  17   -2.45    3.21
   1 -14  17   -5.00    3.36
   2 -14  17    0.46    3.43
   6  13 -17   -1.89    1.15
  -5 -13  17    7.68    2.78
  -4 -13  17    2.98    2.71
  -3 -13  17    1.30    2.77
  -2 -13  17   -1.68    2.87
  -1 -13  17    0.55    2.91
   0 -13  17    5.01    3.04
   1 -13  17    0.54    3.08
   2 -13  17    0.04    3.15
   3 -13  17   -0.59    3.22
   4 -13  17    2.65    3.31
   5 -13  17    3.29    3.43
   7  12 -17   -1.19    1.15
   6  12 -17    0.12    1.07
   5  12 -17   -0.78    1.00
   4  12 -17    0.44    0.94
  -4 -12  17    2.91    2.49
   3  12 -17    0.44    0.93
  -3 -12  17    1.71    2.49
  -2 -12  17    0.50    2.60
  -1 -12  17   -1.60    2.68
   0 -12  17    2.32    2.74
   1 -12  17    0.10    2.81
   2 -12  17    4.95    2.92
   3 -12  17    7.68    2.96
   4 -12  17    1.79    3.04
   5 -12  17    5.45    3.14
   6 -12  17    3.39    3.24
   7 -12  17    1.33    3.32
   8  11 -17    0.81    1.19
   7  11 -17   -1.06    1.07
   6  11 -17   -0.16    1.00
   5  11 -17   -0.16    0.93
   4  11 -17   -0.51    0.86
  -4 -11  17   -2.90    2.31
   3  11 -17   -0.38    0.82
  -3 -11  17    2.72    2.27
   2  11 -17   -0.94    0.81
  -2 -11  17    0.25    2.30
  -1 -11  17    1.93    2.43
   0 -11  17    1.49    2.46
   1 -11  17    1.02    2.55
   2 -11  17    2.30    2.63
   3 -11  17    0.29    2.70
   4 -11  17    7.91    2.78
   5 -11  17    1.93    2.83
   6 -11  17    3.49    2.92
   7 -11  17    0.72    2.99
   8 -11  17    1.11    3.10
   9  10 -17    1.20    1.21
   8  10 -17    1.08    1.11
   7  10 -17   -0.96    1.01
   6  10 -17    0.54    0.95
   5  10 -17   -1.30    0.87
   4  10 -17    0.59    0.81
  -4 -10  17    2.61    2.05
   3  10 -17    0.37    0.75
  -3 -10  17    2.26    2.11
  -2 -10  17    3.39    2.11
  -1 -10  17    2.82    2.07
   0 -10  17    2.00    2.23
   1 -10  17    5.46    2.30
   2 -10  17   -3.90    2.33
   3 -10  17    7.17    2.41
   4 -10  17    1.98    2.48
   5 -10  17    1.57    2.53
   6 -10  17    1.78    2.64
   7 -10  17    2.97    2.73
   8 -10  17    0.62    2.79
   9 -10  17    4.15    2.85
   9   9 -17    0.99    1.11
   8   9 -17    1.10    1.01
   7   9 -17   -0.43    0.95
   6   9 -17   -0.65    0.89
   5   9 -17    0.65    0.83
   4   9 -17    1.70    0.76
   3   9 -17   -0.58    0.70
  -3  -9  17    2.03    1.86
   2   9 -17   -0.40    0.66
  -2  -9  17    1.28    1.92
  -1  -9  17    3.84    1.95
   0  -9  17    6.30    1.95
   1  -9  17    4.13    1.94
   2  -9  17    2.50    2.00
   3  -9  17    1.25    2.14
   4  -9  17    7.16    2.22
   5  -9  17    1.38    2.26
   6  -9  17    2.80    2.37
   7  -9  17    1.90    2.42
   8  -9  17    6.19    2.55
   9  -9  17    4.50    2.68
  10  -9  17   -0.12    2.79
  10   8 -17    0.90    1.15
   9   8 -17    1.78    1.07
   8   8 -17   -0.85    1.00
   7   8 -17    0.05    0.91
   6   8 -17    0.07    0.86
   5   8 -17    1.21    0.77
   4   8 -17    0.65    0.70
  -4  -8  17   -0.57    1.72
   3   8 -17    1.66    0.68
  -3  -8  17    2.37    1.76
   2   8 -17    8.90    1.11
  -2  -8  17   10.62    1.77
  -1  -8  17    1.30    1.67
   0  -8  17    3.10    1.78
   1  -8  17    1.17    1.81
   2  -8  17    1.81    1.80
   3  -8  17    4.86    1.82
   4  -8  17    3.06    1.88
   5  -8  17    2.70    1.94
   6  -8  17    2.80    2.06
   7  -8  17    8.40    2.22
   8  -8  17    0.12    2.33
   9  -8  17   -0.05    2.48
  10  -8  17    4.72    2.58
  11  -8  17   -1.04    2.68
   5   7 -17    1.87    0.76
   4   7 -17   -0.23    0.70
   3   7 -17    0.16    0.65
  -3  -7  17    0.81    1.58
   2   7 -17    0.13    0.57
  -2  -7  17    1.09    1.62
   1   7 -17    2.52    0.55
  -1  -7  17    3.89    1.62
   0  -7  17    1.98    1.56
   1  -7  17    0.16    1.51
   2  -7  17    1.81    1.67
   3  -7  17    0.88    1.66
   4  -7  17    8.43    1.80
   5  -7  17   -0.03    1.80
   6  -7  17   -0.75    1.90
   7  -7  17    0.17    2.03
   8  -7  17    7.56    2.17
   9  -7  17    3.79    2.25
  10  -7  17    4.36    2.32
  11  -7  17    3.70    2.47
  -2  -6  17    1.86    1.43
   1   6 -17    0.14    0.53
  -1  -6  17    0.91    1.40
   0   6 -17    0.30    0.49
   0  -6  17   -0.84    1.48
   1  -6  17    2.79    1.51
   2  -6  17    0.12    1.42
   3  -6  17   14.20    1.90
   4  -6  17    2.05    1.45
   5  -6  17   10.17    1.93
   6  -6  17    8.63    1.66
   7  -6  17    3.85    1.73
   8  -6  17    0.96    1.85
   9  -6  17    1.73    2.00
  10  -6  17    2.59    1.10
  10  -6  17   -0.58    2.10
  11  -6  17   -0.09    2.23
  12  -6  17    2.56    1.24
  12  -6  17   -1.13    2.37
  13  -6  17    0.08    1.36
  10   5 -17    3.58    2.05
   3   5 -17   -0.78    1.18
   0  -5  17    8.19    1.61
   1  -5  17    0.07    1.26
   2  -5  17    1.37    1.28
   3  -5  17    0.67    1.38
   4  -5  17    8.96    1.51
   5  -5  17    0.82    1.47
   6  -5  17    0.31    1.55
   6  -5  17    0.29    0.85
   7  -5  17    2.47    1.64
   8  -5  17   -1.36    1.76
   8  -5  17    1.96    1.00
   9  -5  17    5.68    1.93
   9  -5  17    9.27    1.31
  10  -5  17   -1.16    1.91
  10  -5  17    1.72    1.03
  11  -5  17    2.45    2.05
  12  -5  17    5.38    2.26
  13  -5  17    2.16    1.28
  14  -5  17    1.02    1.39
  10   4 -17    4.11    2.00
   9   4 -17    1.69    1.85
   8   4 -17    2.25    1.43
   7   4 -17    0.77    1.25
   3   4 -17    0.85    1.14
   2   4 -17   -0.21    1.11
   1   4 -17   -0.28    0.89
   1   4 -17   -0.33    1.12
   2  -4  17    1.08    1.16
   3  -4  17   10.27    1.55
   4  -4  17    2.69    1.21
   5  -4  17    2.77    1.26
   6  -4  17    6.46    1.37
   6  -4  17    4.97    0.80
   7  -4  17    3.63    1.43
   7  -4  17    2.82    0.85
   8  -4  17    1.29    0.91
   8  -4  17    2.54    1.52
   9  -4  17    2.23    0.91
   9  -4  17    2.06    1.65
  10  -4  17    4.30    1.80
  11  -4  17    0.88    1.03
  11  -4  17    1.17    1.92
  12  -4  17    2.91    1.11
  13  -4  17    0.66    1.21
  14  -4  17    0.35    1.33
  15  -4  17    0.27    1.52
  10   3 -17    4.21    2.02
   9   3 -17   -1.26    1.84
   8   3 -17    2.67    1.49
   6   3 -17   -0.06    1.08
   2   3 -17    0.79    0.84
   2   3 -17    1.00    1.08
   1   3 -17   -0.34    1.05
   1   3 -17    0.25    0.83
   0   3 -17    7.52    0.88
   0   3 -17    7.47    1.36
  -1   3 -17    8.57    1.04
  -1   3 -17   10.54    1.46
   6  -3  17    0.67    0.67
   7  -3  17    0.77    0.77
   8  -3  17    0.45    0.87
   9  -3  17   22.86    1.50
  10  -3  17    0.59    0.91
  11  -3  17    0.83    0.96
  12  -3  17    1.03    1.06
  13  -3  17    1.49    1.15
  14  -3  17    1.85    1.26
  15  -3  17   -1.23    1.43
  10   2 -17    3.26    2.00
   9   2 -17   -0.09    1.85
   8   2 -17    4.46    1.53
   7   2 -17    1.43    1.32
   6   2 -17    1.44    1.12
   2   2 -17    5.69    1.07
   1   2 -17    2.74    0.86
   1   2 -17    2.21    0.69
   0   2 -17   -0.21    1.01
   0   2 -17    1.42    0.80
  -1   2 -17   -0.18    1.01
  -1   2 -17   -0.56    0.80
  -2   2 -17    3.19    0.83
  -2   2 -17    3.65    1.06
  -3   2 -17    2.86    0.83
  -3   2 -17    2.95    1.05
  -4   2 -17    0.04    1.08
  -4   2 -17   -0.42    0.85
  -5   2 -17    0.47    1.12
  -5   2 -17    0.51    0.88
  -6   2 -17    4.25    0.91
  -6   2 -17    3.32    1.19
   7  -2  17    2.61    0.75
   8  -2  17   16.71    1.30
  -9   2 -17    0.10    1.43
  -9   2 -17    1.47    1.03
   9  -2  17    2.96    0.82
 -10   2 -17    8.22    1.65
 -10   2 -17    8.26    1.12
  10  -2  17    8.30    1.19
 -11   2 -17   -0.32    1.13
 -11   2 -17   -0.62    1.76
  11  -2  17    1.49    0.93
  12  -2  17   -0.15    1.02
  13  -2  17    0.76    1.08
  14  -2  17    0.24    1.19
  15  -2  17    0.43    1.38
  16  -2  17    1.54    1.54
  10   1 -17    4.02    2.08
   9   1 -17    1.89    1.90
   8   1 -17    2.93    1.59
   7   1 -17    7.72    1.39
   6   1 -17    4.01    1.20
   5   1 -17    2.71    1.09
   2   1 -17    5.68    1.22
   1   1 -17    2.09    0.96
   0   1 -17    6.66    1.24
  -1   1 -17    3.36    0.93
  -1   1 -17    3.36    0.72
  -2   1 -17    0.73    0.80
  -2   1 -17    1.32    0.62
  -3   1 -17    0.04    0.79
  -3   1 -17   -0.84    1.01
  -4   1 -17    0.70    1.02
  -4   1 -17   -0.09    0.78
  -5   1 -17   18.42    1.59
  -5   1 -17   16.89    1.11
  -6   1 -17   -0.02    1.08
  -6   1 -17    1.12    0.85
  -7   1 -17    3.90    0.91
  -7   1 -17    4.68    1.19
   7  -1  17    5.86    0.93
  -8   1 -17    0.90    0.93
  -8   1 -17    0.59    1.23
   8  -1  17    1.75    0.72
  -9   1 -17   12.63    1.79
  -9   1 -17    8.70    1.14
   9  -1  17   11.30    1.25
 -10   1 -17    1.24    1.46
 -10   1 -17    1.45    1.00
  10  -1  17    2.95    0.79
 -11   1 -17    3.46    1.59
 -11   1 -17    1.03    1.06
  11  -1  17    2.99    0.90
 -12   1 -17    1.06    1.72
  12  -1  17    1.90    0.97
  13  -1  17    1.81    1.05
  14  -1  17   -1.11    1.16
  15  -1  17    0.32    1.33
  16  -1  17   -2.61    1.49
  10   0 -17    5.82    2.11
   9   0 -17   -3.08    1.92
   8   0 -17    8.78    1.68
   7   0 -17    2.30    1.44
   6   0 -17    2.28    1.27
   5   0 -17    0.28    1.11
   2   0 -17    1.56    1.11
   1   0 -17    0.58    1.08
   0   0 -17    5.99    1.15
  -1   0 -17    3.64    0.93
  -2   0 -17    1.36    0.92
  -3   0 -17   -0.67    0.94
  -3   0 -17    1.01    0.75
  -4   0 -17    6.48    0.78
  -4   0 -17    7.28    1.21
  -5   0 -17    1.43    0.65
  -5   0 -17    0.21    0.83
  -6   0 -17   11.17    0.84
  -7   0 -17    1.33    0.68
  -7   0 -17    1.38    0.91
   7   0  17    1.74    0.59
  -8   0 -17    7.88    1.05
   8   0  17    6.58    1.05
  -9   0 -17    0.28    1.07
  -9   0 -17    0.56    0.72
   9   0  17   -0.04    0.77
 -10   0 -17    0.58    1.21
 -10   0 -17    0.98    0.78
  10   0  17    2.39    0.79
 -11   0 -17    3.44    0.83
 -11   0 -17    4.70    1.44
  11   0  17    2.48    0.86
  12   0  17   -0.93    0.92
  13   0  17    2.41    1.03
  14   0  17    1.35    1.12
  15   0  17   -0.48    1.25
  16   0  17   -0.19    1.45
   9  -1 -17   -0.73    1.96
   8  -1 -17    0.46    1.72
   7  -1 -17    7.62    1.51
   6  -1 -17    1.96    1.32
   5  -1 -17    7.11    1.23
   2  -1 -17   -0.65    1.11
   1  -1 -17    0.87    1.04
   0  -1 -17    7.29    1.38
  -1  -1 -17    8.16    1.40
  -2  -1 -17    6.26    1.11
  -3  -1 -17    2.28    0.93
  -4  -1 -17    5.28    0.99
  -5  -1 -17   15.85    1.39
  -6  -1 -17    0.87    0.97
  -7  -1 -17    2.34    1.03
  -8  -1 -17    4.68    1.11
   8   1  17    6.61    1.06
  -9  -1 -17   10.68    1.57
   9   1  17    9.10    1.10
 -10  -1 -17    1.25    1.28
  10   1  17    0.83    0.76
 -11  -1 -17    2.40    1.42
  11   1  17    0.56    0.78
 -12  -1 -17    2.04    1.55
  12   1  17   -0.30    0.90
  13   1  17    1.23    1.00
  14   1  17    2.59    1.11
  15   1  17    1.05    1.23
  16   1  17    0.80    1.39
  17   1  17   -0.91    1.58
   9  -2 -17   -0.38    2.02
   8  -2 -17    5.62    1.85
   7  -2 -17   -0.15    1.58
   6  -2 -17    0.58    1.39
   5  -2 -17    1.43    1.19
   1  -2 -17   -0.90    1.14
   0  -2 -17   -0.66    1.05
  -1  -2 -17    0.69    0.99
  -2  -2 -17   13.10    1.50
  -3  -2 -17    0.17    0.91
  -4  -2 -17    1.62    0.99
  -5  -2 -17    2.18    1.01
  -6  -2 -17   27.47    1.75
  -7  -2 -17    2.74    1.04
   8   2  17    3.72    0.65
  -9  -2 -17    3.47    1.15
   9   2  17    0.81    0.69
  10   2  17    4.08    0.80
 -11  -2 -17    5.26    1.41
  11   2  17    3.26    0.81
  12   2  17    3.61    0.90
  13   2  17    0.97    0.98
  14   2  17    1.49    1.11
  15   2  17    2.19    1.21
  16   2  17   -0.43    1.36
  17   2  17    0.53    1.53
   8  -3 -17   -3.41    1.91
   7  -3 -17    4.20    1.64
   6  -3 -17    0.89    1.46
   5  -3 -17    5.56    1.33
   4  -3 -17    2.20    1.19
   1  -3 -17   -0.36    1.17
   0  -3 -17    1.95    1.14
  -1  -3 -17   10.56    1.53
  -2  -3 -17    3.59    1.06
  -3  -3 -17    0.72    0.98
  -4  -3 -17    1.61    0.96
  -5  -3 -17    2.52    1.03
  -6  -3 -17    1.06    1.00
  -7  -3 -17    2.12    1.01
  -8  -3 -17    0.34    1.02
  -9  -3 -17    4.08    1.11
   9   3  17    4.31    0.75
 -10  -3 -17    2.20    1.18
  10   3  17    2.60    0.74
 -11  -3 -17    3.18    1.33
  11   3  17    2.08    0.81
 -12  -3 -17    3.92    1.51
  12   3  17    3.28    0.83
  13   3  17    2.24    0.96
  14   3  17    0.46    1.06
  15   3  17   -0.26    1.20
  16   3  17    2.51    1.35
  17   3  17   -0.82    1.52
   8  -4 -17    2.47    2.03
   7  -4 -17    0.44    1.78
   6  -4 -17   -0.23    1.56
   5  -4 -17    2.33    1.41
   4  -4 -17    2.72    1.28
   1  -4 -17    4.67    1.27
   0  -4 -17    0.64    1.21
  -1  -4 -17    2.04    1.16
  -2  -4 -17    5.45    1.14
  -3  -4 -17   -1.27    1.10
  -4  -4 -17   -0.29    1.09
  -5  -4 -17   -0.35    1.08
  -6  -4 -17    4.23    1.13
  -7  -4 -17    8.22    1.49
  -8  -4 -17    3.76    1.09
  -9  -4 -17    6.39    1.20
   9   4  17    4.98    0.76
 -10  -4 -17    5.27    1.24
  10   4  17    8.02    1.13
 -11  -4 -17   16.66    1.88
  11   4  17   16.57    1.43
 -12  -4 -17    1.11    1.61
  12   4  17    3.25    0.87
  13   4  17    0.77    0.91
  14   4  17    1.85    1.06
  15   4  17    6.99    1.22
  16   4  17    0.02    1.33
  17   4  17   -0.13    1.49
   7  -5 -17    4.83    1.95
   6  -5 -17    7.25    1.69
   5  -5 -17    1.87    1.52
   4  -5 -17    1.46    1.35
   3  -5 -17    4.60    1.30
   2  -5 -17   13.49    1.89
   1  -5 -17    0.13    1.32
   0  -5 -17   -1.02    1.27
  -1  -5 -17    0.98    1.22
  -2  -5 -17    0.46    1.23
  -3  -5 -17   -0.21    1.18
  -4  -5 -17   -0.80    1.13
  -5  -5 -17    5.17    1.15
  -6  -5 -17    6.26    1.21
  -7  -5 -17   -0.25    1.20
  -8  -5 -17    8.49    1.34
  -9  -5 -17    1.11    1.37
 -10  -5 -17   13.04    1.93
  10   5  17   14.19    1.27
 -11  -5 -17   -0.82    1.44
  11   5  17    2.61    0.81
  12   5  17    2.60    0.92
  13   5  17    1.67    0.97
  14   5  17    3.50    1.04
  15   5  17    1.00    1.19
  16   5  17    1.02    1.32
  17   5  17    1.07    1.52
   6  -6 -17   -1.07    1.82
   5  -6 -17    6.33    1.65
   4  -6 -17    3.46    1.47
   3  -6 -17    6.40    1.40
   1  -6 -17    0.09    1.43
   0  -6 -17    3.91    1.43
  -1  -6 -17    1.68    1.34
  -2  -6 -17    4.69    1.32
  -3  -6 -17    1.14    1.25
  -4  -6 -17   -0.40    1.20
  -5  -6 -17   -0.20    1.25
  -6  -6 -17    6.03    1.29
  -7  -6 -17    4.98    1.28
  -8  -6 -17    3.94    1.32
  -9  -6 -17   -2.19    1.34
 -10  -6 -17   -0.78    1.39
  10   6  17    0.92    0.79
 -11  -6 -17   14.16    2.00
  11   6  17   19.95    1.52
  12   6  17    2.10    0.91
 -13  -6 -17   -0.34    1.57
  13   6  17    0.82    1.01
  14   6  17    1.83    1.06
  15   6  17    1.16    1.16
  16   6  17    1.13    1.30
  17   6  17    0.48    1.46
   6  -7 -17   10.43    2.04
   5  -7 -17    1.87    1.76
   4  -7 -17    0.61    1.62
   3  -7 -17    3.10    1.46
   2  -7 -17    4.81    1.43
   1  -7 -17   -1.71    1.49
   0  -7 -17    1.31    1.44
  -1  -7 -17    2.81    1.48
  -2  -7 -17    3.59    1.45
  -3  -7 -17    7.69    1.44
  -4  -7 -17    0.37    1.32
  -5  -7 -17    3.48    1.31
  -6  -7 -17    1.64    1.29
  -7  -7 -17    0.24    1.30
  -8  -7 -17    5.79    1.36
  -9  -7 -17    1.88    1.39
 -10  -7 -17    6.32    1.48
 -11  -7 -17   -2.08    1.48
  11   7  17    0.39    0.90
 -12  -7 -17    0.42    1.54
  12   7  17    2.48    1.01
  13   7  17    2.26    1.00
  14   7  17    9.44    1.67
  15   7  17    2.45    1.17
  16   7  17   -0.46    1.30
  17   7  17    3.57    1.44
   5  -8 -17    6.60    1.91
   4  -8 -17    4.26    1.73
   3  -8 -17    4.51    1.63
   2  -8 -17    2.77    1.84
   2  -8 -17    0.67    1.46
   1  -8 -17    0.93    1.68
   0  -8 -17    4.68    1.59
  -1  -8 -17   -0.66    1.52
  -2  -8 -17    8.91    1.52
  -3  -8 -17    5.43    1.55
  -4  -8 -17    1.07    1.47
  -5  -8 -17    4.00    1.45
  -6  -8 -17    5.15    1.44
  -7  -8 -17    5.68    1.46
  -8  -8 -17    0.04    1.41
  -9  -8 -17    1.84    1.43
 -10  -8 -17   -0.29    1.46
 -11  -8 -17    6.66    1.55
 -12  -8 -17   -1.26    1.54
  12   8  17    0.94    1.06
 -13  -8 -17   -1.88    1.62
  13   8  17    1.88    1.06
  14   8  17    2.07    1.11
  15   8  17    3.44    1.25
  16   8  17    3.95    1.30
  17   8  17    1.50    1.41
   4  -9 -17    4.34    1.88
   3  -9 -17    0.15    1.74
   2  -9 -17    7.01    2.10
   2  -9 -17    9.01    1.68
   1  -9 -17    5.06    1.90
   1  -9 -17    6.10    1.61
   0  -9 -17    1.81    1.75
  -1  -9 -17   -2.02    1.67
  -2  -9 -17    9.31    1.67
  -3  -9 -17    1.97    1.59
  -4  -9 -17    0.02    1.54
  -5  -9 -17    0.63    1.45
  -6  -9 -17   -0.67    1.54
  -7  -9 -17   -1.04    1.51
  -8  -9 -17    7.52    1.56
  -9  -9 -17    0.16    1.54
 -10  -9 -17    3.59    1.59
 -11  -9 -17   -0.74    1.57
 -12  -9 -17    1.62    1.61
 -13  -9 -17   -1.96    1.65
  15   9  17    2.49    1.23
  16   9  17    0.66    1.40
  17   9  17    5.73    1.51
   3 -10 -17    5.46    1.90
   2 -10 -17    0.51    1.79
   2 -10 -17    3.46    2.27
   1 -10 -17    9.48    2.17
   0 -10 -17    0.91    2.01
  -1 -10 -17    3.48    1.91
  -2 -10 -17    6.47    1.80
  -3 -10 -17    1.22    1.72
  -4 -10 -17   -0.18    1.67
  -5 -10 -17    2.01    1.62
  -6 -10 -17    0.41    1.59
  -7 -10 -17    3.68    1.63
  -8 -10 -17   -1.74    1.59
  -9 -10 -17   -0.96    1.61
 -10 -10 -17   -1.35    1.62
 -11 -10 -17    5.35    1.67
 -12 -10 -17   -2.22    1.67
 -13 -10 -17   -2.35    1.73
   2 -11 -17   13.01    2.68
   1 -11 -17    5.71    2.38
   0 -11 -17    3.35    2.31
  -1 -11 -17    1.97    2.15
  -2 -11 -17   -2.08    2.04
  -3 -11 -17    3.67    1.93
  -4 -11 -17    3.98    1.86
  -5 -11 -17    5.03    1.82
  -6 -11 -17    2.40    1.75
  -7 -11 -17    2.72    1.71
  -8 -11 -17    6.48    1.73
  -9 -11 -17    4.83    1.69
 -10 -11 -17    7.31    1.70
 -11 -11 -17    3.25    1.70
 -12 -11 -17    3.81    1.73
 -13 -11 -17    1.91    1.75
   1 -12 -17   -0.18    2.71
   0 -12 -17    6.43    2.59
  -1 -12 -17    0.46    2.37
  -2 -12 -17    3.50    2.32
  -3 -12 -17    4.55    2.19
  -4 -12 -17    3.90    2.14
  -5 -12 -17    1.80    1.99
  -6 -12 -17    2.17    1.89
  -7 -12 -17    9.40    1.96
  -8 -12 -17    1.47    1.88
  -9 -12 -17    4.87    1.86
 -10 -12 -17    2.42    1.85
 -11 -12 -17    2.83    1.84
 -12 -12 -17    1.98    1.86
 -13 -12 -17    1.57    1.88
  -1 -13 -17    1.12    2.74
  -2 -13 -17    3.51    2.61
  -3 -13 -17    1.96    2.42
  -4 -13 -17    4.40    2.32
  -5 -13 -17    3.61    2.28
  -6 -13 -17    2.35    2.15
  -7 -13 -17    0.50    2.12
  -8 -13 -17    4.93    2.07
  -9 -13 -17    2.71    2.03
 -10 -13 -17    1.67    1.96
 -11 -13 -17   -0.01    1.94
 -12 -13 -17    2.01    1.96
 -13 -13 -17    2.13    2.03
 -14 -13 -17    0.63    2.07
  -3 -14 -17    5.00    2.82
  -4 -14 -17    8.15    2.71
  -5 -14 -17    0.56    2.51
  -6 -14 -17    1.34    2.39
  -7 -14 -17    4.09    2.34
  -8 -14 -17    1.65    2.26
  -9 -14 -17   -0.83    2.21
 -10 -14 -17    2.46    2.19
 -11 -14 -17    3.90    2.14
 -12 -14 -17    3.79    2.15
 -13 -14 -17    3.64    2.17
  -5 -15 -17   -2.92    2.82
  -6 -15 -17   -0.60    2.76
  -7 -15 -17    5.64    2.65
  -8 -15 -17    1.86    2.56
  -9 -15 -17    1.50    2.44
 -10 -15 -17   -1.51    2.37
 -11 -15 -17    1.18    2.33
  -4 -13  18    1.26    2.90
  -3 -13  18    0.24    2.91
  -2 -13  18    1.80    3.00
  -1 -13  18   -0.74    3.14
   0 -13  18    2.09    3.21
   1 -13  18   -2.10    3.31
   2 -13  18    2.33    3.37
   3 -13  18   -0.68    3.46
   6  12 -18   -0.95    1.17
   5  12 -18    0.81    1.10
  -5 -12  18    0.51    2.68
  -3 -12  18   -0.24    2.71
  -2 -12  18    6.18    2.70
  -1 -12  18   -1.42    2.77
   0 -12  18    3.85    2.90
   1 -12  18   -1.48    2.99
   2 -12  18   -3.42    3.09
   3 -12  18    3.87    3.13
   4 -12  18    2.40    3.25
   5 -12  18    0.15    3.32
   7  11 -18   -1.11    1.19
   6  11 -18    0.17    1.10
   5  11 -18   -0.43    1.03
   4  11 -18   -0.80    0.94
  -3 -11  18    1.31    2.46
  -2 -11  18    0.12    2.51
  -1 -11  18    7.24    2.56
   0 -11  18    3.49    2.61
   1 -11  18    0.65    2.70
   2 -11  18    8.92    2.80
   3 -11  18    1.25    2.88
   4 -11  18    0.72    2.94
   5 -11  18   -0.50    3.03
   6 -11  18    6.65    3.12
   7 -11  18    2.76    3.21
   8  10 -18    0.04    1.23
   7  10 -18   -0.07    1.11
   6  10 -18   -0.26    1.05
   5  10 -18   -1.37    0.96
   4  10 -18   -0.37    0.88
   3  10 -18    0.12    0.82
  -3 -10  18    1.25    2.23
  -2 -10  18    3.49    2.27
  -1 -10  18    1.64    2.34
   0 -10  18    1.38    2.37
   1 -10  18    5.56    2.40
   2 -10  18    1.08    2.41
   3 -10  18    1.24    2.51
   4 -10  18    0.16    2.58
   5 -10  18    4.50    2.67
   6 -10  18    4.82    2.79
   7 -10  18    5.76    2.88
   8 -10  18    2.81    3.00
   9 -10  18    4.67    3.15
   8   9 -18    1.49    1.12
   7   9 -18    0.50    1.04
   6   9 -18   -0.16    1.00
   5   9 -18   -0.71    0.92
   4   9 -18    0.71    0.84
   3   9 -18   -1.10    0.77
  -3  -9  18    0.88    2.03
   2   9 -18    0.12    0.73
  -2  -9  18    1.45    2.04
  -1  -9  18    2.17    2.01
   0  -9  18    1.38    2.16
   1  -9  18    0.04    2.20
   2  -9  18    4.01    2.23
   3  -9  18    2.00    2.26
   4  -9  18    3.89    2.34
   5  -9  18    1.99    2.43
   6  -9  18   13.91    2.88
   7  -9  18    2.13    2.66
   8  -9  18    1.44    2.77
   9  -9  18   -1.59    2.89
  10  -9  18    4.39    2.97
   9   8 -18   -0.13    1.17
   8   8 -18   -1.44    1.10
   7   8 -18   -0.20    1.01
   6   8 -18    1.10    0.94
   5   8 -18    0.56    0.85
   4   8 -18   -0.83    0.77
   3   8 -18   -0.42    0.75
  -3  -8  18    3.37    1.87
   2   8 -18    2.68    0.69
  -2  -8  18    4.72    1.93
   1   8 -18   -0.17    0.62
  -1  -8  18    0.74    1.93
   0  -8  18    1.26    1.87
   1  -8  18    3.55    1.90
   2  -8  18    4.23    2.05
   3  -8  18    0.94    2.08
   4  -8  18   -0.60    2.15
   5  -8  18   -0.54    2.25
   6  -8  18    0.49    2.34
   7  -8  18    1.70    2.44
   8  -8  18    3.07    2.53
   9  -8  18    1.56    2.62
  10  -8  18    2.74    2.68
  11  -8  18    1.41    2.80
   5   7 -18    0.80    0.84
   4   7 -18   -0.17    0.77
   3   7 -18    2.72    0.72
  -2  -7  18    2.61    1.72
   1   7 -18    0.31    0.60
  -1  -7  18   -0.07    1.70
   0   7 -18    0.76    0.59
   0  -7  18   -1.18    1.78
   1  -7  18   -0.11    1.78
   2  -7  18    0.05    1.77
   3  -7  18    0.94    1.76
   4  -7  18    4.25    1.82
   5  -7  18    1.92    1.87
   6  -7  18   10.91    2.06
   7  -7  18    5.97    2.13
   8  -7  18    0.35    2.23
   9  -7  18    0.35    2.37
  10  -7  18    0.32    2.47
  11  -7  18    0.58    2.54
  12  -7  18   -1.44    2.69
  12  -7  18    1.41    1.43
   2   6 -18    1.49    0.65
   1   6 -18    0.06    0.60
  -1  -6  18   -0.05    1.55
   0   6 -18   -0.35    0.54
   0  -6  18   -0.87    1.57
   1  -6  18    0.80    1.54
   2  -6  18    0.20    1.66
   3  -6  18   -0.05    1.69
   4  -6  18    2.44    1.74
   5  -6  18    7.24    1.84
   6  -6  18   -0.49    1.88
   7  -6  18   -2.57    1.97
   8  -6  18    7.80    2.10
   9  -6  18    0.36    2.22
  10  -6  18   -1.62    2.29
  10  -6  18    2.86    1.23
  11  -6  18   -2.05    2.38
  12  -6  18    5.49    2.56
  13  -6  18    0.31    1.47
   9   5 -18    1.75    2.06
   7   5 -18    0.76    1.46
   2   5 -18   -0.20    1.26
   2   5 -18   -1.91    1.01
   1  -5  18    1.72    1.42
   2  -5  18    6.41    1.50
   3  -5  18    3.44    1.45
   4  -5  18    1.36    1.47
   5  -5  18   -1.39    1.55
   6  -5  18    2.83    1.66
   7  -5  18    6.66    1.76
   8  -5  18    0.95    1.86
   8  -5  18    2.73    1.09
   9  -5  18    3.74    1.96
   9  -5  18    1.77    1.15
  10  -5  18    1.93    1.13
  10  -5  18    5.26    2.10
  11  -5  18    4.61    2.28
  12  -5  18    1.35    1.27
  13  -5  18    0.70    1.38
   9   4 -18   -1.05    2.05
   8   4 -18    0.77    1.67
   7   4 -18    2.95    1.49
   6   4 -18    2.13    1.23
   3   4 -18    1.69    1.26
   1   4 -18   -0.33    1.20
   1   4 -18    0.35    0.95
   0   4 -18   -0.36    0.97
   0   4 -18   -1.39    1.21
   4  -4  18    6.71    1.48
   5  -4  18    1.53    1.39
   6  -4  18    1.51    1.48
   7  -4  18    0.76    0.92
   7  -4  18    1.61    1.56
   8  -4  18    5.86    1.70
   8  -4  18    9.54    1.50
   9  -4  18    4.50    1.80
   9  -4  18    3.38    1.08
  10  -4  18    9.48    1.56
  11  -4  18    0.70    1.11
  12  -4  18    4.19    1.20
  13  -4  18    2.23    1.32
  14  -4  18    3.12    1.42
   9   3 -18    0.67    2.03
   8   3 -18    2.53    1.74
   7   3 -18    1.05    1.51
   6   3 -18   -1.10    1.26
   1   3 -18    2.20    1.13
   1   3 -18    3.95    0.88
   0   3 -18    0.54    1.14
   0   3 -18    0.13    0.91
  -1   3 -18    2.28    0.92
  -1   3 -18    1.16    1.15
  -2   3 -18    2.87    1.21
  -2   3 -18    3.67    0.94
  -3   3 -18    1.26    0.94
  -3   3 -18    1.73    1.20
   7  -3  18    3.09    0.84
   8  -3  18    1.84    0.93
   9  -3  18    0.55    1.02
  10  -3  18    2.72    1.04
  11  -3  18    7.18    1.10
 -12   3 -18   -0.17    2.18
  12  -3  18    1.29    1.13
 -13   3 -18   -2.83    2.40
  13  -3  18    1.67    1.25
  14  -3  18    3.67    1.35
  15  -3  18    1.05    1.47
   9   2 -18    0.38    2.07
   8   2 -18    2.15    1.76
   7   2 -18    2.95    1.55
   6   2 -18    5.90    1.35
   2   2 -18    7.64    1.49
   1   2 -18    3.86    1.10
   0   2 -18    2.40    0.70
   0   2 -18    2.38    0.90
  -1   2 -18    0.71    0.85
  -1   2 -18    1.08    1.09
  -2   2 -18    0.07    1.10
  -2   2 -18   -0.30    0.86
  -3   2 -18    1.09    0.89
  -3   2 -18    2.71    1.12
  -4   2 -18   -0.05    0.91
  -4   2 -18   -0.64    1.16
  -5   2 -18    1.21    1.19
  -5   2 -18    0.16    0.94
  -6   2 -18    0.75    1.25
  -6   2 -18    0.04    0.96
  -7   2 -18    0.24    1.00
  -7   2 -18   -0.09    1.31
   7  -2  18    0.04    0.74
  -8   2 -18    1.39    1.41
  -8   2 -18    1.11    1.05
   8  -2  18    2.53    0.87
  -9   2 -18   -0.35    1.51
  -9   2 -18   -0.18    1.08
   9  -2  18    3.26    0.93
 -10   2 -18    2.58    1.14
 -10   2 -18    1.49    1.67
 -11   2 -18    0.24    1.86
 -11   2 -18   -0.65    1.21
  11  -2  18    0.92    0.98
 -12   2 -18    2.37    2.01
  12  -2  18    6.31    1.10
 -13   2 -18    1.97    2.06
  13  -2  18    1.52    1.19
  14  -2  18    0.86    1.31
  15  -2  18    2.75    1.41
   9   1 -18   -1.02    2.09
   8   1 -18    4.70    1.79
   7   1 -18    1.18    1.60
   6   1 -18    4.08    1.40
   5   1 -18   10.62    1.91
   1   1 -18    9.96    1.38
   0   1 -18    2.97    1.04
  -1   1 -18    0.33    1.02
  -2   1 -18    1.04    1.00
  -2   1 -18    0.64    0.79
  -3   1 -18    0.34    0.86
  -3   1 -18    0.65    0.68
  -4   1 -18    0.92    1.11
  -4   1 -18    0.91    0.87
  -5   1 -18    0.65    1.12
  -5   1 -18   -0.49    0.86
  -6   1 -18    0.80    1.17
  -6   1 -18    0.34    0.90
  -7   1 -18   11.80    1.15
  -7   1 -18   14.03    1.67
   7  -1  18   14.31    1.19
  -8   1 -18   -0.55    1.29
  -8   1 -18   -0.06    0.98
   8  -1  18    0.57    0.83
  -9   1 -18   -0.43    1.39
  -9   1 -18    0.20    1.02
   9  -1  18    0.85    0.86
 -10   1 -18    2.93    1.52
 -10   1 -18    0.37    1.05
  10  -1  18    3.96    0.95
 -11   1 -18   -0.22    1.10
 -11   1 -18   -0.77    1.68
  11  -1  18    1.32    0.92
 -12   1 -18    0.65    1.89
  12  -1  18    1.04    1.03
  13  -1  18    0.08    1.13
  14  -1  18    1.26    1.27
  15  -1  18    1.78    1.38
  16  -1  18    1.14    1.53
   9   0 -18   -3.59    2.12
   8   0 -18    4.55    1.85
   7   0 -18    0.68    1.64
   6   0 -18   12.24    2.17
   5   0 -18    0.74    1.30
   2   0 -18   12.59    1.81
   1   0 -18    1.19    1.23
   0   0 -18    5.66    1.25
  -1   0 -18    2.61    0.99
  -2   0 -18    2.45    0.97
  -3   0 -18    2.42    0.99
  -4   0 -18    7.71    1.31
  -5   0 -18   -0.29    1.01
  -5   0 -18   -0.05    0.79
  -6   0 -18    8.15    1.35
  -6   0 -18    7.49    0.97
  -7   0 -18   -0.31    0.96
  -7   0 -18    1.21    0.74
  -8   0 -18   12.96    0.99
  -8   0 -18   16.20    1.54
   8   0  18   16.01    1.25
  -9   0 -18    1.05    0.81
  -9   0 -18    2.00    1.19
   9   0  18    2.09    0.81
 -10   0 -18    0.80    1.31
 -10   0 -18    1.68    0.85
  10   0  18   -0.48    0.93
 -11   0 -18    1.02    1.56
 -11   0 -18    1.41    1.00
  11   0  18    3.60    0.96
  12   0  18    0.76    0.97
 -13   0 -18    1.37    1.90
  13   0  18   -0.11    1.11
  14   0  18    3.10    1.22
  15   0  18    2.27    1.34
  16   0  18    1.31    1.49
   8  -1 -18    0.69    1.93
   7  -1 -18    1.98    1.71
   6  -1 -18    0.66    1.54
   5  -1 -18    2.90    1.31
   2  -1 -18   -0.29    1.28
   1  -1 -18    8.21    1.70
   0  -1 -18    8.67    1.29
  -1  -1 -18    0.53    1.06
  -2  -1 -18    1.53    1.15
  -3  -1 -18    1.22    1.08
  -4  -1 -18    4.42    1.02
  -5  -1 -18    3.43    1.02
  -6  -1 -18    0.72    1.03
  -7  -1 -18    7.44    1.42
  -8  -1 -18    0.44    1.16
   8   1  18   -0.91    0.67
  -9  -1 -18    2.22    1.25
   9   1  18    1.72    0.80
 -10  -1 -18    2.96    1.34
  10   1  18    1.37    0.84
 -11  -1 -18    7.04    1.53
  11   1  18    6.68    0.98
 -12  -1 -18    0.90    1.62
  12   1  18    2.16    0.93
 -13  -1 -18    1.19    1.75
  13   1  18    0.43    1.06
  14   1  18    1.29    1.18
  15   1  18    1.52    1.33
  16   1  18    3.26    1.46
   8  -2 -18   -1.00    2.04
   7  -2 -18    1.58    1.80
   6  -2 -18    6.64    1.64
   5  -2 -18    4.19    1.41
   1  -2 -18    3.13    1.26
   0  -2 -18   -1.00    1.20
  -1  -2 -18    3.66    1.16
  -2  -2 -18    4.13    1.20
  -3  -2 -18    4.83    1.13
  -4  -2 -18    8.65    1.56
  -5  -2 -18    0.35    1.12
  -6  -2 -18    2.28    1.17
  -7  -2 -18    1.22    1.21
  -8  -2 -18    7.38    1.48
  -9  -2 -18    2.22    1.22
   9   2  18    2.00    0.73
 -10  -2 -18    6.23    1.36
  10   2  18    3.91    0.85
 -11  -2 -18    1.04    1.56
  11   2  18    0.50    0.94
 -12  -2 -18    2.15    1.65
  12   2  18    2.93    0.98
  13   2  18    5.08    1.04
  14   2  18    2.43    1.16
  15   2  18    0.42    1.28
  16   2  18   -0.51    1.46
   8  -3 -18   -2.96    2.15
   7  -3 -18    2.46    1.85
   6  -3 -18    0.07    1.70
   5  -3 -18    1.25    1.51
   4  -3 -18    2.74    1.37
   3  -3 -18    0.16    1.41
   2  -3 -18   -1.38    1.35
   1  -3 -18    0.25    1.31
   0  -3 -18   13.48    1.78
  -1  -3 -18    0.11    1.22
  -2  -3 -18   -0.61    1.21
  -3  -3 -18    3.51    1.16
  -4  -3 -18    1.77    1.08
  -5  -3 -18    0.91    1.15
  -6  -3 -18    2.41    1.15
  -7  -3 -18    4.14    1.19
  -8  -3 -18    2.17    1.19
  -9  -3 -18    1.36    1.24
   9   3  18    0.02    0.72
 -10  -3 -18    1.07    1.32
  10   3  18    1.94    0.85
 -11  -3 -18   10.64    1.97
  11   3  18   10.79    1.38
  12   3  18   10.69    1.51
  13   3  18    1.63    0.99
  14   3  18    5.16    1.16
  15   3  18    1.16    1.26
  16   3  18    0.82    1.43
  17   3  18    0.36    1.60
   7  -4 -18    0.30    1.99
   6  -4 -18    4.87    1.80
   5  -4 -18    3.18    1.64
   4  -4 -18    1.01    1.41
   2  -4 -18    0.92    1.43
   1  -4 -18    6.12    1.43
   0  -4 -18    0.62    1.34
  -1  -4 -18    0.72    1.29
  -2  -4 -18    0.02    1.24
  -3  -4 -18    4.38    1.26
  -4  -4 -18    5.34    1.26
  -5  -4 -18    0.98    1.23
  -6  -4 -18    0.59    1.23
  -7  -4 -18    1.39    1.26
  -8  -4 -18    1.23    1.32
  -9  -4 -18    4.71    1.28
 -10  -4 -18   -0.04    1.33
  10   4  18    0.71    0.81
 -11  -4 -18   -0.21    1.65
  11   4  18    1.40    0.87
 -12  -4 -18    1.60    1.74
  12   4  18    0.65    1.01
  13   4  18   12.78    1.58
  14   4  18    1.64    1.08
  15   4  18    1.51    1.23
  16   4  18    0.72    1.40
  17   4  18    0.97    1.58
   7  -5 -18    0.41    2.16
   6  -5 -18    4.17    1.90
   5  -5 -18    1.75    1.73
   4  -5 -18   13.05    2.30
   3  -5 -18    0.75    1.47
   2  -5 -18    2.54    1.55
   1  -5 -18    0.95    1.47
   0  -5 -18    9.18    1.89
  -1  -5 -18    0.19    1.36
  -2  -5 -18   -0.11    1.35
  -3  -5 -18   -0.36    1.33
  -4  -5 -18    3.47    1.29
  -5  -5 -18    1.98    1.27
  -6  -5 -18    0.54    1.31
  -7  -5 -18    1.46    1.36
  -8  -5 -18    8.77    1.47
  -9  -5 -18   -1.95    1.49
 -10  -5 -18    3.16    1.59
  10   5  18    2.60    0.84
 -11  -5 -18   -1.70    1.58
  11   5  18    0.37    0.87
 -12  -5 -18    2.92    1.68
  13   5  18    1.34    1.10
  14   5  18   11.03    1.68
  15   5  18    1.83    1.21
  16   5  18    3.55    1.38
  17   5  18    1.15    1.53
   6  -6 -18    3.41    2.02
   5  -6 -18    1.55    1.84
   4  -6 -18   -0.59    1.69
   3  -6 -18    8.99    1.60
   2  -6 -18   -0.76    1.61
   1  -6 -18   -0.08    1.59
   0  -6 -18    0.11    1.56
  -1  -6 -18    5.88    1.50
  -2  -6 -18   -0.13    1.42
  -3  -6 -18    2.74    1.39
  -4  -6 -18    1.86    1.35
  -5  -6 -18    7.09    1.45
  -6  -6 -18   -0.73    1.38
  -7  -6 -18   -1.03    1.40
  -8  -6 -18    3.15    1.46
  -9  -6 -18    8.59    1.56
 -10  -6 -18   -1.47    1.54
 -11  -6 -18   -1.79    1.61
  11   6  18    0.23    0.93
 -12  -6 -18   -2.84    1.61
  12   6  18    1.88    1.04
 -13  -6 -18   -1.19    1.70
  13   6  18    4.22    1.07
  14   6  18    1.47    1.21
  15   6  18    2.74    1.26
  16   6  18    1.63    1.36
  17   6  18    2.53    1.53
   5  -7 -18    3.87    1.96
   4  -7 -18    6.15    1.84
   3  -7 -18    3.07    1.65
   2  -7 -18    4.14    1.75
   2  -7 -18   -0.31    1.60
   1  -7 -18   -0.61    1.66
   0  -7 -18    6.10    1.59
  -1  -7 -18   -2.51    1.61
  -2  -7 -18    0.88    1.58
  -3  -7 -18   -0.41    1.52
  -4  -7 -18    8.29    1.51
  -5  -7 -18    7.50    1.49
  -6  -7 -18   -0.25    1.44
  -7  -7 -18   -1.08    1.46
  -8  -7 -18    0.54    1.49
  -9  -7 -18   -0.60    1.51
 -10  -7 -18   10.48    1.66
 -11  -7 -18   -0.57    1.61
 -12  -7 -18   -0.12    1.67
  12   7  18    3.53    1.09
 -13  -7 -18   -2.35    1.72
  13   7  18    1.57    1.10
  14   7  18    9.29    1.76
  15   7  18    1.60    1.30
  16   7  18   10.26    1.96
  17   7  18    2.59    1.50
   4  -8 -18    3.09    1.91
   3  -8 -18    5.30    1.81
   2  -8 -18    0.08    1.62
   2  -8 -18    3.96    1.91
   1  -8 -18    3.52    1.81
   0  -8 -18    4.09    1.73
  -1  -8 -18    3.95    1.69
  -2  -8 -18    2.04    1.59
  -3  -8 -18   -0.36    1.67
  -4  -8 -18    1.79    1.63
  -5  -8 -18    6.33    1.62
  -6  -8 -18    0.44    1.57
  -7  -8 -18   -0.69    1.56
  -8  -8 -18   -1.26    1.55
  -9  -8 -18    5.12    1.58
 -10  -8 -18   -0.91    1.60
 -11  -8 -18   -0.45    1.64
 -12  -8 -18   -0.84    1.68
 -13  -8 -18    5.66    1.75
  14   8  18    1.84    1.23
  15   8  18    4.59    1.30
  16   8  18    2.44    1.43
   3  -9 -18    0.69    1.93
   2  -9 -18    2.16    1.84
   2  -9 -18    1.35    2.24
   1  -9 -18    2.98    2.04
   1  -9 -18    0.29    1.74
   0  -9 -18    7.91    1.94
  -1  -9 -18    6.23    1.85
  -2  -9 -18    1.74    1.71
  -3  -9 -18   -2.70    1.73
  -4  -9 -18   -1.26    1.68
  -5  -9 -18    1.92    1.70
  -6  -9 -18   -2.17    1.68
  -7  -9 -18   -0.95    1.67
  -8  -9 -18   -0.48    1.67
  -9  -9 -18    0.52    1.68
 -10  -9 -18   -0.39    1.70
 -11  -9 -18    2.58    1.74
 -12  -9 -18    2.06    1.76
 -13  -9 -18   -2.25    1.80
  14   9  18    3.76    1.41
  15   9  18   12.70    1.97
  16   9  18    2.42    1.44
   2 -10 -18    1.26    1.98
   2 -10 -18    5.01    2.50
   1 -10 -18    5.51    2.33
   1 -10 -18    2.93    1.84
   0 -10 -18    2.72    2.18
  -1 -10 -18    6.37    2.10
  -2 -10 -18    5.68    1.98
  -3 -10 -18   -1.77    1.86
  -4 -10 -18    2.65    1.83
  -5 -10 -18    0.47    1.76
  -6 -10 -18    1.44    1.79
  -7 -10 -18   -1.85    1.77
  -8 -10 -18    2.47    1.77
  -9 -10 -18    4.39    1.78
 -10 -10 -18   -0.57    1.78
 -11 -10 -18   -0.61    1.80
 -12 -10 -18   -2.61    1.84
 -13 -10 -18    1.40    1.88
   1 -11 -18    1.39    2.56
   0 -11 -18    7.15    2.51
  -1 -11 -18    1.13    2.35
  -2 -11 -18    0.96    2.19
  -3 -11 -18    2.55    2.12
  -4 -11 -18    4.08    2.02
  -5 -11 -18    3.44    1.99
  -6 -11 -18    1.58    1.90
  -7 -11 -18    1.93    1.88
  -8 -11 -18    5.96    1.86
  -9 -11 -18    4.54    1.83
 -10 -11 -18    2.82    1.82
 -11 -11 -18    2.26    1.80
 -12 -11 -18    4.86    1.86
 -13 -11 -18    3.51    1.89
   0 -12 -18    0.62    2.76
  -1 -12 -18    2.81    2.56
  -2 -12 -18    3.26    2.53
  -3 -12 -18    1.20    2.40
  -4 -12 -18   -0.87    2.29
  -5 -12 -18    4.59    2.17
  -6 -12 -18    3.86    2.12
  -7 -12 -18    3.22    2.07
  -8 -12 -18    2.44    2.04
  -9 -12 -18    1.03    2.04
 -10 -12 -18   -0.74    2.03
 -11 -12 -18    1.29    2.00
 -12 -12 -18    1.79    2.02
 -13 -12 -18    2.25    2.03
 -14 -12 -18    0.38    2.08
  -2 -13 -18    1.50    2.77
  -3 -13 -18    2.43    2.62
  -4 -13 -18    3.01    2.58
  -5 -13 -18   10.21    2.47
  -6 -13 -18    7.75    2.39
  -7 -13 -18    2.73    2.32
  -8 -13 -18   -0.38    2.22
  -9 -13 -18    0.17    2.15
 -10 -13 -18    2.05    2.12
 -11 -13 -18    2.41    2.09
 -12 -13 -18    3.51    2.08
 -13 -13 -18    2.29    2.13
  -4 -14 -18    2.95    2.88
  -5 -14 -18    0.81    2.70
  -6 -14 -18    3.97    2.59
  -7 -14 -18    0.81    2.56
  -8 -14 -18    2.51    2.49
  -9 -14 -18   -0.42    2.40
 -10 -14 -18    3.42    2.34
 -11 -14 -18    3.06    2.30
  -3 -12  19   -1.29    2.88
  -2 -12  19    0.46    2.96
  -1 -12  19    2.02    3.03
   0 -12  19    2.88    3.11
   1 -12  19    6.39    3.11
   2 -12  19   -0.77    3.24
   3 -12  19    1.50    3.32
   4 -12  19    1.47    3.40
   5  11 -19   -1.43    1.13
  -3 -11  19    0.75    2.58
  -2 -11  19    3.32    2.67
  -1 -11  19    0.12    2.77
   0 -11  19   -0.37    2.84
   1 -11  19    1.82    2.90
   2 -11  19    2.80    2.95
   3 -11  19    5.37    3.03
   4 -11  19   10.77    3.12
   5 -11  19    9.42    3.29
   6 -11  19    5.84    3.34
   6  10 -19    0.84    1.16
   5  10 -19   -0.09    1.06
   4  10 -19    0.62    0.97
  -3 -10  19   -0.83    2.41
  -2 -10  19    4.95    2.44
  -1 -10  19    7.82    2.46
   0 -10  19    4.31    2.59
   1 -10  19    1.87    2.63
   2 -10  19    0.41    2.73
   3 -10  19    1.68    2.78
   4 -10  19   -0.35    2.85
   5 -10  19    0.21    2.97
   6 -10  19    2.94    3.07
   7 -10  19    1.44    3.19
   8 -10  19   -0.04    3.27
   7   9 -19   -0.39    1.15
   6   9 -19    1.62    1.11
   5   9 -19   -1.40    1.02
   4   9 -19    0.53    0.93
   3   9 -19    0.66    0.85
  -3  -9  19    2.80    2.16
  -2  -9  19    5.49    2.26
  -1  -9  19   -1.04    2.28
   0  -9  19    6.04    2.31
   1  -9  19    2.03    2.30
   2  -9  19    3.83    2.47
   3  -9  19   -1.52    2.53
   4  -9  19    0.49    2.61
   5  -9  19    1.76    2.70
   6  -9  19    0.08    2.78
   7  -9  19   -0.48    2.90
   8  -9  19    3.09    2.99
   9  -9  19    3.57    3.02
   7   8 -19   -0.09    1.11
   6   8 -19    0.34    1.02
   5   8 -19    1.38    0.94
   4   8 -19    3.36    0.87
   3   8 -19    0.21    0.83
  -3  -8  19    0.56    2.01
   2   8 -19    0.10    0.75
  -2  -8  19    4.19    2.02
  -1  -8  19    1.17    2.02
   0  -8  19   -1.91    2.13
   1  -8  19    0.32    2.18
   2  -8  19   -1.34    2.17
   3  -8  19    1.35    2.21
   4  -8  19    1.38    2.25
   5  -8  19    4.06    2.34
   6  -8  19    5.48    2.46
   7  -8  19    6.69    2.58
   8  -8  19    5.35    2.69
   9  -8  19    3.17    2.79
  10  -8  19    4.63    2.85
   5   7 -19    0.10    0.93
   4   7 -19    0.03    0.86
   3   7 -19    7.59    1.40
   2   7 -19    2.53    0.70
  -1  -7  19    3.56    1.88
   0  -7  19    6.25    1.91
   1  -7  19   -1.61    1.89
   2  -7  19   -0.38    2.03
   3  -7  19   -1.50    2.08
   4  -7  19    3.46    2.13
   5  -7  19   -0.46    2.19
   6  -7  19   -0.59    2.22
   7  -7  19   -2.83    2.37
   8  -7  19   -0.16    2.47
   9  -7  19   -0.81    2.56
  10  -7  19   -3.50    2.67
  11  -7  19    1.63    2.75
   2   6 -19    2.47    0.71
   1   6 -19   -0.28    0.66
   0   6 -19    0.58    0.57
   0  -6  19   -1.40    1.78
   1  -6  19    2.08    1.72
   2  -6  19    1.19    1.75
   3  -6  19    1.70    1.78
   4  -6  19    2.55    1.84
   5  -6  19    0.70    1.85
   6  -6  19    1.54    2.11
   7  -6  19   -0.31    2.19
   8  -6  19    3.50    2.20
   9  -6  19   -0.10    2.35
  10  -6  19    5.47    2.50
  10  -6  19    4.98    1.48
  11  -6  19    5.47    2.65
  12  -6  19    3.84    2.78
  12  -6  19    1.96    1.45
   2   5 -19   -0.18    1.35
   1   5 -19   -1.03    1.36
   1   5 -19    0.61    1.09
   3  -5  19    1.77    1.65
   4  -5  19    3.40    1.66
   5  -5  19    6.11    1.79
   6  -5  19    3.18    1.85
   7  -5  19    1.80    1.95
   7  -5  19    0.58    1.12
   8  -5  19    3.51    2.06
   8  -5  19    0.46    1.24
   9  -5  19    3.81    1.29
   9  -5  19    2.12    2.15
  10  -5  19    3.43    2.28
  10  -5  19    2.09    1.35
  11  -5  19    3.67    1.33
  11  -5  19    0.13    2.42
  12  -5  19    1.68    1.35
  13  -5  19    5.45    1.46
   8   4 -19    3.05    1.96
   6   4 -19    0.30    1.45
   2   4 -19    1.08    1.28
   1   4 -19    0.20    1.27
   1   4 -19   -0.83    1.01
   0   4 -19    6.84    1.41
   0   4 -19    5.98    1.08
  -1   4 -19    4.03    1.31
  -1   4 -19    1.13    1.04
   8  -4  19    0.27    1.07
   9  -4  19    2.73    1.19
  10  -4  19    2.94    1.31
  11  -4  19    5.16    1.31
  12  -4  19    2.95    1.29
 -13   4 -19   -0.46    2.72
  13  -4  19    2.59    1.38
   8   3 -19    3.62    1.98
   7   3 -19    4.58    1.78
   6   3 -19    2.61    1.52
   2   3 -19    2.09    1.21
   1   3 -19    1.51    1.01
   1   3 -19    2.92    0.80
   0   3 -19    1.98    1.26
   0   3 -19    1.61    0.98
  -1   3 -19    6.91    1.31
  -1   3 -19    5.72    1.00
  -2   3 -19    6.38    1.31
  -2   3 -19    5.44    1.01
  -3   3 -19   -0.45    1.28
  -3   3 -19   -0.81    1.02
  -4   3 -19   -0.06    1.32
  -4   3 -19   -0.37    1.04
  -5   3 -19   -0.65    1.07
  -5   3 -19    0.35    1.36
  -6   3 -19    0.82    1.10
  -6   3 -19   -0.90    1.41
  -7   3 -19   -1.01    1.47
   8  -3  19    0.57    1.01
  -9   3 -19    7.31    1.25
   9  -3  19    9.90    1.64
 -10   3 -19    0.12    1.86
 -10   3 -19   -0.38    1.29
  10  -3  19    0.86    1.20
 -11   3 -19    0.29    1.36
 -11   3 -19    0.92    2.08
  11  -3  19    2.65    1.20
 -12   3 -19    2.04    2.33
  12  -3  19    4.19    1.21
  13  -3  19    4.54    1.33
  14  -3  19    0.20    1.44
   8   2 -19    6.24    2.01
   7   2 -19    1.02    1.80
   6   2 -19    4.48    1.59
   5   2 -19    1.97    1.41
   2   2 -19    0.88    1.15
   1   2 -19    1.59    1.14
   0   2 -19    7.57    0.95
   0   2 -19    6.63    1.23
  -1   2 -19    3.65    0.78
  -1   2 -19    3.13    1.00
  -2   2 -19    0.61    0.94
  -2   2 -19    0.97    1.20
  -3   2 -19    0.81    0.94
  -3   2 -19    1.49    1.20
  -4   2 -19    1.05    1.25
  -4   2 -19    0.23    0.97
  -5   2 -19    0.88    1.00
  -5   2 -19    0.63    1.26
  -6   2 -19   -1.13    1.31
  -6   2 -19    0.49    1.05
  -7   2 -19    0.54    1.08
  -7   2 -19    0.83    1.41
  -8   2 -19    4.55    1.14
  -8   2 -19    3.24    1.48
   8  -2  19    4.53    0.95
  -9   2 -19   -0.10    1.16
  -9   2 -19   -1.53    1.58
 -10   2 -19   -2.59    1.71
 -10   2 -19   -0.48    1.22
  10  -2  19    1.70    1.10
 -11   2 -19    4.71    1.94
 -11   2 -19    3.85    1.27
 -12   2 -19   -0.25    1.33
 -12   2 -19    0.06    2.03
 -13   2 -19    2.23    2.21
  13  -2  19    2.44    1.25
  14  -2  19    2.42    1.38
  15  -2  19    1.53    1.52
   8   1 -19    2.74    2.01
   7   1 -19    8.20    1.87
   6   1 -19    5.34    1.65
   5   1 -19    0.22    1.45
   2   1 -19    6.35    1.46
   1   1 -19    2.89    1.48
   0   1 -19    2.27    1.09
  -1   1 -19    4.50    1.12
  -2   1 -19    3.49    1.13
  -3   1 -19    1.16    0.86
  -3   1 -19    0.68    1.09
  -4   1 -19    1.56    0.76
  -4   1 -19    0.00    0.97
  -5   1 -19    0.87    0.75
  -5   1 -19    0.71    0.99
  -6   1 -19    3.20    0.99
  -6   1 -19    2.18    1.28
  -7   1 -19   -0.11    1.34
  -7   1 -19    0.98    1.04
  -8   1 -19   -0.16    1.07
  -8   1 -19   -0.32    1.41
   8  -1  19   -0.46    0.85
  -9   1 -19    6.67    1.14
  -9   1 -19   10.17    1.94
   9  -1  19    9.72    1.51
 -10   1 -19    3.00    1.62
 -10   1 -19    0.57    1.12
  10  -1  19    2.52    1.04
 -11   1 -19    0.75    1.83
 -11   1 -19    2.58    1.22
  11  -1  19    1.42    1.12
 -12   1 -19    1.55    1.89
  12  -1  19    3.46    1.15
 -13   1 -19    5.55    2.17
  13  -1  19    4.52    1.22
  14  -1  19    1.20    1.34
  15  -1  19    0.14    1.48
   8   0 -19    3.04    2.06
   7   0 -19    2.64    1.91
   6   0 -19    9.01    1.72
   5   0 -19    1.56    1.49
   2   0 -19    1.98    1.44
   1   0 -19    3.07    1.41
   0   0 -19    9.62    1.83
  -1   0 -19    3.18    1.34
  -2   0 -19    1.25    1.08
  -3   0 -19    1.86    1.08
  -4   0 -19   -0.12    1.09
  -5   0 -19    3.18    1.14
  -6   0 -19    1.69    1.17
  -6   0 -19    0.63    0.91
  -7   0 -19    1.29    0.93
  -7   0 -19    1.39    1.23
  -8   0 -19    0.77    0.95
  -8   0 -19    1.10    1.28
  -9   0 -19    0.38    1.36
  -9   0 -19    1.87    0.99
   9   0  19    0.61    0.86
 -10   0 -19    8.15    1.59
  10   0  19   10.32    1.51
 -11   0 -19    5.91    1.67
 -11   0 -19    4.52    1.11
 -12   0 -19    1.84    1.85
  12   0  19    3.79    1.14
 -13   0 -19    2.43    1.98
  13   0  19    2.71    1.15
  14   0  19    1.16    1.29
  15   0  19    1.74    1.43
   7  -1 -19   10.65    2.03
   6  -1 -19    2.40    1.78
   5  -1 -19   -0.51    1.53
   2  -1 -19    1.49    1.39
   1  -1 -19    4.04    1.42
   0  -1 -19    4.60    1.40
  -1  -1 -19    2.18    1.31
  -2  -1 -19    9.72    1.75
  -3  -1 -19    2.38    1.31
  -4  -1 -19    2.51    1.19
  -5  -1 -19    4.81    1.11
  -6  -1 -19   13.48    1.48
  -7  -1 -19    4.21    1.19
  -8  -1 -19    2.26    1.21
  -9  -1 -19    1.58    1.29
   9   1  19    0.47    0.83
 -10  -1 -19    2.31    1.41
  10   1  19    1.21    0.96
 -11  -1 -19    3.38    1.57
  11   1  19    1.44    1.03
 -12  -1 -19    1.56    1.71
  12   1  19    2.39    1.12
  13   1  19   12.83    1.65
  14   1  19    1.32    1.24
  15   1  19    1.04    1.39
  16   1  19    1.62    1.55
   7  -2 -19    0.87    2.03
   6  -2 -19    1.72    1.86
   5  -2 -19    2.79    1.63
   4  -2 -19    3.64    1.52
   2  -2 -19   -1.68    1.43
   1  -2 -19    8.02    1.51
   0  -2 -19    0.42    1.36
  -1  -2 -19   14.05    1.86
  -2  -2 -19    4.02    1.26
  -3  -2 -19    2.58    1.30
  -4  -2 -19   -0.09    1.20
  -5  -2 -19    8.07    1.34
  -6  -2 -19    1.83    1.29
  -7  -2 -19    5.58    1.37
  -8  -2 -19    2.88    1.42
  -9  -2 -19    1.91    1.47
   9   2  19   -0.17    0.82
 -10  -2 -19    6.19    1.58
  10   2  19    4.29    0.90
 -11  -2 -19    5.52    1.73
  11   2  19    6.68    1.03
 -12  -2 -19    4.52    1.76
  12   2  19    3.09    1.13
 -13  -2 -19    1.17    1.83
  13   2  19    2.38    1.15
  14   2  19    2.05    1.20
  15   2  19    4.83    1.36
  16   2  19    2.67    1.51
   7  -3 -19    4.78    2.08
   6  -3 -19    2.28    1.94
   5  -3 -19    4.49    1.88
   4  -3 -19   -0.20    1.56
   1  -3 -19   -1.00    1.46
   0  -3 -19   -1.37    1.39
  -1  -3 -19   -0.26    1.37
  -2  -3 -19    6.55    1.42
  -3  -3 -19    5.15    1.35
  -4  -3 -19    0.31    1.24
  -5  -3 -19    1.42    1.24
  -6  -3 -19    8.74    1.79
  -7  -3 -19    1.06    1.33
  -8  -3 -19    3.22    1.39
  -9  -3 -19    2.56    1.42
 -10  -3 -19    2.78    1.54
  10   3  19    0.21    0.90
 -11  -3 -19    1.26    1.62
  11   3  19    1.07    1.00
 -12  -3 -19    1.60    1.75
  12   3  19    2.65    1.07
  13   3  19    0.70    1.18
  14   3  19    3.55    1.25
  15   3  19    1.71    1.31
  16   3  19    2.15    1.48
   6  -4 -19    1.03    2.02
   5  -4 -19    2.49    1.87
   4  -4 -19   -0.09    1.63
   2  -4 -19    2.59    1.59
   1  -4 -19    8.91    1.59
   0  -4 -19   -0.57    1.51
  -1  -4 -19    6.20    1.53
  -2  -4 -19    0.78    1.39
  -3  -4 -19    4.67    1.42
  -4  -4 -19   -0.94    1.37
  -5  -4 -19    1.24    1.38
  -6  -4 -19    1.33    1.39
  -7  -4 -19    1.83    1.41
  -8  -4 -19   -0.32    1.48
  -9  -4 -19    1.20    1.58
 -10  -4 -19    2.19    1.70
 -11  -4 -19    5.81    1.85
  11   4  19    6.14    1.02
 -12  -4 -19   -0.97    1.91
  12   4  19    2.02    1.06
 -13  -4 -19    0.57    2.00
  13   4  19    2.43    1.20
  14   4  19    2.51    1.26
  15   4  19    6.35    1.37
  16   4  19    1.97    1.47
   6  -5 -19    4.71    2.13
   5  -5 -19    0.38    1.96
   4  -5 -19    2.50    1.78
   3  -5 -19    2.01    1.66
   2  -5 -19    7.21    1.72
   1  -5 -19   -1.39    1.62
   0  -5 -19   -0.34    1.56
  -1  -5 -19   -0.92    1.51
  -2  -5 -19    7.44    1.51
  -3  -5 -19   -0.47    1.50
  -4  -5 -19   -1.08    1.44
  -5  -5 -19   -0.76    1.44
  -6  -5 -19    2.85    1.47
  -7  -5 -19    6.28    1.56
  -8  -5 -19   -1.24    1.54
  -9  -5 -19   -1.89    1.60
 -10  -5 -19    2.38    1.71
 -11  -5 -19   -0.09    1.75
  11   5  19    0.95    1.00
 -12  -5 -19   -0.44    1.83
  12   5  19    3.35    1.13
 -13  -5 -19   -0.53    1.92
  13   5  19    3.26    1.15
  14   5  19    3.00    1.31
  15   5  19    3.99    1.37
  16   5  19    3.75    1.43
   5  -6 -19    2.37    2.07
   4  -6 -19   -2.09    1.91
   3  -6 -19    0.01    1.71
   2  -6 -19    0.13    1.80
   1  -6 -19    2.98    1.74
   0  -6 -19    1.59    1.71
  -1  -6 -19    4.95    1.66
  -2  -6 -19   -0.83    1.58
  -3  -6 -19    2.47    1.55
  -4  -6 -19    4.01    1.56
  -5  -6 -19    2.62    1.55
  -6  -6 -19    0.49    1.56
  -7  -6 -19    0.36    1.54
  -8  -6 -19    0.67    1.58
 -10  -6 -19   -0.26    1.69
 -11  -6 -19   -0.79    1.77
 -12  -6 -19   -2.17    1.74
  12   6  19    0.58    1.15
  13   6  19    2.52    1.24
  14   6  19    2.14    1.25
  15   6  19    3.82    1.41
  16   6  19    2.67    1.51
   4  -7 -19    3.77    2.03
   3  -7 -19    4.04    1.88
   2  -7 -19    3.34    1.80
   1  -7 -19   -2.27    1.80
   0  -7 -19   -0.32    1.75
  -1  -7 -19    0.46    1.78
  -2  -7 -19   12.80    2.26
  -3  -7 -19   -2.45    1.69
  -4  -7 -19    1.49    1.63
  -5  -7 -19   -0.23    1.62
  -6  -7 -19    2.90    1.63
  -7  -7 -19    2.48    1.63
  -8  -7 -19    4.27    1.67
  -9  -7 -19   -2.21    1.66
 -10  -7 -19   -1.35    1.71
 -11  -7 -19   -2.33    1.74
 -12  -7 -19    1.49    1.80
 -13  -7 -19    0.05    1.86
  13   7  19    1.37    1.28
  14   7  19    4.20    1.28
  15   7  19    3.44    1.39
  16   7  19    2.24    1.52
   3  -8 -19    5.02    2.05
   2  -8 -19    1.67    1.84
   2  -8 -19    3.20    2.06
   1  -8 -19    2.23    1.95
   0  -8 -19    2.84    1.85
  -1  -8 -19    2.78    1.86
  -2  -8 -19    0.23    1.77
  -3  -8 -19    6.69    1.88
  -4  -8 -19    2.49    1.80
  -5  -8 -19    5.40    1.80
  -6  -8 -19   -1.76    1.76
  -7  -8 -19    4.48    1.74
  -8  -8 -19   -0.29    1.73
  -9  -8 -19   -0.11    1.73
 -10  -8 -19    0.52    1.76
 -11  -8 -19    1.41    1.79
 -12  -8 -19    0.66    1.85
 -13  -8 -19   -1.11    1.94
 -14  -8 -19   -2.16    1.97
  14   8  19    3.25    1.48
  15   8  19    5.07    1.41
  16   8  19    5.72    1.50
   2  -9 -19    7.90    2.01
   2  -9 -19    3.34    2.45
   1  -9 -19    1.76    1.93
   1  -9 -19    7.17    2.25
   0  -9 -19    1.38    2.08
  -1  -9 -19    1.34    2.01
  -2  -9 -19    7.86    1.95
  -3  -9 -19    1.54    1.94
  -4  -9 -19   -1.63    1.87
  -5  -9 -19    0.89    1.89
  -6  -9 -19    5.89    1.92
  -7  -9 -19    0.66    1.86
  -8  -9 -19    3.37    1.87
  -9  -9 -19    0.08    1.87
 -10  -9 -19   -0.74    1.89
 -11  -9 -19    5.52    1.93
 -12  -9 -19    1.02    1.95
 -13  -9 -19   -1.15    1.97
  15   9  19    2.26    1.64
   1 -10 -19    5.13    2.00
   1 -10 -19    9.65    2.54
   0 -10 -19    4.11    2.02
   0 -10 -19    5.02    2.36
  -1 -10 -19    6.19    2.29
  -2 -10 -19   -0.60    2.12
  -3 -10 -19    0.66    2.04
  -4 -10 -19    6.98    2.01
  -5 -10 -19   -0.51    1.97
  -6 -10 -19   -0.78    1.96
  -7 -10 -19   -1.38    1.97
  -8 -10 -19    2.95    1.94
  -9 -10 -19   -0.73    1.95
 -10 -10 -19   -2.03    1.92
 -11 -10 -19    0.49    1.95
 -12 -10 -19   -0.76    2.00
 -13 -10 -19    2.77    2.06
 -14 -10 -19    0.32    2.11
   0 -11 -19    2.69    2.71
   0 -11 -19    3.71    2.05
  -1 -11 -19    2.55    2.53
  -2 -11 -19    6.22    2.39
  -3 -11 -19    4.13    2.33
  -4 -11 -19    1.21    2.21
  -5 -11 -19   -0.51    2.15
  -6 -11 -19    0.24    2.12
  -7 -11 -19    3.14    2.08
  -8 -11 -19    5.19    2.04
  -9 -11 -19    1.25    2.00
 -10 -11 -19    2.52    2.00
 -11 -11 -19    1.18    2.00
 -12 -11 -19    2.65    2.03
 -13 -11 -19    2.45    2.04
 -14 -11 -19    4.04    2.10
  -2 -12 -19    1.90    2.71
  -3 -12 -19    3.99    2.62
  -4 -12 -19    3.68    2.50
  -5 -12 -19    3.33    2.35
  -6 -12 -19    6.94    2.37
  -7 -12 -19    2.07    2.30
  -8 -12 -19    4.91    2.27
  -9 -12 -19    1.80    2.24
 -10 -12 -19   -1.57    2.22
 -11 -12 -19    0.87    2.18
 -12 -12 -19   -1.10    2.17
 -13 -12 -19   -0.06    2.21
  -4 -13 -19    4.07    2.81
  -5 -13 -19    2.11    2.69
  -6 -13 -19    0.47    2.61
  -7 -13 -19    0.51    2.49
  -8 -13 -19   -1.48    2.41
  -9 -13 -19    2.53    2.34
 -10 -13 -19    2.51    2.32
 -11 -13 -19    2.56    2.30
 -12 -13 -19    3.39    2.27
  -3 -11  20   -3.74    2.80
  -2 -11  20    0.12    2.87
  -1 -11  20    1.04    2.89
   0 -11  20    4.20    3.00
   1 -11  20    2.36    3.16
   2 -11  20   -2.21    3.26
   3 -11  20    3.29    3.37
   4 -11  20   -2.78    3.45
   5  10 -20   -0.58    1.18
  -3 -10  20    1.90    2.53
  -2 -10  20   -0.09    2.61
  -1 -10  20   -0.49    2.66
   0 -10  20   -0.74    2.74
   1 -10  20    0.21    2.82
   2 -10  20    9.49    2.90
   3 -10  20    2.19    3.04
   4 -10  20    0.14    3.11
   5 -10  20    2.18    3.25
   6 -10  20   -0.01    3.38
   5   9 -20   -0.93    1.12
   4   9 -20    1.44    1.04
  -3  -9  20    1.18    2.38
  -2  -9  20    3.06    2.42
  -1  -9  20    2.52    2.43
   0  -9  20   -0.39    2.54
   1  -9  20   -0.58    2.56
   2  -9  20    1.26    2.64
   3  -9  20    0.91    2.72
   4  -9  20    2.39    2.77
   5  -9  20    9.04    2.88
   6  -9  20    0.19    2.96
   7  -9  20    5.24    3.09
   8  -9  20    3.65    3.16
   6   8 -20    2.27    1.14
   5   8 -20    0.94    1.04
   4   8 -20    1.96    0.97
   3   8 -20    1.15    0.93
  -2  -8  20    4.11    2.21
  -1  -8  20    2.03    2.25
   0  -8  20    2.05    2.27
   1  -8  20   -0.65    2.29
   2  -8  20    3.99    2.48
   3  -8  20   -2.20    2.52
   4  -8  20    1.12    2.58
   5  -8  20   -2.21    2.63
   6  -8  20   -0.57    2.74
   7  -8  20   -0.43    2.82
   8  -8  20    0.28    2.91
   9  -8  20   -2.35    2.99
   6   7 -20   -0.05    1.09
   5   7 -20    1.89    1.04
   4   7 -20   -0.30    0.95
   3   7 -20   -1.30    1.34
   3   7 -20   -2.17    1.67
   3   7 -20    1.14    0.86
   2   7 -20   -0.11    0.78
   0  -7  20   -0.85    2.09
   1  -7  20    4.28    2.14
   2  -7  20   -0.38    2.19
   3  -7  20    0.55    2.21
   4  -7  20    0.22    2.21
   5  -7  20   -2.80    2.44
   6  -7  20    2.91    2.55
   7  -7  20   -0.58    2.63
   8  -7  20   -0.03    2.62
   9  -7  20   -0.42    2.77
  10  -7  20   -0.86    2.88
   3   6 -20   -0.69    1.54
   2   6 -20    1.56    0.80
   2   6 -20    0.30    1.55
   1   6 -20    1.08    0.73
   2  -6  20    2.81    2.03
   3  -6  20    2.73    2.03
   4  -6  20    3.12    2.12
   5  -6  20    1.80    2.17
   6  -6  20    3.68    2.25
   7  -6  20    2.64    2.36
   8  -6  20    5.31    2.50
   8  -6  20    0.67    1.45
   9  -6  20    1.83    2.60
  10  -6  20    1.85    2.69
  11  -6  20    1.07    1.73
  11  -6  20    2.03    2.85
   2   5 -20   -0.51    1.15
   2   5 -20   -1.14    1.46
   1   5 -20    4.54    1.18
   1   5 -20    3.85    1.48
   0   5 -20   -0.10    1.47
   0   5 -20    0.67    1.18
  -1   5 -20    3.41    1.50
   6  -5  20   -0.78    2.10
   7  -5  20    0.28    2.18
   8  -5  20    1.90    2.31
  10  -5  20    3.90    1.48
  11  -5  20    2.33    1.61
  12  -5  20    4.63    1.57
   2   4 -20    4.06    0.93
   2   4 -20    3.50    1.19
   1   4 -20    0.69    1.36
   1   4 -20    0.50    1.07
   0   4 -20    0.32    1.39
   0   4 -20   -0.74    1.10
  -1   4 -20    1.86    1.11
  -1   4 -20    1.20    1.39
  -2   4 -20    8.15    1.54
  -2   4 -20    9.87    1.20
  -3   4 -20    2.70    1.48
  -3   4 -20    2.64    1.18
  -4   4 -20    0.85    1.48
   8  -4  20   -0.84    1.20
   9  -4  20    1.47    1.34
  10  -4  20    1.78    1.37
 -11   4 -20   -0.23    2.33
 -11   4 -20    0.77    1.52
  11  -4  20    2.35    1.51
 -12   4 -20    3.16    2.63
  12  -4  20    6.15    1.48
  13  -4  20    3.07    1.45
   7   3 -20    2.18    2.02
   6   3 -20    1.39    1.77
   5   3 -20    4.15    1.63
   2   3 -20    1.33    1.31
   1   3 -20    4.60    1.33
   1   3 -20    3.97    1.03
   0   3 -20    3.40    0.86
   0   3 -20    2.30    1.08
  -1   3 -20    1.19    1.31
  -1   3 -20    3.78    1.05
  -2   3 -20   -0.83    1.06
  -2   3 -20    0.56    1.35
  -3   3 -20    0.54    1.37
  -3   3 -20    1.24    1.09
  -4   3 -20    2.29    1.13
  -4   3 -20    3.04    1.41
  -5   3 -20   -0.13    1.15
  -5   3 -20   -0.79    1.45
  -6   3 -20   -1.16    1.17
  -6   3 -20   -1.78    1.51
  -7   3 -20    0.41    1.22
  -7   3 -20    1.17    1.59
  -8   3 -20   -0.36    1.68
  -8   3 -20   -0.81    1.26
  -9   3 -20    0.71    1.31
  -9   3 -20    0.97    1.82
   9  -3  20    1.02    1.20
 -10   3 -20   -1.05    1.95
 -10   3 -20   -2.60    1.36
  10  -3  20    2.39    1.30
 -11   3 -20    1.75    1.44
 -11   3 -20    1.77    2.18
  11  -3  20    4.08    1.43
 -12   3 -20    1.48    2.44
 -12   3 -20    0.83    1.53
  12  -3  20    1.95    1.42
 -13   3 -20   -0.13    2.58
  13  -3  20    4.68    1.46
   7   2 -20    0.26    2.06
   6   2 -20    4.12    1.85
   5   2 -20    1.49    1.65
   3   2 -20    3.34    1.72
   2   2 -20    7.90    1.89
   1   2 -20    2.31    1.28
   0   2 -20    1.54    1.25
  -1   2 -20    4.02    0.98
  -1   2 -20    4.81    1.26
  -2   2 -20    2.14    1.08
  -2   2 -20    3.37    0.84
  -3   2 -20    4.93    1.06
  -3   2 -20    3.83    1.38
  -4   2 -20   -0.05    1.06
  -4   2 -20    1.21    1.37
  -5   2 -20    1.32    1.06
  -5   2 -20    1.06    1.39
  -6   2 -20    1.62    1.41
  -6   2 -20    0.63    1.10
  -7   2 -20    1.07    1.49
  -7   2 -20    1.11    1.15
  -8   2 -20    1.38    1.19
  -8   2 -20    1.58    1.56
  -9   2 -20   -0.59    1.23
  -9   2 -20   -0.49    1.67
   9  -2  20    0.06    1.14
 -10   2 -20    1.50    1.81
 -10   2 -20    0.51    1.28
 -11   2 -20    0.09    1.97
 -11   2 -20   -0.60    1.31
 -12   2 -20    1.17    2.20
  12  -2  20    1.21    1.38
 -13   2 -20    1.22    2.42
 -13   2 -20    6.50    1.53
  13  -2  20    5.75    1.44
  14  -2  20    0.98    1.46
   7   1 -20    0.72    2.11
   6   1 -20    6.05    1.93
   5   1 -20    6.19    1.68
   3   1 -20    3.45    1.71
   2   1 -20    2.64    1.65
   1   1 -20   12.30    1.83
   0   1 -20    2.99    1.62
  -1   1 -20    3.72    1.20
  -2   1 -20    1.51    1.19
  -3   1 -20    0.56    1.22
  -4   1 -20    1.97    0.96
  -4   1 -20    3.55    1.24
  -5   1 -20    0.99    0.86
  -5   1 -20    0.28    1.09
  -6   1 -20    1.44    0.86
  -6   1 -20    0.64    1.12
  -7   1 -20    1.24    1.14
  -7   1 -20    3.58    0.89
  -8   1 -20    3.74    0.91
  -8   1 -20    1.60    1.23
  -9   1 -20    2.59    0.94
  -9   1 -20    2.48    1.35
   9  -1  20    0.67    1.05
 -10   1 -20    1.91    0.97
 -10   1 -20    1.12    1.49
  10  -1  20    2.33    1.18
 -11   1 -20    0.63    1.72
 -11   1 -20    0.52    1.04
  11  -1  20    2.51    1.24
 -12   1 -20    3.98    2.07
  12  -1  20    1.36    1.36
 -13   1 -20    1.12    2.27
  14  -1  20    2.39    1.40
   7   0 -20    0.48    2.16
   6   0 -20    1.87    1.96
   5   0 -20    0.96    1.72
   2   0 -20    6.62    1.63
   1   0 -20    2.44    1.62
   0   0 -20    8.09    1.55
  -1   0 -20    4.89    1.60
  -2   0 -20    2.48    1.46
  -3   0 -20    3.24    1.17
  -4   0 -20    0.78    1.16
  -5   0 -20    2.77    1.22
  -6   0 -20    1.65    1.26
  -7   0 -20    3.52    1.33
  -8   0 -20    1.19    1.40
  -9   0 -20    5.12    1.53
   9   0  20    3.16    1.01
 -10   0 -20    1.47    1.59
  10   0  20    0.36    1.06
 -11   0 -20    1.60    1.77
  11   0  20    2.80    1.18
 -12   0 -20    2.25    1.93
  12   0  20    1.88    1.32
 -13   0 -20    0.47    2.11
  13   0  20    2.58    1.35
  14   0  20    5.84    1.40
  15   0  20    0.56    1.51
   6  -1 -20    0.34    2.03
   5  -1 -20    6.23    1.77
   2  -1 -20   -1.84    1.58
   1  -1 -20    5.36    1.57
   0  -1 -20    8.51    1.59
  -1  -1 -20    6.53    1.58
  -2  -1 -20    2.74    1.46
  -3  -1 -20    0.84    1.45
  -4  -1 -20   23.11    2.18
  -5  -1 -20    0.80    1.32
  -6  -1 -20    0.70    1.32
  -7  -1 -20    1.64    1.27
  -8  -1 -20    7.41    1.36
  -9  -1 -20    1.90    1.40
 -10  -1 -20    1.39    1.49
  10   1  20    0.78    1.05
 -11  -1 -20    3.01    1.66
  11   1  20    0.99    1.15
 -12  -1 -20    2.87    1.84
  12   1  20    2.59    1.24
 -13  -1 -20    3.82    2.07
  13   1  20    1.26    1.35
  14   1  20    5.88    1.44
  15   1  20    3.14    1.47
   6  -2 -20    5.60    2.12
   5  -2 -20    4.25    1.90
   4  -2 -20    2.39    1.72
   2  -2 -20   -2.89    1.61
   1  -2 -20    0.45    1.56
   0  -2 -20   -0.49    1.54
  -1  -2 -20   11.80    1.67
  -2  -2 -20    3.56    1.48
  -3  -2 -20   12.68    2.07
  -4  -2 -20    3.18    1.50
  -5  -2 -20    6.69    1.43
  -6  -2 -20    3.00    1.48
  -7  -2 -20    5.10    1.52
  -8  -2 -20    1.20    1.58
  -9  -2 -20    2.39    1.65
 -10  -2 -20    0.56    1.71
  10   2  20   -0.14    0.99
 -11  -2 -20    2.85    1.81
  11   2  20    1.61    1.18
 -12  -2 -20    3.27    1.89
  12   2  20    2.40    1.19
 -13  -2 -20    5.81    2.05
  13   2  20    3.09    1.36
  14   2  20    2.47    1.42
  15   2  20    1.74    1.50
   6  -3 -20    2.46    2.19
   5  -3 -20    3.33    2.01
   4  -3 -20    1.39    1.79
   1  -3 -20    1.02    1.64
   0  -3 -20    6.86    1.63
  -1  -3 -20   -1.14    1.55
  -2  -3 -20    0.60    1.54
  -3  -3 -20   -0.87    1.50
  -4  -3 -20   12.61    2.03
  -5  -3 -20    0.14    1.44
  -6  -3 -20    1.65    1.44
  -7  -3 -20    4.06    1.57
  -8  -3 -20    3.67    1.61
  -9  -3 -20    3.98    1.64
 -10  -3 -20    1.47    1.73
 -11  -3 -20    3.42    1.81
  11   3  20    1.40    1.12
 -12  -3 -20    6.72    1.98
  12   3  20    9.48    1.82
 -13  -3 -20    3.98    2.06
  13   3  20    2.73    1.28
 -14  -3 -20    5.84    2.16
  14   3  20    3.81    1.44
  15   3  20    4.35    1.50
  16   3  20    4.03    1.57
   5  -4 -20    4.56    2.11
   4  -4 -20    1.68    1.85
   1  -4 -20   -2.47    1.66
   0  -4 -20   -1.19    1.64
  -1  -4 -20    7.97    1.68
  -2  -4 -20   -1.82    1.55
  -3  -4 -20    3.07    1.58
  -4  -4 -20   -1.24    1.56
  -5  -4 -20    3.29    1.60
  -6  -4 -20    3.76    1.61
  -7  -4 -20   -1.21    1.63
  -8  -4 -20    1.07    1.68
  -9  -4 -20    5.62    1.80
 -10  -4 -20   -0.30    1.88
 -11  -4 -20   -1.84    1.98
  11   4  20   -0.51    1.08
 -12  -4 -20   -0.93    2.07
  12   4  20    1.07    1.22
 -13  -4 -20   -0.52    2.23
  13   4  20    2.67    1.26
 -14  -4 -20   -3.09    2.35
  14   4  20    1.08    1.41
  15   4  20    3.91    1.53
  16   4  20    3.81    1.62
   5  -5 -20    1.21    2.20
   4  -5 -20    4.97    2.04
   3  -5 -20    1.77    1.85
   2  -5 -20   -0.90    1.91
   1  -5 -20   -0.73    1.80
   0  -5 -20    4.38    1.74
  -1  -5 -20   -1.62    1.67
  -2  -5 -20   -0.24    1.66
  -3  -5 -20    2.57    1.67
  -4  -5 -20    6.38    1.65
  -5  -5 -20    1.10    1.61
  -6  -5 -20    3.10    1.63
  -7  -5 -20   -0.79    1.67
  -8  -5 -20   -0.84    1.72
  -9  -5 -20    2.57    1.78
 -10  -5 -20   -1.73    1.82
 -11  -5 -20   -2.45    1.91
 -12  -5 -20   -1.87    2.00
  12   5  20    0.23    1.21
 -13  -5 -20    1.17    2.10
  13   5  20    4.32    1.34
 -14  -5 -20   -1.32    2.21
  15   5  20    3.57    1.54
  16   5  20    2.80    1.67
   4  -6 -20   -0.89    2.16
   3  -6 -20    3.85    1.94
   1  -6 -20   -1.72    1.90
   0  -6 -20    0.63    1.90
  -1  -6 -20    1.48    1.82
  -2  -6 -20   -1.00    1.74
  -3  -6 -20    3.54    1.72
  -4  -6 -20    0.14    1.72
  -5  -6 -20    0.90    1.69
  -6  -6 -20    0.40    1.73
  -7  -6 -20    4.07    1.76
  -8  -6 -20    1.66    1.76
  -9  -6 -20   -0.13    1.83
 -10  -6 -20    6.42    1.91
 -11  -6 -20    1.25    1.94
 -13  -6 -20   -3.09    1.99
  13   6  20    0.34    1.37
 -14  -6 -20   -2.45    2.07
  14   6  20    3.25    1.44
  15   6  20    1.91    1.46
  16   6  20    3.54    1.64
   3  -7 -20    2.52    2.11
   2  -7 -20    2.43    1.98
   1  -7 -20   -2.65    2.01
   0  -7 -20    7.43    1.97
  -1  -7 -20   -2.08    1.95
  -2  -7 -20    1.63    1.93
  -3  -7 -20    0.92    1.91
  -4  -7 -20    8.26    1.87
  -5  -7 -20    5.99    1.83
  -6  -7 -20   -2.77    1.77
  -7  -7 -20   -0.05    1.80
  -8  -7 -20    2.58    1.83
  -9  -7 -20   -0.16    1.85
 -10  -7 -20   -1.24    1.87
 -11  -7 -20   -1.14    1.92
 -12  -7 -20   -1.31    2.04
 -13  -7 -20    0.34    2.08
 -14  -7 -20   -0.37    2.11
  14   7  20    0.79    1.53
  15   7  20    2.37    1.60
   2  -8 -20    2.58    2.27
   2  -8 -20   -0.13    2.04
   1  -8 -20    4.40    2.12
   0  -8 -20    0.52    2.03
  -1  -8 -20    1.19    2.05
  -2  -8 -20    5.94    1.98
  -3  -8 -20    0.96    2.03
  -4  -8 -20   -0.58    2.01
  -5  -8 -20    5.65    1.99
  -6  -8 -20    2.84    1.96
  -7  -8 -20   -0.25    1.92
  -8  -8 -20   -1.72    1.91
  -9  -8 -20    3.54    1.94
 -10  -8 -20    1.78    1.93
 -11  -8 -20   -3.40    1.97
 -12  -8 -20   -1.63    2.00
 -13  -8 -20    0.04    2.11
 -14  -8 -20   -1.45    2.16
 -15  -8 -20   -1.25    2.30
  15   8  20    3.54    1.69
   1  -9 -20    0.66    2.15
   1  -9 -20    2.51    2.46
   0  -9 -20    5.69    2.26
  -1  -9 -20    1.89    2.16
  -2  -9 -20    2.36    2.08
  -3  -9 -20   -1.51    2.10
  -4  -9 -20    2.74    2.09
  -5  -9 -20    1.57    2.10
  -6  -9 -20   -1.46    2.04
  -7  -9 -20    3.54    2.07
  -8  -9 -20    1.10    2.07
  -9  -9 -20    2.20    2.13
 -10  -9 -20   -1.33    2.07
 -11  -9 -20   -0.61    2.08
 -12  -9 -20   -3.44    2.12
 -13  -9 -20    0.49    2.23
 -14  -9 -20    0.38    2.25
   0 -10 -20    0.43    2.58
   0 -10 -20    2.05    2.21
  -1 -10 -20   11.33    2.52
  -2 -10 -20    2.14    2.31
  -3 -10 -20    0.37    2.24
  -4 -10 -20    3.64    2.18
  -5 -10 -20   -2.74    2.17
  -6 -10 -20   -0.96    2.18
  -7 -10 -20   -1.90    2.16
  -8 -10 -20    1.67    2.15
  -9 -10 -20    0.94    2.14
 -10 -10 -20    2.00    2.15
 -11 -10 -20   -1.32    2.15
 -12 -10 -20    2.14    2.17
 -13 -10 -20    0.69    2.23
  -2 -11 -20    1.66    2.58
  -3 -11 -20    6.42    2.56
  -4 -11 -20    0.44    2.45
  -5 -11 -20    0.48    2.36
  -6 -11 -20   -0.28    2.30
  -7 -11 -20    5.79    2.28
  -8 -11 -20    3.00    2.22
  -9 -11 -20    4.45    2.23
 -10 -11 -20    0.76    2.23
 -11 -11 -20    0.43    2.23
 -12 -11 -20    0.00    2.24
 -13 -11 -20    0.69    2.24
  -4 -12 -20    0.72    2.66
  -5 -12 -20    3.26    2.61
  -6 -12 -20    5.61    2.54
  -7 -12 -20    1.97    2.50
  -8 -12 -20    1.17    2.48
  -9 -12 -20   -1.82    2.43
 -10 -12 -20   -0.48    2.39
 -11 -12 -20   -0.71    2.35
 -12 -12 -20   -2.15    2.36
  -7 -13 -20    0.50    2.75
  -8 -13 -20    3.66    2.63
  -9 -13 -20    6.24    2.65
  -2 -10  21    5.16    2.83
  -1 -10  21   -2.26    2.85
   0 -10  21   -2.80    2.98
   1 -10  21   -1.86    3.07
   2 -10  21   -0.26    3.12
   3 -10  21    0.88    3.25
   4 -10  21    4.40    3.36
  -2  -9  21   -0.81    2.62
  -1  -9  21    6.19    2.66
   0  -9  21    2.40    2.69
   1  -9  21    6.32    2.78
   2  -9  21    0.88    2.90
   3  -9  21   -2.16    2.99
   4  -9  21    0.12    3.07
   5  -9  21    0.39    3.16
   6  -9  21   -1.07    3.21
   3   8 -21   -0.24    1.89
   3   8 -21   -0.90    1.52
   0  -8  21    8.13    2.53
   1  -8  21    0.41    2.59
   2  -8  21    1.91    2.61
   3  -8  21    2.43    2.70
   4  -8  21   -0.10    2.72
   5  -8  21   -2.64    2.94
   6  -8  21   -1.98    3.00
   7  -8  21    1.48    3.10
   8  -8  21    2.04    3.12
   5   7 -21   -0.34    1.15
   4   7 -21   -1.32    1.07
   3   7 -21    0.07    1.76
   2   7 -21   -0.04    1.42
   2   7 -21    0.94    1.79
   2  -7  21    1.94    2.38
   3  -7  21    2.86    2.46
   4  -7  21    1.95    2.56
   5  -7  21    2.90    2.65
   6  -7  21    0.30    2.70
   7  -7  21    2.66    2.81
   8  -7  21    3.40    2.96
   9  -7  21    1.72    3.09
   2   6 -21    0.00    0.93
   2   6 -21    1.37    1.65
   2   6 -21    1.24    1.32
   1   6 -21    0.74    1.69
   1   6 -21    0.71    1.33
   0   6 -21    0.80    1.36
   0   6 -21    1.85    1.71
   5  -6  21   -0.35    2.46
   6  -6  21    0.89    2.50
   7  -6  21    1.94    2.59
   8  -6  21   -0.31    2.71
   9  -6  21    2.13    2.83
  10  -6  21    3.86    1.76
   6   5 -21    3.37    2.08
   2   5 -21    0.56    1.64
   2   5 -21    4.93    1.27
   1   5 -21    0.07    1.23
   1   5 -21    0.18    1.57
   0   5 -21   -0.66    1.57
   0   5 -21    1.19    1.27
  -1   5 -21    0.61    1.28
  -1   5 -21    1.40    1.62
  -2   5 -21    3.88    1.32
  -2   5 -21    4.97    1.69
   9  -5  21    0.22    1.55
  10  -5  21    2.09    1.65
  11  -5  21    4.62    1.72
   6   4 -21    0.57    2.05
   5   4 -21    0.90    1.84
   1   4 -21    2.18    0.97
   1   4 -21    1.98    1.23
   0   4 -21    6.63    1.18
   0   4 -21    5.16    1.51
  -1   4 -21   -0.07    1.19
  -1   4 -21   -0.06    1.52
  -2   4 -21   -0.42    1.53
  -2   4 -21    0.55    1.21
  -3   4 -21    6.31    1.62
  -3   4 -21    5.44    1.27
  -4   4 -21    1.10    1.27
  -4   4 -21    2.52    1.62
  -5   4 -21   -0.87    1.30
  -5   4 -21   -0.47    1.65
  -6   4 -21   -1.21    1.36
  -6   4 -21   -0.23    1.72
  -7   4 -21    0.70    1.41
  -7   4 -21    0.70    1.82
  -8   4 -21   -0.43    1.45
  -8   4 -21   -0.52    1.90
  -9   4 -21    2.84    2.05
  -9   4 -21    4.21    1.52
   9  -4  21    4.50    1.44
 -10   4 -21   -0.25    1.55
 -10   4 -21   -1.56    2.21
  10  -4  21    1.93    1.53
 -11   4 -21    0.61    2.49
 -11   4 -21   -1.42    1.60
  11  -4  21    0.75    1.61
 -12   4 -21   -0.48    1.71
 -12   4 -21    1.26    2.76
   6   3 -21    2.65    2.11
   5   3 -21    1.15    1.85
   3   3 -21    4.29    2.20
   1   3 -21    0.86    1.43
   0   3 -21   -0.45    1.34
   0   3 -21   -0.15    1.06
  -1   3 -21    5.02    0.93
  -1   3 -21    5.07    1.23
  -2   3 -21    5.40    1.17
  -2   3 -21    6.34    1.50
  -3   3 -21    0.21    1.14
  -3   3 -21   -0.83    1.47
  -4   3 -21   -0.39    1.20
  -4   3 -21   -0.96    1.50
  -5   3 -21   -1.10    1.53
  -5   3 -21   -0.72    1.21
  -6   3 -21    0.13    1.61
  -6   3 -21    1.32    1.28
  -7   3 -21   -2.81    1.66
  -7   3 -21    0.48    1.30
  -8   3 -21   -1.57    1.76
  -8   3 -21    0.33    1.34
  -9   3 -21   -2.10    1.89
  -9   3 -21   -1.81    1.40
   9  -3  21   -0.21    1.32
 -10   3 -21    0.18    2.06
 -10   3 -21    1.23    1.46
  10  -3  21    2.50    1.45
 -11   3 -21   -0.60    2.25
 -11   3 -21    0.64    1.51
  11  -3  21    1.26    1.52
 -12   3 -21   -0.75    1.58
 -12   3 -21   -0.52    2.42
  12  -3  21    1.94    1.66
 -13   3 -21   -0.58    2.65
  13  -3  21   -0.99    1.72
   6   2 -21    4.63    2.12
   5   2 -21    0.50    1.88
   2   2 -21    0.86    2.07
   1   2 -21    2.49    1.99
   0   2 -21    7.53    1.37
  -1   2 -21    4.14    1.38
  -2   2 -21    1.27    1.31
  -2   2 -21    0.54    1.05
  -3   2 -21    4.26    1.19
  -3   2 -21    3.17    0.94
  -4   2 -21    0.14    1.17
  -4   2 -21    1.49    0.91
  -5   2 -21    1.75    1.52
  -5   2 -21    2.22    1.17
  -6   2 -21    0.45    1.50
  -6   2 -21    0.93    1.16
  -7   2 -21   -0.41    1.61
  -7   2 -21    0.31    1.22
  -8   2 -21   -0.57    1.66
  -8   2 -21   -0.15    1.24
  -9   2 -21    3.06    1.30
  -9   2 -21    4.13    1.79
 -10   2 -21   -1.62    1.40
 -10   2 -21    2.80    1.94
  10  -2  21    1.23    1.39
 -11   2 -21    4.30    1.44
 -11   2 -21    5.35    2.17
 -12   2 -21    0.87    2.20
 -12   2 -21    2.67    1.20
  12  -2  21    4.55    1.55
 -13   2 -21    2.09    1.31
 -13   2 -21    1.63    2.56
  13  -2  21    0.22    1.68
   6   1 -21    4.41    2.17
   5   1 -21    0.02    1.90
   1   1 -21    3.93    1.82
   0   1 -21    4.84    1.96
  -1   1 -21    3.84    1.82
  -2   1 -21    9.45    1.60
  -3   1 -21    0.66    1.33
  -4   1 -21    0.22    1.33
  -5   1 -21   -0.53    1.35
  -5   1 -21    0.82    1.08
  -6   1 -21    2.20    1.06
  -6   1 -21    2.13    1.37
  -7   1 -21    1.84    1.10
  -7   1 -21    3.02    1.42
  -8   1 -21    2.22    1.34
  -8   1 -21    1.78    1.00
  -9   1 -21   -0.40    1.42
  -9   1 -21    0.46    1.04
 -10   1 -21    2.43    1.23
 -10   1 -21    1.70    1.75
  10  -1  21   -0.78    1.30
 -11   1 -21    2.66    1.28
 -11   1 -21    2.56    1.93
  11  -1  21    3.73    1.41
 -12   1 -21    2.19    2.17
  12  -1  21    5.46    1.48
  13  -1  21   -0.15    1.64
 -14   1 -21    2.18    2.54
  14  -1  21    5.49    1.69
   6   0 -21    0.17    2.25
   5   0 -21    2.44    1.95
   2   0 -21    2.49    1.81
   1   0 -21    2.39    1.80
   0   0 -21   14.60    2.40
  -1   0 -21    3.35    1.74
  -2   0 -21    2.68    1.83
  -3   0 -21    5.29    1.68
  -4   0 -21    2.04    1.27
  -5   0 -21    2.42    1.30
  -6   0 -21    0.53    1.33
  -7   0 -21   10.03    1.80
  -8   0 -21    0.59    1.48
  -9   0 -21    2.98    1.55
 -10   0 -21    1.37    1.68
  10   0  21    0.72    1.21
 -11   0 -21    0.76    1.85
  11   0  21    0.43    1.30
 -12   0 -21    3.23    2.02
  12   0  21    4.17    1.44
 -13   0 -21    0.64    2.22
  13   0  21    3.32    1.56
  14   0  21    0.65    1.66
   5  -1 -21   -0.05    2.03
   1  -1 -21   -0.63    1.73
   0  -1 -21   11.30    1.83
  -1  -1 -21    3.08    1.71
  -2  -1 -21   10.10    1.82
  -3  -1 -21    3.32    1.62
  -4  -1 -21    1.02    1.67
  -5  -1 -21    1.44    1.73
  -6  -1 -21   18.39    2.10
  -7  -1 -21    3.93    1.48
  -8  -1 -21    0.97    1.51
  -9  -1 -21    3.73    1.57
 -10  -1 -21    2.48    1.65
 -11  -1 -21   -0.18    1.81
  11   1  21    0.21    1.30
 -12  -1 -21    2.05    2.02
  12   1  21    1.51    1.39
 -13  -1 -21    6.73    2.43
  13   1  21    5.35    1.50
 -14  -1 -21    3.07    2.45
  14   1  21    1.14    1.66
   5  -2 -21    3.83    2.17
   4  -2 -21    0.34    1.95
   2  -2 -21   -1.91    1.83
   1  -2 -21    0.12    1.73
   0  -2 -21    0.20    1.72
  -1  -2 -21   11.45    1.81
  -2  -2 -21    1.19    1.70
  -3  -2 -21    6.81    1.69
  -4  -2 -21    2.80    1.75
  -5  -2 -21    5.65    1.73
  -6  -2 -21   -0.76    1.64
  -7  -2 -21    9.49    1.84
  -8  -2 -21    2.54    1.80
  -9  -2 -21    3.43    1.84
 -10  -2 -21    2.93    1.94
 -11  -2 -21    2.84    2.02
  11   2  21    0.61    1.25
 -12  -2 -21    1.28    2.16
  12   2  21    3.40    1.33
 -13  -2 -21    3.11    2.30
  13   2  21    1.96    1.44
  14   2  21    2.71    1.59
  15   2  21    5.08    1.73
   4  -3 -21   -0.78    2.03
   1  -3 -21    0.53    1.84
  -1  -3 -21   -2.03    1.75
  -2  -3 -21    5.43    1.76
  -3  -3 -21    1.76    1.72
  -4  -3 -21    0.46    1.72
  -5  -3 -21    2.56    1.69
  -6  -3 -21   13.28    2.27
  -7  -3 -21    2.01    1.71
  -8  -3 -21    2.74    1.87
  -9  -3 -21    2.39    1.91
 -10  -3 -21    4.16    2.00
 -11  -3 -21    5.62    2.11
 -12  -3 -21    0.86    2.14
  12   3  21   -0.83    1.37
 -13  -3 -21    2.87    2.30
  13   3  21    2.50    1.44
  14   3  21    3.19    1.54
  15   3  21    0.90    1.71
   4  -4 -21    2.82    2.13
   3  -4 -21    1.68    2.01
   2  -4 -21   -0.74    1.96
   1  -4 -21   -0.07    1.85
   0  -4 -21   -1.24    1.83
  -1  -4 -21    1.90    1.81
  -2  -4 -21   -2.97    1.75
  -3  -4 -21    3.58    1.76
  -4  -4 -21   -1.96    1.78
  -5  -4 -21   -0.25    1.78
  -6  -4 -21   -0.40    1.78
  -7  -4 -21   -2.05    1.85
  -8  -4 -21   -0.87    1.92
  -9  -4 -21   -2.81    1.99
 -10  -4 -21    1.54    2.08
 -11  -4 -21   -0.58    2.17
 -12  -4 -21    0.12    2.27
  12   4  21    1.68    1.33
 -13  -4 -21   -2.67    2.46
  13   4  21    1.84    1.48
 -14  -4 -21   -1.84    2.58
  14   4  21    2.71    1.49
  15   4  21    1.42    1.66
   3  -5 -21    2.15    2.12
   1  -5 -21   -2.42    2.00
   0  -5 -21   -1.08    1.93
  -1  -5 -21   -0.49    1.87
  -2  -5 -21    6.08    1.88
  -3  -5 -21    0.89    1.87
  -4  -5 -21   -0.49    1.84
  -5  -5 -21   -2.86    1.80
  -6  -5 -21    0.94    1.84
  -7  -5 -21    2.22    1.89
  -8  -5 -21   -1.61    1.92
  -9  -5 -21   -3.43    1.97
 -10  -5 -21   -1.78    2.03
 -11  -5 -21   10.68    2.16
 -12  -5 -21   -3.32    2.16
 -13  -5 -21    1.39    2.31
  13   5  21    2.05    1.47
  14   5  21    3.66    1.60
  15   5  21    2.59    1.62
   3  -6 -21    1.87    2.16
   2  -6 -21   -1.15    2.19
   1  -6 -21    0.97    2.11
   0  -6 -21    0.48    2.09
  -1  -6 -21    1.82    2.04
  -2  -6 -21   -2.04    1.95
  -3  -6 -21    5.36    1.95
  -4  -6 -21    3.33    1.93
  -5  -6 -21    0.76    1.92
  -6  -6 -21   -0.07    1.94
  -7  -6 -21   -0.16    1.93
  -8  -6 -21    7.44    2.00
  -9  -6 -21   -0.99    1.97
 -10  -6 -21   -0.75    2.08
 -11  -6 -21   -2.90    2.02
 -12  -6 -21   -1.76    2.07
 -13  -6 -21   -3.46    2.20
 -14  -6 -21   -0.28    2.26
  14   6  21    0.49    1.62
 -15  -6 -21   -2.57    2.39
  15   6  21    4.34    1.72
   2  -7 -21    4.24    2.22
   2  -7 -21    5.95    2.32
   1  -7 -21   -2.01    2.21
   0  -7 -21   -1.51    2.13
  -2  -7 -21    5.74    2.14
  -3  -7 -21    1.18    2.10
  -4  -7 -21   -1.02    2.04
  -5  -7 -21   -0.48    2.01
  -6  -7 -21   -2.04    1.99
  -7  -7 -21    2.16    2.02
  -8  -7 -21   -3.32    2.04
  -9  -7 -21    4.58    2.08
 -10  -7 -21   -1.72    2.07
 -11  -7 -21    0.35    2.10
 -12  -7 -21    0.06    2.14
 -13  -7 -21   -3.37    2.23
 -14  -7 -21   -1.97    2.33
   1  -8 -21    4.29    2.28
   1  -8 -21    1.38    2.33
   0  -8 -21    3.39    2.21
  -1  -8 -21   -2.56    2.23
  -2  -8 -21    1.81    2.18
  -3  -8 -21   -0.95    2.21
  -4  -8 -21    1.49    2.21
  -5  -8 -21   -0.40    2.21
  -6  -8 -21    0.36    2.15
  -7  -8 -21    1.10    2.13
  -8  -8 -21    5.17    2.14
  -9  -8 -21    0.50    2.12
 -10  -8 -21   -0.78    2.15
 -11  -8 -21   -2.61    2.14
 -12  -8 -21   -1.20    2.21
 -13  -8 -21   -0.29    2.24
 -14  -8 -21   -2.00    2.33
   0  -9 -21    2.28    2.44
  -1  -9 -21    2.94    2.36
  -2  -9 -21    2.93    2.28
  -3  -9 -21    1.29    2.32
  -4  -9 -21   -2.15    2.29
  -5  -9 -21   -0.75    2.32
  -6  -9 -21   -1.47    2.27
  -7  -9 -21    0.64    2.26
  -8  -9 -21   -2.69    2.28
  -9  -9 -21    1.56    2.28
 -10  -9 -21    0.50    2.28
 -11  -9 -21    2.08    2.29
 -12  -9 -21    0.64    2.35
 -13  -9 -21   -0.75    2.42
  -2 -10 -21    1.94    2.52
  -3 -10 -21    1.53    2.45
  -4 -10 -21    8.90    2.42
  -5 -10 -21   -1.72    2.42
  -6 -10 -21   -2.11    2.40
  -7 -10 -21    0.00    2.39
  -8 -10 -21    7.54    2.41
  -9 -10 -21    0.15    2.37
 -10 -10 -21   -0.90    2.38
 -11 -10 -21   -0.03    2.37
 -12 -10 -21    0.97    2.37
 -13 -10 -21    1.14    2.39
  -4 -11 -21   -1.73    2.65
  -5 -11 -21   -0.27    2.57
  -6 -11 -21    2.65    2.53
  -7 -11 -21    8.79    2.53
  -8 -11 -21    0.56    2.47
  -9 -11 -21    0.11    2.48
 -10 -11 -21    0.21    2.48
 -11 -11 -21    1.48    2.46
  -7 -12 -21    0.88    2.74
  -8 -12 -21    2.73    2.73
   0  -9  22    1.47    2.94
   1  -9  22    5.11    3.06
   2  -9  22    4.22    3.14
   3  -9  22    1.47    3.23
   4  -9  22   -1.56    3.33
   3   8 -22   -1.93    2.05
   2   8 -22   -0.10    1.65
   2   8 -22   -0.90    2.04
   2  -8  22    9.14    2.89
   3  -8  22    4.36    2.95
   4  -8  22    1.26    3.09
   5  -8  22    4.34    3.18
   6  -8  22    5.76    3.26
   2   7 -22   -1.77    1.88
   1   7 -22   -1.31    1.52
   1   7 -22    0.44    1.91
   0   7 -22   -0.99    1.91
   4  -7  22    1.25    2.87
   5  -7  22    0.57    2.89
   6  -7  22    4.72    2.99
   7  -7  22    1.25    3.11
   8  -7  22    1.46    3.21
   2   6 -22    2.48    1.42
   2   6 -22    1.13    1.82
   1   6 -22   -1.16    1.43
   1   6 -22   -1.17    1.77
   0   6 -22    0.60    1.80
   0   6 -22    1.85    1.45
  -1   6 -22    0.89    1.84
  -1   6 -22   -0.75    1.47
  -2   6 -22    2.49    1.49
  -2   6 -22    1.72    1.86
   2   5 -22    1.35    1.61
   1   5 -22    1.57    1.77
   1   5 -22    3.74    1.37
   0   5 -22   -0.64    1.32
   0   5 -22   -0.43    1.69
  -1   5 -22   -1.41    1.70
  -1   5 -22   -1.19    1.36
  -2   5 -22    1.54    1.41
  -2   5 -22   -0.86    1.76
  -3   5 -22    1.31    1.80
  -3   5 -22    1.00    1.42
  -4   5 -22    4.80    1.87
  -4   5 -22    5.62    1.48
  -5   5 -22    1.61    1.49
  -5   5 -22   -0.69    1.87
  -6   5 -22    1.16    1.53
  -6   5 -22    0.02    1.94
  -9   5 -22    3.24    2.30
  -9   5 -22    3.67    1.68
 -10   5 -22    2.10    1.79
 -10   5 -22   -1.92    2.51
  10  -5  22   -0.44    1.80
   2   4 -22    0.22    1.59
   1   4 -22    1.29    1.24
   1   4 -22    0.18    1.57
   0   4 -22    2.30    1.04
   0   4 -22    0.38    1.30
  -1   4 -22    0.00    1.67
  -1   4 -22    1.45    1.30
  -2   4 -22    2.06    1.66
  -2   4 -22    1.19    1.28
  -3   4 -22    0.68    1.34
  -3   4 -22    0.98    1.68
  -4   4 -22   -1.21    1.37
  -4   4 -22   -0.83    1.72
  -5   4 -22    3.81    1.43
  -5   4 -22    5.61    1.82
  -6   4 -22    0.72    1.84
  -6   4 -22    0.62    1.45
  -7   4 -22   -0.17    1.93
  -7   4 -22   -0.37    1.50
  -8   4 -22   -0.57    2.06
  -8   4 -22   -0.33    1.54
  -9   4 -22   -0.32    2.17
  -9   4 -22    0.46    1.60
 -10   4 -22   -1.26    2.33
 -10   4 -22   -0.44    1.65
  10  -4  22   -0.65    1.67
 -11   4 -22   -1.54    2.55
 -11   4 -22   -0.93    1.71
  11  -4  22    2.16    1.82
   5   3 -22    1.80    2.11
   1   3 -22    3.89    1.56
   0   3 -22    1.91    1.50
  -1   3 -22    0.15    1.50
  -1   3 -22    1.27    1.18
  -2   3 -22   -0.92    1.30
  -2   3 -22    1.55    1.03
  -3   3 -22    0.69    1.29
  -3   3 -22    2.59    1.01
  -4   3 -22    2.40    1.26
  -4   3 -22    2.13    1.63
  -5   3 -22    1.94    1.68
  -5   3 -22    0.06    1.29
  -6   3 -22    0.40    1.72
  -6   3 -22    0.19    1.33
  -7   3 -22   -1.69    1.77
  -7   3 -22   -1.17    1.38
  -8   3 -22    2.72    1.87
  -8   3 -22   -0.66    1.45
  -9   3 -22   -1.13    1.97
  -9   3 -22   -2.24    1.49
 -10   3 -22    0.35    2.14
 -10   3 -22   -2.84    1.54
  10  -3  22    0.30    1.58
 -11   3 -22   -0.57    2.35
 -11   3 -22    0.76    1.58
  11  -3  22    2.40    1.74
 -12   3 -22    0.07    1.72
 -12   3 -22    1.87    2.65
  12  -3  22    3.04    1.77
   5   2 -22    4.75    2.15
   1   2 -22    7.44    2.38
   0   2 -22    3.07    1.49
  -1   2 -22    3.65    1.44
  -2   2 -22    0.29    1.46
  -3   2 -22    3.33    1.21
  -3   2 -22    2.34    1.50
  -4   2 -22    1.52    1.15
  -4   2 -22    0.02    1.47
  -5   2 -22    3.85    1.03
  -5   2 -22    2.88    1.30
  -6   2 -22    1.63    1.05
  -6   2 -22    0.39    1.33
  -7   2 -22    2.94    1.40
  -7   2 -22    2.52    1.06
  -8   2 -22    1.08    1.45
  -8   2 -22    2.21    1.10
  -9   2 -22    2.12    1.13
  -9   2 -22    0.13    1.57
 -10   2 -22    1.53    1.18
 -10   2 -22    0.89    1.75
 -11   2 -22    0.81    1.99
 -11   2 -22    1.68    1.24
  11  -2  22    0.63    1.66
 -12   2 -22    2.91    1.32
 -12   2 -22    1.63    2.30
  12  -2  22    3.21    1.73
   5   1 -22   -0.68    2.15
   2   1 -22    3.08    2.14
   1   1 -22    4.43    2.19
   0   1 -22    7.69    2.11
  -1   1 -22    4.66    2.23
  -2   1 -22    0.62    2.01
  -3   1 -22    0.36    1.40
  -4   1 -22    4.84    1.45
  -5   1 -22    1.19    1.47
  -6   1 -22    0.20    1.51
  -7   1 -22   -1.78    1.58
  -8   1 -22    4.85    1.29
  -9   1 -22    3.49    1.76
  -9   1 -22    2.75    1.31
 -10   1 -22    1.84    1.35
 -10   1 -22   -0.24    1.90
 -11   1 -22    1.34    2.08
  11  -1  22    0.84    1.56
 -12   1 -22    3.31    2.31
  12  -1  22    4.85    1.66
 -13   1 -22    3.32    2.52
  13  -1  22    3.52    1.73
   2   0 -22   -1.03    2.01
   1   0 -22    3.60    2.04
   0   0 -22    7.69    2.04
  -1   0 -22    6.69    2.06
  -2   0 -22   -0.87    1.96
  -3   0 -22    2.15    2.05
  -4   0 -22    1.09    1.81
  -5   0 -22    3.07    1.43
  -6   0 -22    1.75    1.44
  -7   0 -22   10.50    1.90
  -8   0 -22    0.63    1.56
  -9   0 -22    4.77    1.66
 -10   0 -22    3.08    1.78
 -11   0 -22    1.12    1.92
  11   0  22   -1.80    1.46
 -12   0 -22    3.41    2.15
  12   0  22    1.14    1.61
 -13   0 -22   -0.02    2.40
  13   0  22    2.50    1.69
   4  -1 -22    2.03    2.13
   2  -1 -22   -2.84    2.04
   1  -1 -22   -1.42    1.92
   0  -1 -22    2.55    1.95
  -1  -1 -22    2.82    1.97
  -2  -1 -22    1.78    1.98
  -3  -1 -22    3.91    2.01
  -4  -1 -22    4.45    1.91
  -5  -1 -22    0.96    1.96
  -6  -1 -22    1.75    2.01
  -7  -1 -22    8.31    2.11
  -8  -1 -22   14.12    2.75
  -9  -1 -22    3.28    1.73
 -10  -1 -22    0.53    1.78
 -11  -1 -22    3.18    2.47
 -12  -1 -22    2.19    2.54
  12   1  22    1.53    1.58
 -13  -1 -22    3.94    2.64
  13   1  22    4.04    1.68
   4  -2 -22    4.65    2.19
   2  -2 -22   -0.17    2.07
   1  -2 -22   -1.68    1.92
   0  -2 -22   -0.88    1.96
  -1  -2 -22    6.21    1.92
  -2  -2 -22   -0.88    1.90
  -3  -2 -22    2.45    1.90
  -4  -2 -22    5.41    1.92
  -5  -2 -22    8.40    2.02
  -6  -2 -22    4.34    2.00
  -7  -2 -22    4.13    2.03
  -8  -2 -22    1.02    2.02
  -9  -2 -22    4.05    2.07
 -10  -2 -22    1.05    2.17
 -11  -2 -22    1.93    2.27
 -12  -2 -22    0.55    2.45
  12   2  22    0.13    1.50
 -13  -2 -22    2.36    2.61
  13   2  22    3.20    1.64
 -14  -2 -22    2.76    2.69
  14   2  22    2.02    1.71
   2  -3 -22   -0.22    2.09
   0  -3 -22   -1.57    1.98
  -1  -3 -22   -1.01    1.91
  -2  -3 -22   -3.31    1.95
  -3  -3 -22   -2.46    1.94
  -4  -3 -22    9.78    2.02
  -5  -3 -22    1.86    1.94
  -6  -3 -22    1.57    1.96
  -7  -3 -22    5.05    2.01
  -8  -3 -22    2.11    2.06
  -9  -3 -22    5.93    2.16
 -10  -3 -22    0.73    2.22
 -11  -3 -22    2.04    2.32
 -12  -3 -22    5.55    2.48
 -13  -3 -22    6.36    2.56
  13   3  22    3.75    1.67
  14   3  22    5.01    1.74
   3  -4 -22    2.78    2.26
   2  -4 -22   -1.94    2.22
   1  -4 -22    0.18    2.09
   0  -4 -22   -0.57    2.05
  -1  -4 -22    4.53    2.06
  -2  -4 -22   -2.58    1.98
  -3  -4 -22   -2.97    1.95
  -4  -4 -22   -2.85    1.99
  -5  -4 -22    1.67    1.98
  -6  -4 -22   -0.28    2.06
  -7  -4 -22    0.67    2.05
  -9  -4 -22   -0.57    2.21
 -10  -4 -22    0.55    2.33
 -11  -4 -22   -0.10    2.41
 -12  -4 -22   -1.42    2.52
 -13  -4 -22   -2.35    2.69
  13   4  22   -1.14    1.60
 -14  -4 -22    2.01    2.84
  14   4  22    4.72    1.81
   2  -5 -22   -3.08    2.31
   1  -5 -22   -1.99    2.23
   0  -5 -22   -0.12    2.12
  -1  -5 -22    0.12    2.08
  -2  -5 -22    1.95    2.07
  -3  -5 -22   -0.79    2.08
  -4  -5 -22    3.18    2.08
  -5  -5 -22   -1.44    2.05
  -6  -5 -22   -0.39    2.04
  -7  -5 -22   -2.33    2.07
  -8  -5 -22    3.76    2.14
  -9  -5 -22    2.09    2.19
 -10  -5 -22   -3.79    2.27
 -11  -5 -22   -3.99    2.31
 -12  -5 -22   -3.10    2.38
 -13  -5 -22   -0.94    2.51
  14   5  22    1.29    1.75
   1  -6 -22   -3.19    2.36
   0  -6 -22   -0.85    2.26
  -1  -6 -22    2.04    2.24
  -2  -6 -22   -2.59    2.16
  -3  -6 -22   -1.43    2.14
  -4  -6 -22   -1.24    2.16
  -5  -6 -22   -2.47    2.15
  -6  -6 -22   -0.96    2.15
  -7  -6 -22   -1.40    2.16
  -8  -6 -22   -0.37    2.18
  -9  -6 -22   -2.04    2.19
 -10  -6 -22    6.58    2.23
 -11  -6 -22   -1.63    2.21
 -12  -6 -22   -2.77    2.30
 -13  -6 -22   -2.30    2.34
   0  -7 -22   -0.08    2.37
  -1  -7 -22   -0.30    2.34
  -2  -7 -22    0.45    2.34
  -3  -7 -22    0.69    2.32
  -4  -7 -22   -2.01    2.26
  -5  -7 -22    2.09    2.25
  -6  -7 -22   -0.60    2.22
  -7  -7 -22   -3.65    2.23
  -8  -7 -22    0.24    2.28
  -9  -7 -22   -0.59    2.30
 -10  -7 -22    1.22    2.39
 -11  -7 -22   -2.98    2.31
 -12  -7 -22   -0.67    2.37
 -13  -7 -22   -2.07    2.48
  -1  -8 -22   -1.32    2.47
  -2  -8 -22   -0.75    2.41
  -3  -8 -22   -2.23    2.43
  -4  -8 -22   -1.74    2.44
  -5  -8 -22    3.25    2.43
  -6  -8 -22    1.84    2.43
  -7  -8 -22   -3.17    2.37
  -8  -8 -22    0.07    2.35
  -9  -8 -22   -0.39    2.35
 -10  -8 -22    7.35    2.39
 -11  -8 -22    0.33    2.38
 -12  -8 -22   -1.36    2.41
 -13  -8 -22   -0.86    2.47
  -2  -9 -22    4.70    2.52
  -3  -9 -22   -1.49    2.56
  -4  -9 -22   -2.42    2.54
  -5  -9 -22   -0.68    2.55
  -6  -9 -22   -1.60    2.52
  -7  -9 -22    0.19    2.53
  -8  -9 -22   -1.28    2.53
  -9  -9 -22    2.15    2.53
 -10  -9 -22    1.79    2.53
 -11  -9 -22   -0.05    2.51
 -12  -9 -22   -0.54    2.53
  -4 -10 -22    6.53    2.63
  -5 -10 -22   -1.16    2.66
  -6 -10 -22   -1.51    2.65
  -7 -10 -22   -1.78    2.62
  -8 -10 -22    0.22    2.64
  -9 -10 -22   -0.02    2.63
 -10 -10 -22    3.65    2.65
 -11 -10 -22   -0.62    2.61
   1   7 -23   -1.71    1.64
   1   7 -23   -0.74    2.05
   0   7 -23   -0.62    1.66
   0   7 -23   -1.12    2.10
  -1   7 -23    0.86    1.70
  -1   7 -23    0.35    2.11
   2   6 -23    0.82    1.59
   2   6 -23    2.68    1.26
   1   6 -23    0.33    1.99
   1   6 -23    2.10    1.57
   0   6 -23   -1.30    1.54
   0   6 -23   -0.06    1.95
  -1   6 -23    1.26    1.98
  -1   6 -23    0.43    1.57
  -2   6 -23    0.91    1.61
  -2   6 -23    0.54    2.05
  -3   6 -23    0.97    2.04
  -3   6 -23   -1.70    1.64
  -4   6 -23   -0.43    1.69
  -4   6 -23    0.36    2.11
  -5   6 -23    0.56    2.14
   3   5 -23   -0.05    1.83
   2   5 -23    3.11    1.81
   1   5 -23    1.64    1.72
   0   5 -23   -0.27    1.44
   0   5 -23    2.22    1.14
  -1   5 -23   -0.62    1.86
  -1   5 -23    0.10    1.45
  -2   5 -23    0.07    1.49
  -2   5 -23   -1.24    1.88
  -3   5 -23   -1.27    1.53
  -3   5 -23   -0.88    1.93
  -4   5 -23   -1.78    1.96
  -4   5 -23   -0.54    1.58
  -5   5 -23    2.14    2.02
  -5   5 -23    0.13    1.61
  -6   5 -23    3.10    2.11
  -6   5 -23   -1.62    1.64
  -7   5 -23   -1.77    1.70
  -7   5 -23    0.63    2.19
  -8   5 -23   -0.95    1.76
  -8   5 -23   -1.57    2.29
  -9   5 -23   -1.79    2.46
  -9   5 -23   -1.49    1.80
   3   4 -23    6.33    3.04
   2   4 -23    3.06    1.74
   1   4 -23    1.31    1.73
   0   4 -23   -1.30    1.69
   0   4 -23   -0.45    1.34
  -1   4 -23    1.90    1.15
  -1   4 -23    1.82    1.46
  -2   4 -23    1.52    1.43
  -2   4 -23    0.85    1.11
  -3   4 -23    0.14    1.86
  -3   4 -23    0.97    1.46
  -4   4 -23   -3.34    1.44
  -4   4 -23    0.11    1.84
  -5   4 -23    0.28    1.51
  -5   4 -23    1.45    1.89
  -6   4 -23   -1.97    1.94
  -6   4 -23   -0.29    1.55
  -7   4 -23   -1.59    2.03
  -7   4 -23    0.98    1.59
  -8   4 -23   -0.14    1.64
  -8   4 -23   -2.91    2.13
  -9   4 -23   -0.62    1.69
  -9   4 -23    1.22    2.26
 -10   4 -23   -1.01    1.76
 -10   4 -23   -0.38    2.46
   2   3 -23    2.91    2.80
   1   3 -23    4.48    2.75
   0   3 -23    1.75    1.64
  -1   3 -23    2.35    1.65
  -2   3 -23   -0.54    1.31
  -2   3 -23    0.27    1.64
  -3   3 -23   -0.10    1.63
  -3   3 -23    2.51    1.28
  -4   3 -23    2.39    1.11
  -4   3 -23    0.77    1.42
  -5   3 -23    0.62    1.45
  -5   3 -23    1.66    1.12
  -6   3 -23    5.07    1.90
  -6   3 -23    5.38    1.48
  -7   3 -23   -0.15    1.89
  -7   3 -23    2.54    1.46
  -8   3 -23    0.55    1.58
  -8   3 -23    2.63    2.05
  -9   3 -23   -0.05    1.63
  -9   3 -23    2.48    2.19
 -10   3 -23    4.14    2.30
 -10   3 -23    2.08    1.62
   2   2 -23    5.24    2.65
   1   2 -23   -0.87    2.44
   0   2 -23    6.79    2.67
  -1   2 -23    1.70    1.56
  -2   2 -23    2.89    1.56
  -3   2 -23    2.07    1.58
  -4   2 -23   -0.53    1.63
  -5   2 -23    0.71    1.65
  -5   2 -23   -0.67    1.30
  -6   2 -23    0.68    1.29
  -6   2 -23    0.00    1.65
  -7   2 -23    4.94    1.75
  -7   2 -23    2.54    1.35
  -8   2 -23    1.00    1.22
  -8   2 -23    1.02    1.59
  -9   2 -23    3.86    1.28
  -9   2 -23    4.09    1.76
 -10   2 -23    1.75    1.47
 -10   2 -23    1.46    2.07
 -11   2 -23    2.39    1.54
 -11   2 -23    2.52    2.32
   2   1 -23    5.12    2.40
   1   1 -23    5.66    2.51
   0   1 -23    1.81    2.40
  -1   1 -23   -1.05    2.36
  -2   1 -23    6.49    2.49
  -3   1 -23    1.40    2.32
  -4   1 -23    0.34    1.53
  -5   1 -23    1.46    1.57
  -6   1 -23    2.27    1.62
  -7   1 -23    1.75    1.68
  -8   1 -23    0.90    1.79
  -9   1 -23    1.67    1.87
 -10   1 -23    3.44    2.04
 -11   1 -23    2.32    2.22
 -12   1 -23    2.29    2.44
  12  -1  23   -1.68    1.84
   1   0 -23   -0.39    2.25
   0   0 -23    4.03    2.33
  -1   0 -23    4.61    2.36
  -2   0 -23    2.84    2.29
  -3   0 -23    3.50    2.24
  -4   0 -23    2.23    2.36
  -5   0 -23    4.90    2.09
  -6   0 -23    1.71    1.99
  -7   0 -23    3.92    1.65
  -8   0 -23    1.54    1.70
  -9   0 -23    0.37    1.75
 -10   0 -23    3.27    1.91
 -11   0 -23    1.06    2.05
 -12   0 -23    4.14    2.39
  12   0  23    1.07    1.74
   1  -1 -23   -1.47    2.16
   0  -1 -23   -2.56    2.11
  -1  -1 -23    1.68    2.18
  -2  -1 -23    5.76    2.24
  -3  -1 -23    4.79    2.31
  -4  -1 -23   -0.97    2.28
  -5  -1 -23    1.02    2.20
  -6  -1 -23    4.61    2.26
  -7  -1 -23    5.18    2.37
  -8  -1 -23    3.01    2.44
  -9  -1 -23    3.68    2.51
 -10  -1 -23    4.22    2.62
 -11  -1 -23    2.93    2.70
 -12  -1 -23   -0.20    2.79
   0  -2 -23   -1.90    2.16
  -1  -2 -23   -3.36    2.13
  -2  -2 -23   -1.30    2.12
  -3  -2 -23    4.68    2.18
  -4  -2 -23    1.89    2.17
  -5  -2 -23    3.70    2.23
  -6  -2 -23    6.47    2.32
  -7  -2 -23    3.83    2.35
  -8  -2 -23    6.47    2.43
  -9  -2 -23    2.36    2.49
 -10  -2 -23    5.95    2.58
 -11  -2 -23    2.04    2.69
 -12  -2 -23    2.90    2.82
 -13  -2 -23    5.16    2.94
  13   2  23    1.35    1.80
   2  -3 -23    0.37    2.32
   0  -3 -23   -1.32    2.22
  -1  -3 -23   -2.09    2.13
  -2  -3 -23   -2.22    2.17
  -3  -3 -23   -0.01    2.16
  -4  -3 -23   -1.68    2.17
  -5  -3 -23   -0.01    2.21
  -6  -3 -23    4.78    2.26
  -7  -3 -23    0.88    2.30
  -8  -3 -23    2.48    2.33
  -9  -3 -23    1.05    2.45
 -10  -3 -23    2.74    2.54
 -11  -3 -23    2.37    2.64
 -12  -3 -23   -0.04    2.71
 -13  -3 -23    2.79    3.00
   1  -4 -23   -1.24    2.33
   0  -4 -23   -2.16    2.27
  -1  -4 -23   -2.93    2.22
  -2  -4 -23    0.37    2.22
  -4  -4 -23   -0.98    2.20
  -5  -4 -23   -3.05    2.24
  -6  -4 -23   -1.89    2.25
  -7  -4 -23   -0.95    2.33
  -8  -4 -23    0.68    2.41
  -9  -4 -23   -0.74    2.48
 -10  -4 -23    0.20    2.59
 -11  -4 -23   -3.71    2.66
 -12  -4 -23   -3.53    2.78
 -13  -4 -23   -3.49    2.96
   0  -5 -23   -2.33    2.37
  -1  -5 -23   -2.00    2.32
  -2  -5 -23   -3.02    2.29
  -3  -5 -23   -1.01    2.30
  -4  -5 -23    0.80    2.32
  -5  -5 -23   -0.80    2.31
  -6  -5 -23   -0.30    2.30
  -7  -5 -23   -3.45    2.32
  -8  -5 -23   -2.32    2.37
  -9  -5 -23   -1.25    2.44
 -10  -5 -23   -1.21    2.50
 -11  -5 -23   -0.48    2.56
 -12  -5 -23   -2.08    2.63
 -13  -5 -23   -1.50    2.74
  -1  -6 -23   -1.43    2.48
  -2  -6 -23   -1.58    2.39
  -3  -6 -23    0.20    2.39
  -4  -6 -23   -3.46    2.38
  -5  -6 -23   -0.74    2.40
  -6  -6 -23   -3.14    2.40
  -7  -6 -23    3.58    2.43
  -8  -6 -23   -0.93    2.44
  -9  -6 -23    2.02    2.46
 -10  -6 -23   -4.32    2.46
 -11  -6 -23   -4.15    2.47
 -12  -6 -23   -2.13    2.49
  -2  -7 -23   -1.10    2.58
  -3  -7 -23    4.25    2.60
  -4  -7 -23   -0.92    2.53
  -5  -7 -23    0.99    2.49
  -6  -7 -23   -0.74    2.50
  -7  -7 -23   -3.36    2.46
  -8  -7 -23   -1.82    2.54
  -9  -7 -23    0.53    2.53
 -10  -7 -23   -1.18    2.54
 -11  -7 -23   -0.35    2.57
 -12  -7 -23    0.21    2.58
  -3  -8 -23   -2.24    2.68
  -4  -8 -23   -0.15    2.67
  -5  -8 -23   -0.31    2.69
  -6  -8 -23    2.23    2.69
  -7  -8 -23   -1.20    2.64
  -8  -8 -23    2.06    2.60
  -9  -8 -23   -3.29    2.61
 -10  -8 -23   -0.43    2.61
 -11  -8 -23   -1.77    2.63
  -5  -9 -23   -1.63    2.80
  -6  -9 -23   -2.75    2.76
  -8  -9 -23   -3.18    2.79
  -9  -9 -23    0.14    2.82
  -2   6 -24   -1.50    1.71
  -2   6 -24   -1.45    2.12
  -3   6 -24   -0.07    1.75
  -3   6 -24   -0.45    2.18
  -4   6 -24    0.15    2.30
  -4   6 -24   -0.42    1.83
   0   5 -24    1.06    1.48
   0   5 -24    1.62    1.89
  -1   5 -24    0.76    1.61
  -1   5 -24    3.04    1.28
  -2   5 -24    3.63    1.57
  -2   5 -24   -0.82    2.01
  -3   5 -24    1.22    2.06
  -3   5 -24   -0.49    1.60
  -4   5 -24   -1.25    1.69
  -4   5 -24   -1.01    2.13
  -5   5 -24   -2.21    2.14
  -5   5 -24   -1.40    1.71
  -6   5 -24    0.13    2.24
  -6   5 -24    0.07    1.79
  -7   5 -24   -1.11    2.33
  -7   5 -24   -1.18    1.85
   1   4 -24    2.08    1.85
   0   4 -24    1.42    1.88
  -1   4 -24    0.90    1.50
  -1   4 -24    0.06    1.84
  -2   4 -24    0.23    1.45
  -2   4 -24   -0.15    1.81
  -3   4 -24    0.69    1.60
  -3   4 -24    1.38    1.27
  -4   4 -24    1.44    2.08
  -4   4 -24    3.32    1.61
  -5   4 -24   -0.68    2.02
  -5   4 -24    0.07    1.59
  -6   4 -24   -0.78    1.63
  -6   4 -24    0.06    2.11
  -7   4 -24   -0.22    2.20
  -7   4 -24    1.53    1.68
  -8   4 -24   -2.47    2.27
  -8   4 -24   -0.39    1.72
   1   3 -24    7.42    3.15
   0   3 -24    2.22    1.79
  -1   3 -24    2.44    1.73
  -2   3 -24    1.49    1.77
  -3   3 -24    2.75    1.81
  -4   3 -24    1.18    1.80
  -4   3 -24    2.91    1.43
  -5   3 -24    1.85    1.43
  -5   3 -24    0.52    1.82
  -6   3 -24    1.86    1.25
  -6   3 -24    1.45    1.62
  -7   3 -24    1.78    1.69
  -7   3 -24    2.42    1.32
  -8   3 -24    2.16    1.75
  -8   3 -24    3.39    1.33
  -9   3 -24    1.99    1.37
  -9   3 -24   -1.43    1.86
   1   2 -24    2.60    2.85
   0   2 -24    4.65    2.80
  -1   2 -24   10.48    3.00
  -2   2 -24    0.70    1.73
  -3   2 -24    0.89    1.69
  -4   2 -24    2.14    1.76
  -5   2 -24   -0.80    1.80
  -6   2 -24   -0.07    1.85
  -7   2 -24   -0.60    1.91
  -8   2 -24   -0.68    1.96
  -8   2 -24    0.43    1.54
  -9   2 -24   -0.19    2.09
  -9   2 -24    1.93    1.60
 -10   2 -24    1.33    1.64
 -10   2 -24    0.39    2.26
   1   1 -24    2.36    2.71
   0   1 -24    9.62    2.79
  -1   1 -24    4.30    2.67
  -2   1 -24    5.28    2.67
  -3   1 -24    6.23    2.80
  -4   1 -24    1.31    2.63
  -5   1 -24    2.28    1.71
  -6   1 -24    1.36    1.73
  -7   1 -24    3.28    1.79
  -8   1 -24    2.43    1.87
  -9   1 -24    2.91    1.99
 -10   1 -24    3.78    2.12
   1   0 -24   -1.86    2.39
   0   0 -24    1.22    2.48
  -1   0 -24    6.17    2.57
  -2   0 -24    4.21    2.66
  -3   0 -24    3.29    2.56
  -4   0 -24    0.82    2.53
  -5   0 -24    4.35    2.67
  -6   0 -24    3.46    2.73
  -7   0 -24    4.30    2.26
  -8   0 -24    3.57    2.23
  -9   0 -24    2.44    2.20
 -10   0 -24    4.49    2.26
 -11   0 -24    1.35    2.38
   1  -1 -24   -1.70    2.43
  -1  -1 -24    2.18    2.38
  -2  -1 -24    1.23    2.51
  -3  -1 -24    5.32    2.54
  -4  -1 -24    3.06    2.61
  -5  -1 -24    5.90    2.64
  -6  -1 -24    1.40    2.59
  -7  -1 -24    1.07    2.64
  -8  -1 -24    1.88    2.68
  -9  -1 -24    3.51    2.75
 -10  -1 -24    2.56    2.87
 -11  -1 -24    5.15    2.96
   0  -2 -24    1.91    2.39
  -1  -2 -24   -2.82    2.37
  -2  -2 -24   -3.01    2.37
  -3  -2 -24    2.28    2.41
  -4  -2 -24    1.09    2.47
  -5  -2 -24    2.89    2.51
  -6  -2 -24    0.85    2.60
  -7  -2 -24    4.68    2.70
  -8  -2 -24    3.58    2.75
  -9  -2 -24    3.01    2.82
 -10  -2 -24    4.47    2.94
 -11  -2 -24    9.97    3.06
   0  -3 -24   -0.58    2.49
  -1  -3 -24   -2.58    2.39
  -3  -3 -24   -2.24    2.42
  -4  -3 -24   -2.43    2.43
  -5  -3 -24    0.16    2.47
  -6  -3 -24    2.58    2.58
  -7  -3 -24   -0.24    2.57
  -8  -3 -24    0.54    2.66
  -9  -3 -24    0.79    2.77
 -10  -3 -24    0.19    2.88
 -11  -3 -24    2.09    2.98
  -1  -4 -24   -2.60    2.47
  -2  -4 -24   -0.57    2.47
  -3  -4 -24   -4.33    2.45
  -4  -4 -24   -1.45    2.45
  -5  -4 -24    0.16    2.53
  -6  -4 -24   -4.09    2.53
  -8  -4 -24   -3.11    2.68
  -9  -4 -24   -3.15    2.77
 -10  -4 -24   -1.22    2.83
 -11  -4 -24   -0.04    2.95
  -2  -5 -24    0.89    2.53
  -3  -5 -24   -2.18    2.54
  -4  -5 -24   -0.12    2.59
  -5  -5 -24    1.43    2.58
  -6  -5 -24   -3.66    2.55
  -7  -5 -24    0.60    2.64
  -8  -5 -24   -0.65    2.66
  -9  -5 -24   -2.61    2.70
 -10  -5 -24   -0.47    2.77
 -11  -5 -24   -0.65    2.83
  -3  -6 -24   -1.99    2.64
  -4  -6 -24   -0.11    2.64
  -5  -6 -24   -1.01    2.67
  -6  -6 -24   -1.53    2.69
  -7  -6 -24   -3.62    2.69
  -8  -6 -24   -3.96    2.74
  -9  -6 -24    2.39    2.71
 -10  -6 -24   -0.10    2.73
  -5  -7 -24   -0.46    2.78
  -6  -7 -24    1.82    2.77
  -7  -7 -24   -1.77    2.76
  -8  -7 -24   -3.35    2.78
  -2   3 -25    4.25    1.92
  -3   3 -25    1.90    1.92
  -4   3 -25    1.00    2.01
  -5   3 -25   -0.84    2.06
  -6   3 -25   -0.59    1.65
  -6   3 -25    0.26    2.06
  -2   2 -25    6.41    3.28
  -3   2 -25    3.23    3.21
  -4   2 -25    0.32    1.87
  -5   2 -25    0.42    1.90
  -6   2 -25   -0.78    1.98
  -7   2 -25    1.17    2.04
  -2   1 -25    1.80    2.98
  -3   1 -25    5.16    2.98
  -4   1 -25    3.93    3.14
  -5   1 -25    3.30    2.99
  -6   1 -25    3.50    2.85
  -7   1 -25    1.29    1.95
  -8   1 -25    1.38    2.03
  -2   0 -25    5.61    2.92
  -3   0 -25    6.19    2.99
  -4   0 -25    5.60    2.97
  -5   0 -25    1.34    2.89
  -6   0 -25   -0.35    2.95
  -7   0 -25    3.24    3.13
  -8   0 -25    6.39    3.24
  -2  -1 -25   -2.68    2.73
  -3  -1 -25    2.62    2.81
  -4  -1 -25    0.60    2.90
  -5  -1 -25    4.44    2.99
  -6  -1 -25    5.41    3.00
  -7  -1 -25   11.65    3.09
  -8  -1 -25    4.18    3.08
  -9  -1 -25   -0.28    3.15
  -2  -2 -25    3.15    2.64
  -3  -2 -25   -1.64    2.66
  -4  -2 -25   -2.74    2.71
  -5  -2 -25    0.79    2.81
  -6  -2 -25    1.61    2.87
  -7  -2 -25    4.80    3.01
  -8  -2 -25   -0.29    3.07
  -9  -2 -25    3.11    3.18
  -3  -3 -25   -2.37    2.73
  -4  -3 -25   -1.41    2.73
  -5  -3 -25   -4.91    2.79
  -6  -3 -25   -2.18    2.81
  -7  -3 -25   -2.20    2.88
  -8  -3 -25   -1.99    2.94
  -9  -3 -25   -0.91    3.02
  -4  -4 -25   -3.67    2.74
  -5  -4 -25   -1.21    2.78
  -6  -4 -25   -3.40    2.84
  -7  -4 -25   -3.68    2.85
  -8  -4 -25   -2.63    2.90
  -6  -5 -25   -0.55    2.89
  -7  -5 -25   -3.63    2.87
   0   0   0    0.00    0.00
;
_shelx_hkl_checksum              33402
loop_
_space_group_symop_operation_xyz
'x, y, z'
'-x, -y, -z'
loop_
_atom_site_label
_atom_site_type_symbol
_atom_site_fract_x
_atom_site_fract_y
_atom_site_fract_z
_atom_site_U_iso_or_equiv
_atom_site_adp_type
_atom_site_occupancy
_atom_site_site_symmetry_order
_atom_site_calc_flag
_atom_site_refinement_flags_posn
_atom_site_refinement_flags_adp
_atom_site_refinement_flags_occupancy
_atom_site_disorder_assembly
_atom_site_disorder_group
Mn1 Mn 0.81743(10) 0.49001(10) 0.35818(8) 0.0280(4) Uani 1 1 d . . . . .
Mn2 Mn 0.87337(10) 0.46511(10) 0.15653(8) 0.0284(4) Uani 1 1 d . . . . .
I1 I 0.48015(13) 0.16699(14) 0.2427(2) 0.0675(9) Uani 0.711(8) 1 d . . P A .
I1A I 0.4977(3) 0.1456(3) 0.2749(3) 0.0448(13) Uiso 0.289(8) 1 d . . P A 1
I2 I 0.38482(6) 0.01976(6) 0.27125(4) 0.0466(2) Uani 1 1 d . . . . .
I3 I 0.28449(7) -0.12117(7) 0.29593(7) 0.0854(4) Uani 1 1 d . . . . .
O1 O 0.8733(5) 0.5030(5) 0.2545(3) 0.0312(16) Uani 1 1 d . . . . .
N1 N 0.7504(5) 0.6263(5) 0.3900(5) 0.0288(19) Uani 1 1 d . . . . .
N2 N 0.9346(6) 0.4933(5) 0.3885(5) 0.031(2) Uani 1 1 d . . . . .
N3 N 0.8670(6) 0.3492(5) 0.3647(5) 0.0302(19) Uani 1 1 d . . . . .
N4 N 0.6845(6) 0.4828(5) 0.3618(4) 0.0286(19) Uani 1 1 d . . . . .
N101 N 0.8572(6) 0.5919(6) 0.1154(5) 0.034(2) Uani 1 1 d . . . . .
N102 N 1.0207(5) 0.4288(5) 0.1150(4) 0.0264(18) Uani 1 1 d . . . . .
N103 N 0.8927(6) 0.3269(5) 0.1638(4) 0.0273(19) Uani 1 1 d . . . . .
N104 N 0.7297(6) 0.4897(5) 0.1635(4) 0.031(2) Uani 1 1 d . . . . .
C1 C 0.6658(7) 0.6854(7) 0.3732(6) 0.034(2) Uani 1 1 d . . . . .
C2 C 0.6516(7) 0.7827(7) 0.3925(5) 0.028(2) Uani 1 1 d . . . . .
C3 C 0.7236(7) 0.7813(7) 0.4233(5) 0.031(2) Uani 1 1 d . . . . .
C4 C 0.7868(6) 0.6856(6) 0.4188(5) 0.022(2) Uani 1 1 d . . . . .
C5 C 0.8780(7) 0.6573(7) 0.4346(5) 0.031(2) Uani 1 1 d . . . . .
H5A H 0.8920 0.7024 0.4597 0.037 Uiso 1 1 calc R U . . .
C6 C 0.9495(7) 0.5704(7) 0.4171(5) 0.032(2) Uani 1 1 d . . . . .
C7 C 1.0515(7) 0.5476(8) 0.4180(6) 0.038(3) Uani 1 1 d . . . . .
C8 C 1.0993(7) 0.4610(9) 0.3853(8) 0.053(4) Uani 1 1 d . . . . .
C9 C 1.0282(7) 0.4243(8) 0.3680(7) 0.047(3) Uani 1 1 d . . . . .
C10 C 1.0415(8) 0.3324(8) 0.3481(9) 0.075(5) Uani 1 1 d . . . . .
C11 C 0.9661(8) 0.2955(7) 0.3572(6) 0.043(3) Uani 1 1 d . . . . .
C12 C 0.9722(8) 0.1967(7) 0.3635(6) 0.036(3) Uani 1 1 d . . . . .
C13 C 0.8791(8) 0.1919(7) 0.3718(6) 0.036(3) Uani 1 1 d . . . . .
C14 C 0.8165(7) 0.2860(6) 0.3699(5) 0.029(2) Uani 1 1 d . . . . .
C15 C 0.7172(7) 0.3137(7) 0.3699(5) 0.034(2) Uani 1 1 d . . . . .
H15A H 0.6891 0.2645 0.3731 0.040 Uiso 1 1 calc R U . . .
C16 C 0.6546(8) 0.4033(7) 0.3659(5) 0.031(2) Uani 1 1 d . . . . .
C17 C 0.5553(7) 0.4273(7) 0.3632(5) 0.032(2) Uani 1 1 d . . . . .
C18 C 0.5224(7) 0.5223(7) 0.3564(5) 0.029(2) Uani 1 1 d . . . . .
C19 C 0.6027(7) 0.5575(6) 0.3557(5) 0.026(2) Uani 1 1 d . . . . .
C20 C 0.6005(8) 0.6520(7) 0.3522(7) 0.041(3) Uani 1 1 d . . . . .
C21 C 0.5662(7) 0.8683(7) 0.3873(6) 0.040(3) Uani 1 1 d . . . . .
H21A H 0.5885 0.9243 0.3825 0.048 Uiso 1 1 calc R U . . .
H21B H 0.5477 0.8602 0.3429 0.048 Uiso 1 1 calc R U . . .
C22 C 0.4757(8) 0.8868(8) 0.4506(7) 0.054(3) Uani 1 1 d . . . . .
H22A H 0.4226 0.9406 0.4417 0.082 Uiso 1 1 calc R U . . .
H22B H 0.4915 0.9008 0.4944 0.082 Uiso 1 1 calc R U . . .
H22C H 0.4543 0.8309 0.4571 0.082 Uiso 1 1 calc R U . . .
C23 C 0.7376(8) 0.8632(7) 0.4575(6) 0.034(2) Uani 1 1 d . . . . .
H23A H 0.6968 0.9230 0.4427 0.041 Uiso 1 1 calc R U . . .
H23B H 0.8078 0.8602 0.4397 0.041 Uiso 1 1 calc R U . . .
C24 C 0.7088(9) 0.8625(8) 0.5400(6) 0.047(3) Uani 1 1 d . . . . .
H24A H 0.7183 0.9168 0.5601 0.071 Uiso 1 1 calc R U . . .
H24B H 0.7504 0.8042 0.5549 0.071 Uiso 1 1 calc R U . . .
H24C H 0.6392 0.8661 0.5579 0.071 Uiso 1 1 calc R U . . .
C25 C 1.0885(8) 0.6131(9) 0.4487(6) 0.048(3) Uani 1 1 d . . . . .
H25A H 1.1489 0.5758 0.4622 0.058 Uiso 1 1 calc R U . . .
H25B H 1.0381 0.6444 0.4935 0.058 Uiso 1 1 calc R U . . .
C26 C 1.1128(8) 0.6896(8) 0.3989(7) 0.048(3) Uani 1 1 d . . . . .
H26A H 1.1328 0.7315 0.4249 0.071 Uiso 1 1 calc R U . . .
H26B H 1.0541 0.7261 0.3840 0.071 Uiso 1 1 calc R U . . .
H26C H 1.1668 0.6599 0.3561 0.071 Uiso 1 1 calc R U . . .
C27 C 1.2092(8) 0.4096(9) 0.3675(9) 0.066(4) Uani 1 1 d . . . . .
H27A H 1.2209 0.3410 0.3705 0.080 Uiso 1 1 calc R U . . .
H27B H 1.2366 0.4297 0.4034 0.080 Uiso 1 1 calc R U . . .
C28 C 1.2621(8) 0.4295(9) 0.2925(8) 0.064(4) Uani 1 1 d . . . . .
H28A H 1.3326 0.3929 0.2816 0.096 Uiso 1 1 calc R U . . .
H28B H 1.2544 0.4969 0.2904 0.096 Uiso 1 1 calc R U . . .
H28C H 1.2337 0.4116 0.2570 0.096 Uiso 1 1 calc R U . . .
C29 C 1.0607(9) 0.1169(8) 0.3711(6) 0.048(3) Uani 1 1 d . . . . .
H29A H 1.1218 0.1279 0.3415 0.057 Uiso 1 1 calc R U . . .
H29B H 1.0584 0.0573 0.3523 0.057 Uiso 1 1 calc R U . . .
C30 C 1.0648(10) 0.1068(9) 0.4488(8) 0.066(4) Uani 1 1 d . . . . .
H30A H 1.1267 0.0586 0.4507 0.099 Uiso 1 1 calc R U . . .
H30B H 1.0086 0.0882 0.4772 0.099 Uiso 1 1 calc R U . . .
H30C H 1.0615 0.1672 0.4689 0.099 Uiso 1 1 calc R U . . .
C31 C 0.8457(10) 0.1074(7) 0.3855(7) 0.050(3) Uani 1 1 d . . . . .
H31A H 0.9043 0.0498 0.3745 0.061 Uiso 1 1 calc R U . . .
H31B H 0.8051 0.1057 0.3528 0.061 Uiso 1 1 calc R U . . .
C32 C 0.7846(10) 0.1079(8) 0.4645(8) 0.061(4) Uani 1 1 d . . . . .
H32A H 0.7689 0.0490 0.4722 0.092 Uiso 1 1 calc R U . . .
H32B H 0.7231 0.1614 0.4742 0.092 Uiso 1 1 calc R U . . .
H32C H 0.8229 0.1137 0.4972 0.092 Uiso 1 1 calc R U . . .
C33 C 0.4984(8) 0.3586(8) 0.3699(6) 0.042(3) Uani 1 1 d . . . . .
H33A H 0.5443 0.2967 0.3473 0.051 Uiso 1 1 calc R U . . .
H33B H 0.4477 0.3813 0.3432 0.051 Uiso 1 1 calc R U . . .
C34 C 0.4477(9) 0.3459(9) 0.4481(6) 0.050(3) Uani 1 1 d . . . . .
H34A H 0.4075 0.3049 0.4492 0.075 Uiso 1 1 calc R U . . .
H34B H 0.4051 0.4075 0.4718 0.075 Uiso 1 1 calc R U . . .
H34C H 0.4979 0.3172 0.4736 0.075 Uiso 1 1 calc R U . . .
C35 C 0.4158(7) 0.5801(8) 0.3638(6) 0.040(3) Uani 1 1 d . . . . .
H35A H 0.4137 0.6262 0.3256 0.048 Uiso 1 1 calc R U . . .
H35B H 0.3801 0.5377 0.3556 0.048 Uiso 1 1 calc R U . . .
C36 C 0.3628(8) 0.6321(9) 0.4355(7) 0.056(3) Uani 1 1 d . . . . .
H36A H 0.2969 0.6732 0.4343 0.083 Uiso 1 1 calc R U . . .
H36B H 0.4005 0.6704 0.4461 0.083 Uiso 1 1 calc R U . . .
H36C H 0.3563 0.5869 0.4730 0.083 Uiso 1 1 calc R U . . .
C101 C 0.7720(9) 0.6679(7) 0.1333(7) 0.050(3) Uani 1 1 d . . . . .
C102 C 0.7958(10) 0.7527(8) 0.1034(9) 0.062(4) Uani 1 1 d . . . . .
C103 C 0.8924(10) 0.7244(8) 0.0665(7) 0.047(3) Uani 1 1 d . . . . .
C104 C 0.9310(8) 0.6271(7) 0.0765(6) 0.036(3) Uani 1 1 d . . . . .
C105 C 1.0310(8) 0.5744(7) 0.0553(5) 0.032(2) Uani 1 1 d . . . . .
H10A H 1.0744 0.6028 0.0243 0.038 Uiso 1 1 calc R U . . .
C106 C 1.0729(7) 0.4842(7) 0.0754(5) 0.033(2) Uani 1 1 d . . . . .
C107 C 1.1784(8) 0.4371(7) 0.0653(7) 0.043(3) Uani 1 1 d . . . . .
C108 C 1.1876(8) 0.3578(9) 0.1031(8) 0.062(4) Uani 1 1 d . . . . .
C109 C 1.0902(8) 0.3511(7) 0.1318(7) 0.044(3) Uani 1 1 d . . . . .
C110 C 1.0666(8) 0.2730(8) 0.1664(7) 0.053(3) Uani 1 1 d . . . . .
C111 C 0.9775(8) 0.2576(7) 0.1718(6) 0.035(3) Uani 1 1 d . . . . .
C112 C 0.9597(7) 0.1674(7) 0.1814(5) 0.030(2) Uani 1 1 d . . . . .
C113 C 0.8664(8) 0.1830(7) 0.1760(5) 0.034(2) Uani 1 1 d . . . . .
C114 C 0.8235(7) 0.2816(7) 0.1680(5) 0.031(2) Uani 1 1 d . . . . .
C115 C 0.7256(8) 0.3282(7) 0.1677(5) 0.035(2) Uani 1 1 d . . . . .
H11A H 0.6852 0.2901 0.1685 0.041 Uiso 1 1 calc R U . . .
C116 C 0.6827(7) 0.4229(8) 0.1665(5) 0.033(2) Uani 1 1 d . . . . .
C117 C 0.5793(7) 0.4709(8) 0.1698(6) 0.038(3) Uani 1 1 d . . . . .
C118 C 0.5645(7) 0.5642(8) 0.1731(5) 0.036(3) Uani 1 1 d . . . . .
C119 C 0.6590(8) 0.5770(8) 0.1680(6) 0.042(3) Uani 1 1 d . . . . .
C120 C 0.6780(9) 0.6614(9) 0.1652(10) 0.078(5) Uani 1 1 d . . . . .
C121 C 0.7211(10) 0.8507(8) 0.1148(10) 0.078(5) Uani 1 1 d . . . . .
H12A H 0.7416 0.8882 0.0738 0.093 Uiso 1 1 calc R U . . .
H12B H 0.6562 0.8461 0.1144 0.093 Uiso 1 1 calc R U . . .
C122 C 0.7087(11) 0.9022(9) 0.1838(9) 0.087(5) Uani 1 1 d . . . . .
H12C H 0.6533 0.9611 0.1904 0.130 Uiso 1 1 calc R U . . .
H12D H 0.7695 0.9164 0.1816 0.130 Uiso 1 1 calc R U . . .
H12E H 0.6954 0.8628 0.2245 0.130 Uiso 1 1 calc R U . . .
C123 C 0.9513(10) 0.7839(8) 0.0242(7) 0.053(3) Uani 1 1 d . . . . .
H12F H 1.0024 0.7449 -0.0174 0.064 Uiso 1 1 calc R U . . .
H12G H 0.9065 0.8364 0.0048 0.064 Uiso 1 1 calc R U . . .
C124 C 1.0009(9) 0.8242(9) 0.0671(7) 0.054(3) Uani 1 1 d . . . . .
H12H H 1.0333 0.8655 0.0372 0.082 Uiso 1 1 calc R U . . .
H12I H 1.0505 0.7728 0.0824 0.082 Uiso 1 1 calc R U . . .
H12J H 0.9514 0.8605 0.1097 0.082 Uiso 1 1 calc R U . . .
C125 C 1.2575(8) 0.4749(8) 0.0239(6) 0.046(3) Uani 1 1 d . . . . .
H12K H 1.2385 0.5058 -0.0186 0.055 Uiso 1 1 calc R U . . .
H12L H 1.3195 0.4217 0.0060 0.055 Uiso 1 1 calc R U . . .
C126 C 1.2770(9) 0.5453(9) 0.0677(7) 0.057(3) Uani 1 1 d . . . . .
H12M H 1.3269 0.5700 0.0367 0.086 Uiso 1 1 calc R U . . .
H12N H 1.3012 0.5140 0.1078 0.086 Uiso 1 1 calc R U . . .
H12O H 1.2156 0.5973 0.0870 0.086 Uiso 1 1 calc R U . . .
C127 C 1.2917(11) 0.2837(13) 0.1213(15) 0.144(12) Uani 1 1 d . . . . .
H12P H 1.3422 0.3141 0.1204 0.172 Uiso 1 1 calc R U . . .
H12Q H 1.2781 0.2506 0.1665 0.172 Uiso 1 1 calc R U . . .
C128 C 1.3120(16) 0.2291(19) 0.0602(13) 0.149(11) Uani 1 1 d . . . . .
H12R H 1.3789 0.1837 0.0507 0.224 Uiso 1 1 calc R U . . .
H12S H 1.3076 0.2693 0.0192 0.224 Uiso 1 1 calc R U . . .
H12T H 1.2640 0.1952 0.0668 0.224 Uiso 1 1 calc R U . . .
C129 C 1.0319(8) 0.0730(7) 0.1853(6) 0.039(3) Uani 1 1 d . . . . .
H12U H 1.0275 0.0411 0.2290 0.046 Uiso 1 1 calc R U . . .
C130 C 1.1115(10) 0.0307(9) 0.1179(7) 0.072(4) Uani 1 1 d . . . . .
H13A H 1.1530 -0.0315 0.1272 0.108 Uiso 1 1 calc R U . . .
H13B H 1.1523 0.0717 0.1024 0.108 Uiso 1 1 calc R U . . .
H13C H 1.0815 0.0239 0.0798 0.108 Uiso 1 1 calc R U . . .
C131 C 0.8122(9) 0.1121(8) 0.1769(6) 0.044(3) Uani 1 1 d . . . . .
H13D H 0.7429 0.1390 0.2067 0.053 Uiso 1 1 calc R U . . .
H13E H 0.8442 0.0542 0.1990 0.053 Uiso 1 1 calc R U . . .
C132 C 0.8132(11) 0.0870(9) 0.1001(7) 0.062(4) Uani 1 1 d . . . . .
H13F H 0.7795 0.0400 0.1020 0.092 Uiso 1 1 calc R U . . .
H13G H 0.8818 0.0611 0.0704 0.092 Uiso 1 1 calc R U . . .
H13H H 0.7790 0.1438 0.0789 0.092 Uiso 1 1 calc R U . . .
C133 C 0.5087(8) 0.4190(9) 0.1679(7) 0.051(3) Uani 1 1 d . . . . .
H13I H 0.4401 0.4622 0.1862 0.061 Uiso 1 1 calc R U . . .
H13J H 0.5179 0.3662 0.2005 0.061 Uiso 1 1 calc R U . . .
C134 C 0.5226(9) 0.3806(9) 0.0934(7) 0.057(3) Uani 1 1 d . . . . .
H13K H 0.4730 0.3498 0.0949 0.085 Uiso 1 1 calc R U . . .
H13L H 0.5890 0.3347 0.0760 0.085 Uiso 1 1 calc R U . . .
H13M H 0.5147 0.4324 0.0606 0.085 Uiso 1 1 calc R U . . .
C135 C 0.4721(8) 0.6432(9) 0.1721(6) 0.048(3) Uani 1 1 d . . . . .
H13N H 0.4650 0.6960 0.2047 0.058 Uiso 1 1 calc R U . . .
H13O H 0.4145 0.6211 0.1916 0.058 Uiso 1 1 calc R U . . .
C136 C 0.4697(10) 0.6798(10) 0.0980(7) 0.065(4) Uani 1 1 d . . . . .
H13P H 0.4090 0.7330 0.1022 0.098 Uiso 1 1 calc R U . . .
H13Q H 0.4714 0.6294 0.0662 0.098 Uiso 1 1 calc R U . . .
H13R H 0.5273 0.7007 0.0776 0.098 Uiso 1 1 calc R U . . .
C37 C 0.5382(14) 0.7131(12) 0.3036(10) 0.022(5) Uani 0.473(13) 1 d . . P . .
H37A H 0.4938 0.7720 0.3320 0.027 Uiso 0.473(13) 1 calc R U P . .
H37B H 0.4955 0.6786 0.2942 0.027 Uiso 0.473(13) 1 calc R U P . .
C137 C 0.5937(13) 0.7419(13) 0.2281(11) 0.024(5) Uani 0.473(13) 1 d . . P . .
H13S H 0.6268 0.7855 0.2386 0.028 Uiso 0.473(13) 1 calc R U P . .
H13T H 0.5421 0.7789 0.2054 0.028 Uiso 0.473(13) 1 calc R U P . .
C37A C 1.1370(13) 0.2689(12) 0.2852(10) 0.031(5) Uani 0.527(13) 1 d . U P . .
H37C H 1.1758 0.3111 0.2647 0.037 Uiso 0.527(13) 1 calc R U P . .
H37D H 1.1779 0.2209 0.3106 0.037 Uiso 0.527(13) 1 calc R U P . .
C37B C 1.1317(13) 0.2146(12) 0.2187(10) 0.027(5) Uani 0.527(13) 1 d . . P . .
H37E H 1.1055 0.1628 0.2375 0.033 Uiso 0.527(13) 1 calc R U P . .
H37F H 1.2002 0.1850 0.1883 0.033 Uiso 0.527(13) 1 calc R U P . .
C1S C 1.0392(19) 0.6654(10) 0.2241(8) 0.089(6) Uani 1 1 d . . . . .
H1SA H 1.0619 0.6009 0.2079 0.107 Uiso 1 1 calc R U . . .
C2S C 1.1070(12) 0.7182(15) 0.2214(8) 0.085(5) Uani 1 1 d . . . . .
H2SA H 1.1763 0.6886 0.2027 0.102 Uiso 1 1 calc R U . . .
C3S C 1.0707(19) 0.8096(14) 0.2457(9) 0.089(6) Uani 1 1 d . . . . .
H3SA H 1.1146 0.8443 0.2441 0.107 Uiso 1 1 calc R U . . .
C4S C 0.9718(19) 0.8518(11) 0.2722(8) 0.090(6) Uani 1 1 d . . . . .
H4SA H 0.9474 0.9154 0.2907 0.108 Uiso 1 1 calc R U . . .
C5S C 0.9079(14) 0.8058(12) 0.2728(7) 0.080(5) Uani 1 1 d . . . . .
H5SA H 0.8388 0.8380 0.2884 0.096 Uiso 1 1 calc R U . . .
C6S C 0.9413(16) 0.7142(13) 0.2513(8) 0.084(5) Uani 1 1 d . . . . .
H6SA H 0.8947 0.6819 0.2552 0.101 Uiso 1 1 calc R U . . .
C7S C 0.5180(14) 1.0097(14) 0.0624(11) 0.031(5) Uani 0.5 1 d . U P . .
H7SA H 0.5293 1.0179 0.1076 0.038 Uiso 0.5 1 calc R U P . .
C8S C 0.4506(15) 0.9683(14) 0.0603(11) 0.036(5) Uani 0.5 1 d . U P . .
H8SA H 0.4179 0.9451 0.1030 0.043 Uiso 0.5 1 calc R U P . .
C9S C 0.5707(17) 1.0404(18) 0.0026(13) 0.054(7) Uani 0.5 1 d . . P . .
H9SA H 0.6196 1.0682 0.0049 0.064 Uiso 0.5 1 d . U P . .
loop_
_atom_site_aniso_label
_atom_site_aniso_U_11
_atom_site_aniso_U_22
_atom_site_aniso_U_33
_atom_site_aniso_U_23
_atom_site_aniso_U_13
_atom_site_aniso_U_12
Mn1 0.0251(7) 0.0228(8) 0.0289(9) -0.0008(7) -0.0090(7) 0.0033(6)
Mn2 0.0258(7) 0.0261(9) 0.0285(9) 0.0010(7) -0.0096(7) -0.0001(7)
I1 0.0694(9) 0.0398(10) 0.087(2) -0.0133(10) -0.0214(10) -0.0068(7)
I2 0.0423(4) 0.0440(5) 0.0408(5) -0.0141(4) -0.0064(3) 0.0010(4)
I3 0.0472(5) 0.0508(6) 0.1316(11) -0.0200(6) 0.0081(6) -0.0045(5)
O1 0.039(4) 0.044(4) 0.016(4) -0.003(3) -0.006(3) -0.022(3)
N1 0.029(4) 0.018(4) 0.041(6) -0.009(4) -0.017(4) -0.002(4)
N2 0.026(4) 0.019(5) 0.032(5) 0.009(4) -0.006(4) 0.012(4)
N3 0.025(4) 0.020(5) 0.032(5) 0.003(4) -0.004(4) 0.006(4)
N4 0.037(5) 0.021(5) 0.020(5) 0.004(4) -0.009(4) 0.002(4)
N101 0.042(5) 0.027(5) 0.034(5) 0.000(4) -0.020(4) -0.003(4)
N102 0.027(4) 0.027(5) 0.020(5) 0.006(4) -0.002(4) -0.006(4)
N103 0.033(4) 0.032(5) 0.016(5) -0.005(4) -0.003(4) -0.010(4)
N104 0.030(4) 0.025(5) 0.032(5) -0.009(4) -0.017(4) 0.006(4)
C1 0.022(5) 0.034(6) 0.034(6) -0.010(5) -0.007(5) 0.008(5)
C2 0.023(5) 0.026(6) 0.031(6) -0.007(4) -0.008(4) 0.000(4)
C3 0.030(5) 0.024(6) 0.029(6) -0.005(4) 0.003(5) -0.006(5)
C4 0.022(5) 0.028(6) 0.011(5) 0.000(4) -0.003(4) -0.004(4)
C5 0.035(5) 0.039(6) 0.018(6) 0.002(5) -0.008(5) -0.009(5)
C6 0.029(5) 0.038(7) 0.021(6) 0.008(5) -0.014(5) 0.005(5)
C7 0.022(5) 0.056(8) 0.030(6) 0.029(6) -0.009(5) -0.003(5)
C8 0.017(5) 0.053(8) 0.086(10) 0.036(7) -0.014(6) -0.010(6)
C9 0.021(5) 0.045(8) 0.055(8) 0.019(6) 0.010(5) -0.003(5)
C10 0.025(6) 0.022(7) 0.149(16) 0.021(8) 0.004(7) 0.006(5)
C11 0.040(6) 0.027(6) 0.038(7) 0.010(5) 0.006(5) 0.008(5)
C12 0.040(6) 0.027(6) 0.029(6) 0.006(5) -0.001(5) -0.001(5)
C13 0.061(7) 0.019(6) 0.023(6) 0.004(4) -0.019(5) -0.002(5)
C14 0.047(6) 0.022(6) 0.015(5) -0.010(4) -0.010(5) -0.005(5)
C15 0.039(6) 0.039(7) 0.025(6) 0.000(5) -0.016(5) -0.008(5)
C16 0.045(6) 0.021(6) 0.022(6) 0.002(4) -0.008(5) -0.005(5)
C17 0.036(6) 0.039(7) 0.022(6) 0.001(5) -0.008(5) -0.014(5)
C18 0.027(5) 0.035(6) 0.025(6) -0.003(5) -0.014(4) -0.004(5)
C19 0.033(5) 0.026(6) 0.016(5) -0.003(4) -0.008(4) -0.004(5)
C20 0.039(6) 0.030(6) 0.056(8) 0.003(5) -0.026(6) -0.005(5)
C21 0.038(6) 0.033(6) 0.046(7) -0.009(5) -0.021(5) 0.002(5)
C22 0.030(6) 0.040(7) 0.076(10) 0.004(7) -0.010(6) 0.007(5)
C23 0.036(6) 0.031(6) 0.038(7) -0.002(5) -0.014(5) -0.010(5)
C24 0.054(7) 0.034(7) 0.042(8) -0.010(5) -0.006(6) -0.003(6)
C25 0.029(6) 0.084(9) 0.032(7) 0.019(6) -0.019(5) -0.012(6)
C26 0.044(7) 0.048(8) 0.052(8) 0.003(6) -0.022(6) -0.009(6)
C27 0.023(6) 0.051(8) 0.121(14) 0.026(8) -0.021(7) -0.008(6)
C28 0.027(6) 0.064(9) 0.083(11) -0.029(8) 0.003(7) -0.004(6)
C29 0.061(8) 0.037(7) 0.041(8) 0.005(6) -0.027(6) 0.001(6)
C30 0.074(9) 0.047(8) 0.093(12) 0.015(8) -0.058(9) -0.014(7)
C31 0.071(8) 0.022(6) 0.066(9) -0.001(6) -0.042(7) -0.004(6)
C32 0.066(8) 0.031(7) 0.096(12) 0.029(7) -0.036(9) -0.021(6)
C33 0.049(7) 0.038(7) 0.044(7) 0.002(5) -0.014(6) -0.019(5)
C34 0.052(7) 0.063(8) 0.049(8) 0.021(6) -0.016(6) -0.037(6)
C35 0.017(5) 0.064(8) 0.039(7) -0.001(6) -0.008(5) -0.011(5)
C36 0.039(6) 0.062(9) 0.057(9) -0.019(7) -0.014(6) -0.001(6)
C101 0.053(7) 0.019(6) 0.081(10) 0.001(6) -0.046(7) 0.008(6)
C102 0.069(9) 0.019(6) 0.116(13) 0.004(7) -0.068(9) -0.003(6)
C103 0.069(9) 0.030(7) 0.050(8) 0.002(6) -0.038(7) -0.007(6)
C104 0.056(7) 0.026(6) 0.027(6) -0.004(5) -0.024(5) -0.003(5)
C105 0.052(6) 0.030(6) 0.016(5) 0.004(4) -0.006(5) -0.019(5)
C106 0.040(6) 0.027(6) 0.024(6) -0.006(5) 0.000(5) -0.005(5)
C107 0.034(6) 0.029(6) 0.051(8) 0.000(5) 0.002(5) 0.000(5)
C108 0.023(6) 0.054(9) 0.094(11) 0.033(8) -0.002(6) -0.007(6)
C109 0.033(6) 0.027(6) 0.062(9) 0.016(6) -0.012(6) 0.002(5)
C110 0.025(6) 0.039(7) 0.081(10) 0.032(7) -0.008(6) -0.002(5)
C111 0.040(6) 0.027(6) 0.032(7) 0.012(5) -0.014(5) 0.001(5)
C112 0.041(6) 0.022(6) 0.023(6) 0.003(4) -0.007(5) -0.005(5)
C113 0.043(6) 0.043(7) 0.020(6) 0.006(5) -0.010(5) -0.020(5)
C114 0.038(6) 0.034(6) 0.019(6) 0.002(4) -0.004(5) -0.014(5)
C115 0.043(6) 0.033(7) 0.023(6) 0.003(5) -0.009(5) -0.007(5)
C116 0.037(6) 0.053(7) 0.014(5) -0.003(5) -0.009(5) -0.017(5)
C117 0.020(5) 0.056(8) 0.027(6) 0.000(5) -0.006(5) 0.001(5)
C118 0.020(5) 0.059(8) 0.024(6) -0.010(5) -0.010(4) 0.001(5)
C119 0.037(6) 0.038(7) 0.042(7) -0.017(5) -0.024(5) 0.010(5)
C120 0.036(7) 0.037(8) 0.164(17) -0.028(9) -0.054(9) 0.010(6)
C121 0.064(9) 0.023(7) 0.154(17) 0.021(9) -0.062(10) 0.002(6)
C122 0.084(11) 0.034(8) 0.089(13) 0.008(8) 0.026(9) 0.010(8)
C123 0.083(9) 0.030(7) 0.042(8) 0.009(6) -0.030(7) -0.003(6)
C124 0.053(7) 0.053(8) 0.052(9) 0.003(6) -0.005(6) -0.020(6)
C125 0.036(6) 0.040(7) 0.043(7) 0.004(6) 0.005(5) -0.003(5)
C126 0.050(7) 0.071(9) 0.048(8) 0.016(7) -0.009(6) -0.023(7)
C127 0.034(8) 0.085(14) 0.25(3) -0.075(16) 0.065(13) -0.010(8)
C128 0.115(17) 0.23(3) 0.14(2) 0.13(2) -0.067(17) -0.10(2)
C129 0.053(7) 0.025(6) 0.024(6) 0.012(5) -0.001(5) -0.004(5)
C130 0.080(10) 0.045(8) 0.053(9) 0.005(7) 0.004(8) 0.013(7)
C131 0.051(7) 0.047(7) 0.034(7) 0.000(5) -0.009(6) -0.018(6)
C132 0.089(10) 0.053(8) 0.054(9) 0.002(7) -0.022(8) -0.036(8)
C133 0.035(6) 0.069(9) 0.044(8) 0.002(6) -0.010(6) -0.014(6)
C134 0.053(7) 0.077(10) 0.056(9) 0.009(7) -0.018(7) -0.040(7)
C135 0.028(5) 0.066(9) 0.035(7) -0.003(6) -0.008(5) 0.006(6)
C136 0.059(8) 0.068(10) 0.052(9) -0.003(7) -0.016(7) 0.003(7)
C37 0.033(11) 0.014(10) 0.025(12) -0.006(8) -0.007(9) -0.016(9)
C137 0.024(10) 0.018(11) 0.032(13) 0.004(9) -0.017(9) -0.004(8)
C37A 0.032(9) 0.014(9) 0.036(11) 0.002(8) -0.002(8) 0.001(7)
C37B 0.028(9) 0.017(10) 0.028(11) 0.001(8) 0.001(8) -0.003(8)
C1S 0.20(2) 0.043(9) 0.024(8) 0.003(7) -0.030(12) -0.032(12)
C2S 0.082(11) 0.132(17) 0.028(9) 0.017(10) -0.014(8) -0.019(11)
C3S 0.16(2) 0.089(15) 0.049(11) 0.013(9) -0.035(12) -0.082(14)
C4S 0.18(2) 0.052(10) 0.033(9) 0.017(7) -0.023(12) -0.044(13)
C5S 0.120(14) 0.071(12) 0.028(8) 0.015(8) -0.003(8) -0.019(11)
C6S 0.155(18) 0.084(13) 0.026(8) 0.011(8) -0.006(10) -0.071(13)
C7S 0.031(6) 0.035(6) 0.022(6) 0.003(4) -0.016(5) 0.004(4)
C8S 0.038(6) 0.035(6) 0.027(6) 0.005(5) -0.009(5) -0.001(4)
C9S 0.043(13) 0.064(17) 0.040(15) -0.011(13) -0.026(12) 0.016(12)
loop_
_atom_type_symbol
_atom_type_description
_atom_type_scat_dispersion_real
_atom_type_scat_dispersion_imag
_atom_type_scat_source
C C 0.0033 0.0016 'International Tables Vol C Tables 4.2.6.8 and 6.1.1.4'
H H 0.0000 0.0000 'International Tables Vol C Tables 4.2.6.8 and 6.1.1.4'
N N 0.0061 0.0033 'International Tables Vol C Tables 4.2.6.8 and 6.1.1.4'
Mn Mn 0.3368 0.7283 'International Tables Vol C Tables 4.2.6.8 and 6.1.1.4'
I I -0.4742 1.8119 'International Tables Vol C Tables 4.2.6.8 and 6.1.1.4'
O O 0.0106 0.0060 'International Tables Vol C Tables 4.2.6.8 and 6.1.1.4'
loop_
_geom_angle_atom_site_label_1
_geom_angle_atom_site_label_2
_geom_angle_atom_site_label_3
_geom_angle
_geom_angle_site_symmetry_1
_geom_angle_site_symmetry_3
O1 Mn1 N4 102.5(3) . .
O1 Mn1 N2 96.0(3) . .
N4 Mn1 N2 161.5(3) . .
O1 Mn1 N1 99.3(3) . .
N4 Mn1 N1 87.4(3) . .
N2 Mn1 N1 89.5(3) . .
O1 Mn1 N3 101.3(3) . .
N4 Mn1 N3 89.5(3) . .
N2 Mn1 N3 87.0(3) . .
N1 Mn1 N3 159.3(4) . .
O1 Mn2 N101 96.7(3) . .
O1 Mn2 N103 102.4(3) . .
N101 Mn2 N103 160.8(3) . .
O1 Mn2 N102 95.1(3) . .
N101 Mn2 N102 90.2(3) . .
N103 Mn2 N102 86.8(3) . .
O1 Mn2 N104 104.3(3) . .
N101 Mn2 N104 86.7(3) . .
N103 Mn2 N104 89.8(3) . .
N102 Mn2 N104 160.6(3) . .
I1A I1 I2 80.1(3) . .
I1 I1A I2 85.0(3) . .
I3 I2 I1A 167.47(15) . .
I3 I2 I1 177.45(9) . .
I1A I2 I1 14.89(7) . .
Mn1 O1 Mn2 142.4(3) . .
C4 N1 C1 105.1(7) . .
C4 N1 Mn1 128.0(6) . .
C1 N1 Mn1 125.7(6) . .
C6 N2 C9 105.3(8) . .
C6 N2 Mn1 128.3(6) . .
C9 N2 Mn1 124.6(8) . .
C14 N3 C11 106.1(8) . .
C14 N3 Mn1 128.9(6) . .
C11 N3 Mn1 124.7(7) . .
C16 N4 C19 105.1(8) . .
C16 N4 Mn1 128.5(6) . .
C19 N4 Mn1 126.3(6) . .
C101 N101 C104 105.8(9) . .
C101 N101 Mn2 125.2(8) . .
C104 N101 Mn2 127.7(7) . .
C109 N102 C106 106.2(8) . .
C109 N102 Mn2 125.9(6) . .
C106 N102 Mn2 126.8(6) . .
C114 N103 C111 105.9(8) . .
C114 N103 Mn2 127.8(6) . .
C111 N103 Mn2 126.2(6) . .
C119 N104 C116 107.2(8) . .
C119 N104 Mn2 126.1(7) . .
C116 N104 Mn2 126.7(7) . .
C20 C1 N1 123.0(9) . .
C20 C1 C2 126.8(8) . .
N1 C1 C2 109.5(8) . .
C3 C2 C1 106.9(8) . .
C3 C2 C21 126.0(9) . .
C1 C2 C21 126.7(8) . .
C2 C3 C4 107.4(8) . .
C2 C3 C23 128.0(9) . .
C4 C3 C23 124.6(9) . .
N1 C4 C5 124.3(8) . .
N1 C4 C3 110.9(7) . .
C5 C4 C3 124.5(8) . .
C6 C5 C4 126.1(9) . .
C6 C5 H5A 117.0 . .
C4 C5 H5A 117.0 . .
C5 C6 N2 123.4(8) . .
C5 C6 C7 125.9(10) . .
N2 C6 C7 110.4(9) . .
C8 C7 C6 106.4(10) . .
C8 C7 C25 130.6(9) . .
C6 C7 C25 122.9(10) . .
C7 C8 C9 108.9(9) . .
C7 C8 C27 126.5(11) . .
C9 C8 C27 124.6(12) . .
C10 C9 N2 122.5(10) . .
C10 C9 C8 127.7(10) . .
N2 C9 C8 108.7(10) . .
C11 C10 C9 124.1(10) . .
C11 C10 C37A 108.9(12) . .
C9 C10 C37A 123.1(11) . .
C10 C11 N3 124.4(10) . .
C10 C11 C12 127.3(10) . .
N3 C11 C12 108.2(10) . .
C13 C12 C11 107.6(9) . .
C13 C12 C29 125.9(10) . .
C11 C12 C29 125.9(10) . .
C12 C13 C14 106.4(9) . .
C12 C13 C31 128.1(10) . .
C14 C13 C31 125.4(10) . .
N3 C14 C15 122.1(9) . .
N3 C14 C13 111.5(9) . .
C15 C14 C13 126.3(9) . .
C16 C15 C14 128.5(10) . .
C16 C15 H15A 115.8 . .
C14 C15 H15A 115.8 . .
C15 C16 N4 122.6(9) . .
C15 C16 C17 126.2(9) . .
N4 C16 C17 111.2(8) . .
C18 C17 C16 107.0(8) . .
C18 C17 C33 128.1(9) . .
C16 C17 C33 124.8(9) . .
C17 C18 C19 107.4(8) . .
C17 C18 C35 124.6(9) . .
C19 C18 C35 126.9(9) . .
N4 C19 C20 123.7(8) . .
N4 C19 C18 109.4(8) . .
C20 C19 C18 126.9(9) . .
C1 C20 C19 124.0(9) . .
C1 C20 C37 118.8(10) . .
C19 C20 C37 115.2(10) . .
C22 C21 C2 114.5(9) . .
C22 C21 H21A 108.6 . .
C2 C21 H21A 108.6 . .
C22 C21 H21B 108.6 . .
C2 C21 H21B 108.6 . .
H21A C21 H21B 107.6 . .
C21 C22 H22A 109.5 . .
C21 C22 H22B 109.5 . .
H22A C22 H22B 109.5 . .
C21 C22 H22C 109.5 . .
H22A C22 H22C 109.5 . .
H22B C22 H22C 109.5 . .
C3 C23 C24 111.9(9) . .
C3 C23 H23A 109.2 . .
C24 C23 H23A 109.2 . .
C3 C23 H23B 109.2 . .
C24 C23 H23B 109.2 . .
H23A C23 H23B 107.9 . .
C23 C24 H24A 109.5 . .
C23 C24 H24B 109.5 . .
H24A C24 H24B 109.5 . .
C23 C24 H24C 109.5 . .
H24A C24 H24C 109.5 . .
H24B C24 H24C 109.5 . .
C7 C25 C26 115.5(9) . .
C7 C25 H25A 108.4 . .
C26 C25 H25A 108.4 . .
C7 C25 H25B 108.4 . .
C26 C25 H25B 108.4 . .
H25A C25 H25B 107.5 . .
C25 C26 H26A 109.5 . .
C25 C26 H26B 109.5 . .
H26A C26 H26B 109.5 . .
C25 C26 H26C 109.5 . .
H26A C26 H26C 109.5 . .
H26B C26 H26C 109.5 . .
C8 C27 C28 111.3(11) . .
C8 C27 H27A 109.4 . .
C28 C27 H27A 109.4 . .
C8 C27 H27B 109.4 . .
C28 C27 H27B 109.4 . .
H27A C27 H27B 108.0 . .
C27 C28 H28A 109.5 . .
C27 C28 H28B 109.5 . .
H28A C28 H28B 109.5 . .
C27 C28 H28C 109.5 . .
H28A C28 H28C 109.5 . .
H28B C28 H28C 109.5 . .
C12 C29 C30 112.2(10) . .
C12 C29 H29A 109.2 . .
C30 C29 H29A 109.2 . .
C12 C29 H29B 109.2 . .
C30 C29 H29B 109.2 . .
H29A C29 H29B 107.9 . .
C29 C30 H30A 109.5 . .
C29 C30 H30B 109.5 . .
H30A C30 H30B 109.5 . .
C29 C30 H30C 109.5 . .
H30A C30 H30C 109.5 . .
H30B C30 H30C 109.5 . .
C13 C31 C32 112.1(9) . .
C13 C31 H31A 109.2 . .
C32 C31 H31A 109.2 . .
C13 C31 H31B 109.2 . .
C32 C31 H31B 109.2 . .
H31A C31 H31B 107.9 . .
C31 C32 H32A 109.5 . .
C31 C32 H32B 109.5 . .
H32A C32 H32B 109.5 . .
C31 C32 H32C 109.5 . .
H32A C32 H32C 109.5 . .
H32B C32 H32C 109.5 . .
C17 C33 C34 112.9(9) . .
C17 C33 H33A 109.0 . .
C34 C33 H33A 109.0 . .
C17 C33 H33B 109.0 . .
C34 C33 H33B 109.0 . .
H33A C33 H33B 107.8 . .
C33 C34 H34A 109.5 . .
C33 C34 H34B 109.5 . .
H34A C34 H34B 109.5 . .
C33 C34 H34C 109.5 . .
H34A C34 H34C 109.5 . .
H34B C34 H34C 109.5 . .
C36 C35 C18 114.3(9) . .
C36 C35 H35A 108.7 . .
C18 C35 H35A 108.7 . .
C36 C35 H35B 108.7 . .
C18 C35 H35B 108.7 . .
H35A C35 H35B 107.6 . .
C35 C36 H36A 109.5 . .
C35 C36 H36B 109.5 . .
H36A C36 H36B 109.5 . .
C35 C36 H36C 109.5 . .
H36A C36 H36C 109.5 . .
H36B C36 H36C 109.5 . .
N101 C101 C120 124.1(11) . .
N101 C101 C102 108.4(11) . .
C120 C101 C102 126.8(11) . .
C103 C102 C101 107.3(10) . .
C103 C102 C121 129.1(13) . .
C101 C102 C121 123.6(13) . .
C102 C103 C104 106.9(11) . .
C102 C103 C123 127.7(11) . .
C104 C103 C123 125.3(12) . .
N101 C104 C105 123.9(9) . .
N101 C104 C103 111.4(10) . .
C105 C104 C103 124.6(11) . .
C106 C105 C104 125.9(10) . .
C106 C105 H10A 117.0 . .
C104 C105 H10A 117.0 . .
N102 C106 C105 125.2(9) . .
N102 C106 C107 109.2(9) . .
C105 C106 C107 125.3(10) . .
C108 C107 C106 106.9(10) . .
C108 C107 C125 128.6(10) . .
C106 C107 C125 124.4(10) . .
C107 C108 C109 107.2(10) . .
C107 C108 C127 127.9(11) . .
C109 C108 C127 124.7(11) . .
N102 C109 C110 123.3(9) . .
N102 C109 C108 110.2(9) . .
C110 C109 C108 126.2(10) . .
C111 C110 C109 122.6(10) . .
C111 C110 C37B 116.8(10) . .
C109 C110 C37B 118.8(11) . .
C110 C111 N103 124.1(9) . .
C110 C111 C112 126.1(9) . .
N103 C111 C112 109.6(9) . .
C113 C112 C111 106.3(9) . .
C113 C112 C129 125.2(9) . .
C111 C112 C129 128.0(9) . .
C112 C113 C114 108.3(9) . .
C112 C113 C131 128.7(10) . .
C114 C113 C131 123.0(9) . .
N103 C114 C115 123.7(9) . .
N103 C114 C113 109.8(8) . .
C115 C114 C113 126.4(9) . .
C116 C115 C114 126.3(10) . .
C116 C115 H11A 116.9 . .
C114 C115 H11A 116.9 . .
C115 C116 N104 125.6(9) . .
C115 C116 C117 125.7(10) . .
N104 C116 C117 108.7(9) . .
C118 C117 C116 107.4(9) . .
C118 C117 C133 129.9(9) . .
C116 C117 C133 122.7(10) . .
C117 C118 C119 107.7(9) . .
C117 C118 C135 127.8(10) . .
C119 C118 C135 124.1(11) . .
C120 C119 N104 124.4(10) . .
C120 C119 C118 126.7(10) . .
N104 C119 C118 108.9(10) . .
C119 C120 C101 122.3(11) . .
C119 C120 C137 112.3(14) . .
C101 C120 C137 121.5(11) . .
C122 C121 C102 114.5(12) . .
C122 C121 H12A 108.6 . .
C102 C121 H12A 108.6 . .
C122 C121 H12B 108.6 . .
C102 C121 H12B 108.6 . .
H12A C121 H12B 107.6 . .
C121 C122 H12C 109.5 . .
C121 C122 H12D 109.5 . .
H12C C122 H12D 109.5 . .
C121 C122 H12E 109.5 . .
H12C C122 H12E 109.5 . .
H12D C122 H12E 109.5 . .
C124 C123 C103 114.3(10) . .
C124 C123 H12F 108.7 . .
C103 C123 H12F 108.7 . .
C124 C123 H12G 108.7 . .
C103 C123 H12G 108.7 . .
H12F C123 H12G 107.6 . .
C123 C124 H12H 109.5 . .
C123 C124 H12I 109.5 . .
H12H C124 H12I 109.5 . .
C123 C124 H12J 109.5 . .
H12H C124 H12J 109.5 . .
H12I C124 H12J 109.5 . .
C107 C125 C126 113.7(10) . .
C107 C125 H12K 108.8 . .
C126 C125 H12K 108.8 . .
C107 C125 H12L 108.8 . .
C126 C125 H12L 108.8 . .
H12K C125 H12L 107.7 . .
C125 C126 H12M 109.5 . .
C125 C126 H12N 109.5 . .
H12M C126 H12N 109.5 . .
C125 C126 H12O 109.5 . .
H12M C126 H12O 109.5 . .
H12N C126 H12O 109.5 . .
C128 C127 C108 91(2) . .
C128 C127 H12P 113.6 . .
C108 C127 H12P 113.6 . .
C128 C127 H12Q 113.6 . .
C108 C127 H12Q 113.6 . .
H12P C127 H12Q 110.8 . .
C127 C128 H12R 109.5 . .
C127 C128 H12S 109.5 . .
H12R C128 H12S 109.5 . .
C127 C128 H12T 109.5 . .
H12R C128 H12T 109.5 . .
H12S C128 H12T 109.5 . .
C112 C129 C130 117.4(9) . .
C112 C129 H12U 121.3 . .
C130 C129 H12U 121.3 . .
C129 C130 H13A 109.5 . .
C129 C130 H13B 109.5 . .
H13A C130 H13B 109.5 . .
C129 C130 H13C 109.5 . .
H13A C130 H13C 109.5 . .
H13B C130 H13C 109.5 . .
C113 C131 C132 111.0(9) . .
C113 C131 H13D 109.4 . .
C132 C131 H13D 109.4 . .
C113 C131 H13E 109.4 . .
C132 C131 H13E 109.4 . .
H13D C131 H13E 108.0 . .
C131 C132 H13F 109.5 . .
C131 C132 H13G 109.5 . .
H13F C132 H13G 109.5 . .
C131 C132 H13H 109.5 . .
H13F C132 H13H 109.5 . .
H13G C132 H13H 109.5 . .
C117 C133 C134 112.9(10) . .
C117 C133 H13I 109.0 . .
C134 C133 H13I 109.0 . .
C117 C133 H13J 109.0 . .
C134 C133 H13J 109.0 . .
H13I C133 H13J 107.8 . .
C133 C134 H13K 109.5 . .
C133 C134 H13L 109.5 . .
H13K C134 H13L 109.5 . .
C133 C134 H13M 109.5 . .
H13K C134 H13M 109.5 . .
H13L C134 H13M 109.5 . .
C118 C135 C136 114.4(10) . .
C118 C135 H13N 108.7 . .
C136 C135 H13N 108.7 . .
C118 C135 H13O 108.7 . .
C136 C135 H13O 108.7 . .
H13N C135 H13O 107.6 . .
C135 C136 H13P 109.5 . .
C135 C136 H13Q 109.5 . .
H13P C136 H13Q 109.5 . .
C135 C136 H13R 109.5 . .
H13P C136 H13R 109.5 . .
H13Q C136 H13R 109.5 . .
C20 C37 C137 119.0(14) . .
C20 C37 H37A 107.6 . .
C137 C37 H37A 107.6 . .
C20 C37 H37B 107.6 . .
C137 C37 H37B 107.6 . .
H37A C37 H37B 107.0 . .
C37 C137 C120 122.0(14) . .
C37 C137 H13S 106.8 . .
C120 C137 H13S 106.8 . .
C37 C137 H13T 106.8 . .
C120 C137 H13T 106.8 . .
H13S C137 H13T 106.7 . .
C37B C37A C10 125.2(14) . .
C37B C37A H37C 106.0 . .
C10 C37A H37C 106.0 . .
C37B C37A H37D 106.0 . .
C10 C37A H37D 106.0 . .
H37C C37A H37D 106.3 . .
C37A C37B C110 118.8(13) . .
C37A C37B H37E 107.6 . .
C110 C37B H37E 107.6 . .
C37A C37B H37F 107.6 . .
C110 C37B H37F 107.6 . .
H37E C37B H37F 107.1 . .
C6S C1S C2S 115.8(15) . .
C6S C1S H1SA 122.1 . .
C2S C1S H1SA 122.1 . .
C3S C2S C1S 119.6(17) . .
C3S C2S H2SA 120.2 . .
C1S C2S H2SA 120.2 . .
C2S C3S C4S 120.2(17) . .
C2S C3S H3SA 119.9 . .
C4S C3S H3SA 119.9 . .
C5S C4S C3S 121.3(17) . .
C5S C4S H4SA 119.4 . .
C3S C4S H4SA 119.4 . .
C4S C5S C6S 120.1(18) . .
C4S C5S H5SA 119.9 . .
C6S C5S H5SA 119.9 . .
C5S C6S C1S 122.9(17) . .
C5S C6S H6SA 118.6 . .
C1S C6S H6SA 118.6 . .
C8S C7S C9S 122.9(19) . .
C8S C7S H7SA 118.5 . .
C9S C7S H7SA 118.5 . .
C7S C8S C9S 120(2) . 2_675
C7S C8S H8SA 120.0 . .
C9S C8S H8SA 120.0 2_675 .
C8S C9S C7S 117(2) 2_675 .
C8S C9S H9SA 121.2 2_675 .
C7S C9S H9SA 121.8 . .
loop_
_geom_bond_atom_site_label_1
_geom_bond_atom_site_label_2
_geom_bond_distance
_geom_bond_site_symmetry_2
Mn1 O1 1.972(7) .
Mn1 N4 1.992(8) .
Mn1 N2 1.995(8) .
Mn1 N1 2.001(7) .
Mn1 N3 2.013(8) .
Mn2 O1 1.991(6) .
Mn2 N101 2.000(8) .
Mn2 N103 2.004(8) .
Mn2 N102 2.009(8) .
Mn2 N104 2.012(8) .
I1 I1A 0.759(4) .
I1 I2 2.944(2) .
I1A I2 2.911(3) .
I2 I3 2.9093(15) .
N1 C4 1.376(11) .
N1 C1 1.397(11) .
N2 C6 1.401(13) .
N2 C9 1.403(12) .
N3 C14 1.369(12) .
N3 C11 1.402(12) .
N4 C16 1.392(12) .
N4 C19 1.393(11) .
N101 C101 1.372(13) .
N101 C104 1.390(14) .
N102 C109 1.382(12) .
N102 C106 1.383(12) .
N103 C114 1.386(12) .
N103 C111 1.395(12) .
N104 C119 1.379(12) .
N104 C116 1.383(13) .
C1 C20 1.376(13) .
C1 C2 1.454(13) .
C2 C3 1.350(13) .
C2 C21 1.511(13) .
C3 C4 1.431(13) .
C3 C23 1.512(13) .
C4 C5 1.398(12) .
C5 C6 1.375(13) .
C5 H5A 0.9500 .
C6 C7 1.446(13) .
C7 C8 1.347(16) .
C7 C25 1.476(16) .
C8 C9 1.451(16) .
C8 C27 1.510(14) .
C9 C10 1.382(17) .
C10 C11 1.369(16) .
C10 C37A 1.63(2) .
C11 C12 1.456(15) .
C12 C13 1.372(15) .
C12 C29 1.505(14) .
C13 C14 1.425(13) .
C13 C31 1.491(15) .
C14 C15 1.398(13) .
C15 C16 1.381(13) .
C15 H15A 0.9500 .
C16 C17 1.416(13) .
C17 C18 1.365(13) .
C17 C33 1.510(14) .
C18 C19 1.446(13) .
C18 C35 1.511(12) .
C19 C20 1.407(14) .
C20 C37 1.56(2) .
C21 C22 1.504(16) .
C21 H21A 0.9900 .
C21 H21B 0.9900 .
C22 H22A 0.9800 .
C22 H22B 0.9800 .
C22 H22C 0.9800 .
C23 C24 1.531(15) .
C23 H23A 0.9900 .
C23 H23B 0.9900 .
C24 H24A 0.9800 .
C24 H24B 0.9800 .
C24 H24C 0.9800 .
C25 C26 1.536(16) .
C25 H25A 0.9900 .
C25 H25B 0.9900 .
C26 H26A 0.9800 .
C26 H26B 0.9800 .
C26 H26C 0.9800 .
C27 C28 1.514(19) .
C27 H27A 0.9900 .
C27 H27B 0.9900 .
C28 H28A 0.9800 .
C28 H28B 0.9800 .
C28 H28C 0.9800 .
C29 C30 1.516(16) .
C29 H29A 0.9900 .
C29 H29B 0.9900 .
C30 H30A 0.9800 .
C30 H30B 0.9800 .
C30 H30C 0.9800 .
C31 C32 1.544(18) .
C31 H31A 0.9900 .
C31 H31B 0.9900 .
C32 H32A 0.9800 .
C32 H32B 0.9800 .
C32 H32C 0.9800 .
C33 C34 1.525(16) .
C33 H33A 0.9900 .
C33 H33B 0.9900 .
C34 H34A 0.9800 .
C34 H34B 0.9800 .
C34 H34C 0.9800 .
C35 C36 1.493(15) .
C35 H35A 0.9900 .
C35 H35B 0.9900 .
C36 H36A 0.9800 .
C36 H36B 0.9800 .
C36 H36C 0.9800 .
C101 C120 1.396(19) .
C101 C102 1.481(17) .
C102 C103 1.349(19) .
C102 C121 1.511(16) .
C103 C104 1.414(14) .
C103 C123 1.511(17) .
C104 C105 1.391(15) .
C105 C106 1.385(14) .
C105 H10A 0.9500 .
C106 C107 1.458(14) .
C107 C108 1.360(16) .
C107 C125 1.489(15) .
C108 C109 1.436(15) .
C108 C127 1.71(2) .
C109 C110 1.420(15) .
C110 C111 1.389(15) .
C110 C37B 1.62(2) .
C111 C112 1.455(14) .
C112 C113 1.360(13) .
C112 C129 1.491(13) .
C113 C114 1.431(14) .
C113 C131 1.522(14) .
C114 C115 1.397(14) .
C115 C116 1.359(14) .
C115 H11A 0.9500 .
C116 C117 1.455(13) .
C117 C118 1.347(15) .
C117 C133 1.501(15) .
C118 C119 1.451(14) .
C118 C135 1.502(14) .
C119 C120 1.378(17) .
C120 C137 1.68(2) .
C121 C122 1.50(2) .
C121 H12A 0.9900 .
C121 H12B 0.9900 .
C122 H12C 0.9800 .
C122 H12D 0.9800 .
C122 H12E 0.9800 .
C123 C124 1.498(15) .
C123 H12F 0.9900 .
C123 H12G 0.9900 .
C124 H12H 0.9800 .
C124 H12I 0.9800 .
C124 H12J 0.9800 .
C125 C126 1.518(16) .
C125 H12K 0.9900 .
C125 H12L 0.9900 .
C126 H12M 0.9800 .
C126 H12N 0.9800 .
C126 H12O 0.9800 .
C127 C128 1.37(3) .
C127 H12P 0.9900 .
C127 H12Q 0.9900 .
C128 H12R 0.9800 .
C128 H12S 0.9800 .
C128 H12T 0.9800 .
C129 C130 1.494(16) .
C129 H12U 0.9500 .
C130 H13A 0.9800 .
C130 H13B 0.9800 .
C130 H13C 0.9800 .
C131 C132 1.535(16) .
C131 H13D 0.9900 .
C131 H13E 0.9900 .
C132 H13F 0.9800 .
C132 H13G 0.9800 .
C132 H13H 0.9800 .
C133 C134 1.503(16) .
C133 H13I 0.9900 .
C133 H13J 0.9900 .
C134 H13K 0.9800 .
C134 H13L 0.9800 .
C134 H13M 0.9800 .
C135 C136 1.517(16) .
C135 H13N 0.9900 .
C135 H13O 0.9900 .
C136 H13P 0.9800 .
C136 H13Q 0.9800 .
C136 H13R 0.9800 .
C37 C137 1.58(3) .
C37 H37A 0.9900 .
C37 H37B 0.9900 .
C137 H13S 0.9900 .
C137 H13T 0.9900 .
C37A C37B 1.58(2) .
C37A H37C 0.9900 .
C37A H37D 0.9900 .
C37B H37E 0.9900 .
C37B H37F 0.9900 .
C1S C6S 1.36(2) .
C1S C2S 1.46(2) .
C1S H1SA 0.9500 .
C2S C3S 1.35(2) .
C2S H2SA 0.9500 .
C3S C4S 1.35(3) .
C3S H3SA 0.9500 .
C4S C5S 1.34(2) .
C4S H4SA 0.9500 .
C5S C6S 1.34(2) .
C5S H5SA 0.9500 .
C6S H6SA 0.9500 .
C7S C8S 1.35(3) .
C7S C9S 1.36(3) .
C7S H7SA 0.9500 .
C8S C9S 1.36(3) 2_675
C8S H8SA 0.9500 .
C9S C8S 1.35(3) 2_675
C9S H9SA 0.9558 .
