#------------------------------------------------------------------------------
#$Date: 2019-11-23 03:02:36 +0200 (Sat, 23 Nov 2019) $
#$Revision: 231951 $
#$URL: file:///home/coder/svn-repositories/cod/cif/4/34/67/4346746.cif $
#------------------------------------------------------------------------------
#
# This file is available in the Crystallography Open Database (COD),
# http://www.crystallography.net/
#
# All data on this site have been placed in the public domain by the
# contributors.
#
data_4346746
loop_
_publ_author_name
'Dey, Soumyajit'
'Sil, Debangsu'
'Pandit, Younis Ahmad'
'Rath, Sankar Prasad'
_publ_section_title
;
 Effect of Two Interacting Rings in Metalloporphyrin Dimers upon Stepwise
 Oxidations.
;
_journal_issue                   7
_journal_name_full               'Inorganic chemistry'
_journal_page_first              3229
_journal_page_last               3238
_journal_paper_doi               10.1021/acs.inorgchem.5b02065
_journal_volume                  55
_journal_year                    2016
_chemical_formula_sum            'C96 H118 N12 O2 Zn2'
_chemical_formula_weight         1602.76
_space_group_crystal_system      triclinic
_space_group_IT_number           2
_space_group_name_Hall           '-P 1'
_space_group_name_H-M_alt        'P -1'
_atom_sites_solution_hydrogens   geom
_audit_creation_method           SHELXL-2014
_cell_angle_alpha                86.654(3)
_cell_angle_beta                 80.519(3)
_cell_angle_gamma                72.032(3)
_cell_formula_units_Z            1
_cell_length_a                   10.0336(15)
_cell_length_b                   14.763(2)
_cell_length_c                   14.922(2)
_cell_measurement_reflns_used    999
_cell_measurement_temperature    100(2)
_cell_measurement_theta_max      27.0
_cell_measurement_theta_min      2.5
_cell_volume                     2073.7(5)
_computing_cell_refinement       'Bruker SAINT'
_computing_data_collection       'Bruker APEX'
_computing_data_reduction        'Bruker SAINT'
_computing_molecular_graphics    'SHELXL 5.1, XP (Sheldrick, 1994)'
_computing_publication_material  SHELXS-97
_computing_structure_refinement  'SHELXL-2014 (Sheldrick, 2014)'
_computing_structure_solution    'SHELXS-97 (Sheldrick, 2008)'
_diffrn_ambient_temperature      100(2)
_diffrn_measured_fraction_theta_full 0.983
_diffrn_measured_fraction_theta_max 0.980
_diffrn_radiation_type           MoK\a
_diffrn_radiation_wavelength     0.71073
_diffrn_reflns_av_R_equivalents  0.0338
_diffrn_reflns_av_unetI/netI     0.0765
_diffrn_reflns_Laue_measured_fraction_full 0.983
_diffrn_reflns_Laue_measured_fraction_max 0.980
_diffrn_reflns_limit_h_max       11
_diffrn_reflns_limit_h_min       -12
_diffrn_reflns_limit_k_max       15
_diffrn_reflns_limit_k_min       -17
_diffrn_reflns_limit_l_max       18
_diffrn_reflns_limit_l_min       -16
_diffrn_reflns_number            11236
_diffrn_reflns_point_group_measured_fraction_full 0.983
_diffrn_reflns_point_group_measured_fraction_max 0.980
_diffrn_reflns_theta_full        25.000
_diffrn_reflns_theta_max         25.499
_diffrn_reflns_theta_min         1.996
_exptl_absorpt_coefficient_mu    0.636
_exptl_absorpt_correction_T_max  0.903
_exptl_absorpt_correction_T_min  0.855
_exptl_absorpt_correction_type   multi-scan
_exptl_absorpt_process_details   'SADABS 2.05 (Sheldrick, 2002)'
_exptl_crystal_colour            'dark red'
_exptl_crystal_density_diffrn    1.283
_exptl_crystal_description       block
_exptl_crystal_F_000             854
_exptl_crystal_size_max          0.260
_exptl_crystal_size_mid          0.200
_exptl_crystal_size_min          0.160
_refine_diff_density_max         1.454
_refine_diff_density_min         -0.685
_refine_diff_density_rms         0.096
_refine_ls_extinction_method     none
_refine_ls_goodness_of_fit_ref   1.033
_refine_ls_hydrogen_treatment    constr
_refine_ls_matrix_type           full
_refine_ls_number_parameters     532
_refine_ls_number_reflns         7571
_refine_ls_number_restraints     0
_refine_ls_restrained_S_all      1.033
_refine_ls_R_factor_all          0.0938
_refine_ls_R_factor_gt           0.0716
_refine_ls_shift/su_max          0.000
_refine_ls_shift/su_mean         0.000
_refine_ls_structure_factor_coef Fsqd
_refine_ls_weighting_details
'w=1/[\s^2^(Fo^2^)+(0.0875P)^2^+3.8066P] where P=(Fo^2^+2Fc^2^)/3'
_refine_ls_weighting_scheme      calc
_refine_ls_wR_factor_gt          0.1740
_refine_ls_wR_factor_ref         0.1895
_reflns_Friedel_coverage         0.000
_reflns_number_gt                5778
_reflns_number_total             7571
_reflns_threshold_expression     'I > 2\s(I)'
_cod_data_source_file            ic5b02065_si_004.cif
_cod_data_source_block           22febbm
_cod_original_cell_volume        2073.8(5)
_cod_database_code               4346746
_shelx_space_group_comment
;
The symmetry employed for this shelxl refinement is uniquely defined
by the following loop, which should always be used as a source of
symmetry information in preference to the above space-group names.
They are only intended as comments.
;
_shelx_estimated_absorpt_t_min   0.852
_shelx_estimated_absorpt_t_max   0.905
_shelxl_version_number           2014-3
_shelx_res_file
;
TITL 22febbm in P -1
CELL  0.71073  10.0336  14.7633  14.9222   86.654   80.519   72.032
ZERR     1.00   0.0015   0.0022   0.0023    0.003    0.003    0.003
LATT   1
SFAC  C    H    N    O    ZN
UNIT  96   118  12   2    2
MERG   2
FMAP   2
PLAN  10
omit -3 51.0
omit 3 -2 3
omit 2 -2 1
omit 2 2 1
omit 1 -3 2
omit -2 2 1
omit 6 4 1
omit 5 4 2
omit 4 3 1
omit 7 5 2
omit -3 -3 3
omit -4 -3 2
omit 3 2 0
omit 1 -2 5
omit 3 -3 2
omit 9 6 3
omit 4 10 7
omit -2 0 1
omit -3 0 2
omit 1 -3 6
bond $H
TEMP -173.0
size 0.26 0.20 0.16 ! red block
L.S.   30
acta 50
WGHT    0.087500    3.806600
FVAR       0.35071
ZN1   5    0.112722    0.250916    0.745365    11.00000    0.02459    0.02212 =
         0.02400   -0.00311   -0.00527   -0.00297
N1    3    0.092224    0.240429    0.884939    11.00000    0.02423    0.02152 =
         0.02400   -0.00356   -0.00647   -0.00576
N2    3    0.190439    0.103428    0.736624    11.00000    0.02936    0.02127 =
         0.02680   -0.00325   -0.00680   -0.00183
N3    3    0.068173    0.250495    0.613672    11.00000    0.03072    0.02301 =
         0.02706   -0.00499   -0.00535   -0.00481
N4    3   -0.029648    0.387147    0.762162    11.00000    0.02460    0.02175 =
         0.02517   -0.00401   -0.00327   -0.00443
C1    1    0.031708    0.311915    0.947954    11.00000    0.02107    0.02786 =
         0.02701   -0.00522   -0.00093   -0.00914
C2    1    0.040940    0.271576    1.039526    11.00000    0.02666    0.03044 =
         0.02538   -0.00001   -0.00442   -0.01443
C3    1    0.111813    0.177010    1.029747    11.00000    0.02439    0.03140 =
         0.03149   -0.00027   -0.00766   -0.01336
C4    1    0.144095    0.158485    0.933320    11.00000    0.02024    0.02784 =
         0.02600    0.00020   -0.00728   -0.00756
C5    1    0.218432    0.069785    0.895208    11.00000    0.02467    0.02543 =
         0.03121    0.00375   -0.00824   -0.00535
AFIX  43
H5A   2    0.257253    0.020886    0.936305    11.00000   -1.20000
AFIX   0
C6    1    0.242860    0.043943    0.804490    11.00000    0.02877    0.02364 =
         0.03209   -0.00031   -0.00676   -0.00703
C7    1    0.319443   -0.050745    0.768713    11.00000    0.02696    0.02599 =
         0.03537   -0.00304   -0.00621   -0.00735
C8    1    0.309570   -0.047421    0.679546    11.00000    0.02610    0.02729 =
         0.03859   -0.00358   -0.00342   -0.00599
C9    1    0.229690    0.049598    0.659559    11.00000    0.02483    0.02611 =
         0.03358   -0.00390   -0.00364   -0.00540
C10   1    0.197884    0.085293    0.574309    11.00000    0.02868    0.02921 =
         0.03130   -0.00843   -0.00387   -0.00424
AFIX  43
H10A  2    0.232833    0.041600    0.525413    11.00000   -1.20000
AFIX   0
C11   1    0.121317    0.176987    0.552881    11.00000    0.02700    0.03211 =
         0.02389   -0.00588   -0.00210   -0.00784
C12   1    0.079913    0.209665    0.465160    11.00000    0.02765    0.03737 =
         0.02372   -0.00030   -0.00579   -0.01150
C13   1   -0.000810    0.301358    0.474396    11.00000    0.02691    0.03385 =
         0.02741   -0.00262   -0.00445   -0.01073
C14   1   -0.005618    0.326703    0.567736    11.00000    0.02645    0.02965 =
         0.02707   -0.00183   -0.00490   -0.00795
C15   1   -0.079659    0.416021    0.606014    11.00000    0.02894    0.02434 =
         0.02851    0.00212   -0.01034   -0.00543
AFIX  43
H15A  2   -0.124933    0.464013    0.566201    11.00000   -1.20000
AFIX   0
C16   1   -0.094086    0.442067    0.695940    11.00000    0.02142    0.02277 =
         0.02826   -0.00098   -0.00232   -0.00793
C17   1   -0.181740    0.533312    0.732427    11.00000    0.02516    0.02218 =
         0.03430   -0.00027   -0.00375   -0.00647
C18   1   -0.172870    0.533145    0.821984    11.00000    0.02005    0.02174 =
         0.03396   -0.00420   -0.00313   -0.00540
C19   1   -0.073688    0.440161    0.840693    11.00000    0.02006    0.02133 =
         0.02751   -0.00466   -0.00136   -0.00345
C20   1   -0.032233    0.407562    0.925991    11.00000    0.02265    0.02814 =
         0.02547   -0.00865    0.00085   -0.00481
C21   1   -0.033430    0.318153    1.128595    11.00000    0.04376    0.03382 =
         0.02221   -0.00349   -0.00255   -0.01535
AFIX  23
H21A  2   -0.017052    0.380674    1.131134    11.00000   -1.20000
H21B  2    0.007431    0.278108    1.178856    11.00000   -1.20000
AFIX   0
C22   1   -0.193149    0.332594    1.141803    11.00000    0.04516    0.05245 =
         0.04659   -0.02036    0.01497   -0.02063
AFIX 137
H22A  2   -0.237886    0.364824    1.199603    11.00000   -1.50000
H22B  2   -0.209952    0.270580    1.142447    11.00000   -1.50000
H22C  2   -0.233878    0.371625    1.091816    11.00000   -1.50000
AFIX   0
C23   1    0.141547    0.101838    1.102514    11.00000    0.03819    0.03601 =
         0.02810    0.00181   -0.01247   -0.01366
AFIX  23
H23A  2    0.149103    0.131453    1.158549    11.00000   -1.20000
H23B  2    0.233760    0.053518    1.082617    11.00000   -1.20000
AFIX   0
C24   1    0.026398    0.052826    1.123693    11.00000    0.05847    0.04690 =
         0.03833    0.00966   -0.01208   -0.02350
AFIX 137
H24A  2    0.056213   -0.000996    1.165144    11.00000   -1.50000
H24B  2    0.010932    0.029674    1.067224    11.00000   -1.50000
H24C  2   -0.061925    0.098315    1.152319    11.00000   -1.50000
AFIX   0
C25   1    0.401310   -0.132702    0.822719    11.00000    0.03364    0.02530 =
         0.04348    0.00076   -0.00923   -0.00669
AFIX  23
H25A  2    0.422788   -0.192745    0.789243    11.00000   -1.20000
H25B  2    0.342457   -0.138143    0.881723    11.00000   -1.20000
AFIX   0
C26   1    0.539485   -0.118450    0.839458    11.00000    0.03722    0.03075 =
         0.05753    0.00297   -0.01464   -0.00341
AFIX 137
H26A  2    0.591842   -0.173470    0.872889    11.00000   -1.50000
H26B  2    0.518142   -0.060639    0.875134    11.00000   -1.50000
H26C  2    0.597202   -0.112087    0.781101    11.00000   -1.50000
AFIX   0
C27   1    0.371288   -0.127330    0.611871    11.00000    0.04079    0.02607 =
         0.04067   -0.00786   -0.00943   -0.00109
AFIX  23
H27A  2    0.364518   -0.187496    0.642328    11.00000   -1.20000
H27B  2    0.313489   -0.114910    0.562174    11.00000   -1.20000
AFIX   0
C28   1    0.523499   -0.139994    0.571387    11.00000    0.03927    0.04060 =
         0.06321   -0.00905    0.00420   -0.00386
AFIX 137
H28A  2    0.556769   -0.193359    0.528900    11.00000   -1.50000
H28B  2    0.581963   -0.153210    0.619957    11.00000   -1.50000
H28C  2    0.530872   -0.081658    0.538944    11.00000   -1.50000
AFIX   0
C29   1    0.116114    0.149123    0.381691    11.00000    0.04174    0.04023 =
         0.02820   -0.00787   -0.00635   -0.00640
AFIX  23
H29A  2    0.125314    0.189735    0.327270    11.00000   -1.20000
H29B  2    0.209180    0.100353    0.382949    11.00000   -1.20000
AFIX   0
C30   1    0.007777    0.100168    0.373424    11.00000    0.05622    0.07730 =
         0.05355   -0.03537   -0.00511   -0.02128
AFIX 137
H30A  2    0.041294    0.057663    0.320950    11.00000   -1.50000
H30B  2   -0.082131    0.147954    0.365181    11.00000   -1.50000
H30C  2   -0.006480    0.062962    0.428750    11.00000   -1.50000
AFIX   0
C31   1   -0.081453    0.364490    0.405869    11.00000    0.03739    0.04044 =
         0.02641   -0.00243   -0.00895   -0.00735
AFIX  23
H31A  2   -0.035932    0.341735    0.343859    11.00000   -1.20000
H31B  2   -0.078055    0.430254    0.411117    11.00000   -1.20000
AFIX   0
C32   1   -0.236551    0.364759    0.420595    11.00000    0.04427    0.06514 =
         0.06673    0.00612   -0.02702   -0.01564
AFIX 137
H32A  2   -0.283906    0.400891    0.371470    11.00000   -1.50000
H32B  2   -0.284834    0.394430    0.478988    11.00000   -1.50000
H32C  2   -0.239986    0.299127    0.420733    11.00000   -1.50000
AFIX   0
C33   1   -0.274284    0.611119    0.678818    11.00000    0.03067    0.02269 =
         0.03693    0.00012   -0.00559   -0.00214
AFIX  23
H33A  2   -0.292023    0.673118    0.708039    11.00000   -1.20000
H33B  2   -0.222383    0.613877    0.616765    11.00000   -1.20000
AFIX   0
C34   1   -0.415383    0.596654    0.672008    11.00000    0.03395    0.03419 =
         0.07291    0.01012   -0.02254   -0.00585
AFIX 137
H34A  2   -0.470077    0.649172    0.636968    11.00000   -1.50000
H34B  2   -0.468418    0.595160    0.733124    11.00000   -1.50000
H34C  2   -0.398896    0.536274    0.641526    11.00000   -1.50000
AFIX   0
C35   1   -0.268094    0.606207    0.888759    11.00000    0.03001    0.02384 =
         0.03997   -0.00683   -0.00939   -0.00126
AFIX  23
H35A  2   -0.303734    0.667238    0.856406    11.00000   -1.20000
H35B  2   -0.212778    0.616738    0.934138    11.00000   -1.20000
AFIX   0
C36   1   -0.393822    0.576043    0.937730    11.00000    0.02932    0.05883 =
         0.04967   -0.02160    0.00265   -0.00967
AFIX 137
H36A  2   -0.455335    0.626865    0.978653    11.00000   -1.50000
H36B  2   -0.359205    0.517796    0.973011    11.00000   -1.50000
H36C  2   -0.447668    0.564098    0.892975    11.00000   -1.50000
AFIX   0
C37   1   -0.050678    0.480943    0.996107    11.00000    0.02445    0.02980 =
         0.02900   -0.00825   -0.00166   -0.00400
AFIX  43
H37A  2   -0.137923    0.500878    1.036384    11.00000   -1.20000
AFIX   0
C39   1    0.356836    0.351824    0.699949    11.00000    0.09730    0.09028 =
         0.03845    0.00511   -0.00879   -0.07189
C40   1    0.357695    0.380774    0.796634    11.00000    0.04691    0.04207 =
         0.04875   -0.00353   -0.00787   -0.01750
AFIX  23
H40A  2    0.364188    0.446427    0.795108    11.00000   -1.20000
H40B  2    0.266755    0.381158    0.834573    11.00000   -1.20000
AFIX   0
C41   1    0.479021    0.315332    0.840762    11.00000    0.04229    0.04544 =
         0.03266   -0.01398    0.00158   -0.01701
C42   1    0.607038    0.334138    0.834998    11.00000    0.05038    0.05502 =
         0.03642   -0.01080    0.00155   -0.03140
AFIX  43
H42A  2    0.619584    0.389097    0.802809    11.00000   -1.20000
AFIX   0
C43   1    0.718163    0.273783    0.875648    11.00000    0.03536    0.07582 =
         0.05394   -0.01234   -0.00502   -0.02588
AFIX  43
H43A  2    0.804552    0.288494    0.872577    11.00000   -1.20000
AFIX   0
C44   1    0.701215    0.192401    0.920412    11.00000    0.04827    0.06827 =
         0.05771    0.00430   -0.02015   -0.01725
AFIX  43
H44A  2    0.776896    0.150094    0.947045    11.00000   -1.20000
AFIX   0
C45   1    0.575059    0.172924    0.926266    11.00000    0.06646    0.06456 =
         0.06392    0.01671   -0.02946   -0.03368
AFIX  43
H45A  2    0.563985    0.116724    0.956632    11.00000   -1.20000
AFIX   0
C46   1    0.463041    0.234676    0.888160    11.00000    0.04799    0.05452 =
         0.05214    0.00389   -0.01162   -0.02805
AFIX  43
H46A  2    0.375010    0.221540    0.894630    11.00000   -1.20000
AFIX   0
N5    3    0.322237    0.262229    0.700946    11.00000    0.03183    0.06316 =
         0.03433   -0.01459    0.00212   -0.01883
AFIX  23
H5B   2    0.380314    0.220586    0.735717    11.00000   -1.20000
H5C   2    0.349033    0.239606    0.643205    11.00000   -1.20000
AFIX   0
PART   1
O1    4    0.430297    0.361103    0.546020    10.50000    0.09344    0.12908 =
         0.04351    0.00739   -0.00124   -0.07277
AFIX  83
H1A   2    0.492225    0.372997    0.506055    10.50000   -1.50000
AFIX   0
C38   1    0.460638    0.372175    0.632107    10.50000    0.04131    0.04076 =
         0.04327    0.00235   -0.00685   -0.02290
AFIX  23
H38A  2    0.461497    0.438281    0.638956    10.50000   -1.20000
H38B  2    0.555610    0.328559    0.639129    10.50000   -1.20000
AFIX   0
PART   2
O1B   4    0.289747    0.377266    0.557447    10.50000    0.04542    0.11838 =
         0.05283    0.03350   -0.02063   -0.03550
AFIX  83
H1BA  2    0.242058    0.421871    0.527390    10.50000   -1.50000
AFIX   0
C38B  1    0.291007    0.410994    0.644453    10.50000    0.04955    0.04464 =
         0.06375    0.02101   -0.02357   -0.02503
AFIX  23
H38C  2    0.332828    0.464066    0.635312    10.50000   -1.20000
H38D  2    0.191345    0.437871    0.673770    10.50000   -1.20000
AFIX   0
PART   0
N1S   3    0.397358   -0.077711    0.340055    11.00000    0.05889    0.04021 =
         0.14758   -0.03978   -0.00375    0.01236
C1S   1    0.297575   -0.118158    0.342340    11.00000    0.06482    0.06137 =
         0.15325   -0.04822    0.00444    0.01613
C2S   1    0.198680   -0.163188    0.362899    11.00000    0.06599    0.06195 =
         0.26172   -0.05793    0.09397   -0.04691
AFIX 137
H2SA  2    0.193481   -0.196092    0.309009    11.00000   -1.50000
H2SB  2    0.106358   -0.116630    0.383037    11.00000   -1.50000
H2SC  2    0.224035   -0.209701    0.411652    11.00000   -1.50000

AFIX   0
HKLF    4

REM  22febbm in P -1
REM R1 =  0.0716 for    5778 Fo > 4sig(Fo)  and  0.0938 for all    7571 data
REM    532 parameters refined using      0 restraints

END

WGHT      0.0875      3.8067

REM Highest difference peak  1.454,  deepest hole -0.685,  1-sigma level  0.096
Q1    1   0.2652 -0.1989  0.4129  11.00000  0.05    1.45
Q2    1   0.3327 -0.0684  0.2739  11.00000  0.05    1.42
Q3    1   0.2125 -0.1554  0.3253  11.00000  0.05    0.98
Q4    1   0.1791 -0.1634  0.3426  11.00000  0.05    0.95
Q5    1   0.0937  0.2401  0.8165  11.00000  0.05    0.75
Q6    1   0.1313  0.2473  0.6745  11.00000  0.05    0.72
Q7    1   0.1977 -0.1375  0.4074  11.00000  0.05    0.65
Q8    1   0.1269  0.1813  0.7400  11.00000  0.05    0.53
Q9    1   0.1047  0.3166  0.7506  11.00000  0.05    0.49
Q10   1   0.0185  0.2503  0.7714  11.00000  0.05    0.46
;
_shelx_res_checksum              82920
_shelx_hkl_file
;
   1   0   0 2287.31   51.82   1
  -2   0   0  161.01    5.32   1
  -2   0   0  165.72    5.09   4
  -3   0   0   42.11    2.88   4
  -3   0   0   36.02    2.81   1
  -4   0   0   43.97    3.21   4
  -4   0   0   38.97    3.16   1
  -5   0   0   84.69    4.96   4
  -5   0   0   82.17    5.08   1
  -6   0   0   94.54    5.69   4
  -6   0   0   84.74    5.71   1
  -7   0   0   -0.34    1.87   1
  -7   0   0    3.74    2.22   4
  -8   0   0   23.47    4.34   1
  -9   0   0   51.39    6.05   1
 -10   0   0   77.16    7.81   1
 -11   0   0    1.88    3.20   1
 -12   0   0   13.15    4.82   1
 -12   1   0    4.43    3.71   1
 -11   1   0    3.91    3.28   1
 -10   1   0   18.47    4.51   1
  -9   1   0  113.15    8.43   1
  -8   1   0   59.54    6.12   1
  -7   1   0   50.15    5.28   1
  -6   1   0  244.49    9.80   4
  -6   1   0  219.85    9.89   1
  -5   1   0   14.02    2.61   4
  -5   1   0   11.97    2.56   1
  -4   1   0    4.83    1.74   1
  -4   1   0    7.84    1.95   4
  -3   1   0  359.71   10.88   1
  -3   1   0  347.42   10.43   4
  -2   1   0  264.60    7.79   4
  -2   1   0  266.12    8.06   1
  -1   1   0  212.29    5.98   4
   1  -1   0  226.68    7.21   2
  -1   1   0  218.86    6.24   1
   2   1   0 3182.11   72.10   1
  -4  -1   0   23.75    2.45   4
  -4  -1   0   25.67    2.56   1
  -5  -1   0   44.22    3.73   1
  -5  -1   0   42.63    3.66   4
  -6  -1   0  670.06   20.17   1
  -6  -1   0  699.13   19.66   4
  -7  -1   0   88.75    6.20   1
  -7  -1   0   85.73    5.86   4
  -8  -1   0  155.16    8.78   1
  -8  -1   0  151.87    8.38   4
  -9  -1   0   10.64    3.34   1
 -10  -1   0    6.53    3.38   1
 -11  -1   0   76.23    8.11   1
 -12  -1   0   30.45    6.34   1
 -12   2   0    5.99    3.97   1
 -11   2   0    4.08    3.70   1
 -10   2   0    2.96    3.37   1
  -9   2   0   31.11    5.62   1
  -8   2   0  242.64   12.00   1
  -7   2   0   16.69    3.79   1
  -6   2   0   62.38    5.25   1
  -5   2   0  782.91   22.34   1
  -5   2   0  751.57   21.28   4
  -4   2   0  204.22    8.00   4
  -4   2   0  213.71    8.52   1
  -3   2   0  236.29    8.01   4
  -3   2   0  219.44    8.16   1
   3  -2   0  233.20    9.80   2
  -2   2   0 1757.61   40.74   1
  -2   2   0 1739.41   39.23   4
   2  -2   0 1671.81   45.35   2
   1  -2   0  469.11   12.53   3
  -1   2   0  443.63   11.71   1
   1  -2   0  451.89   13.43   2
  -1   2   0  444.41   11.28   4
   0  -2   0  753.28   21.32   3
   0  -2   0  904.98   21.75   2
  -1  -2   0  229.37    6.93   2
   2   2   0 9999.57  222.18   1
   3   2   0   -0.47    0.34   1
  -5  -2   0  198.44    7.48   4
  -5  -2   0  203.44    7.81   1
  -6  -2   0    0.08    1.45   1
  -6  -2   0    0.23    1.39   4
  -7  -2   0   21.97    3.46   4
  -7  -2   0   28.38    3.86   1
  -8  -2   0    5.74    2.61   1
  -8  -2   0   14.06    3.22   4
  -9  -2   0  164.14    9.36   1
 -10  -2   0   65.94    6.89   1
 -11  -2   0    9.22    3.89   1
 -12  -2   0   20.66    5.12   1
 -11   3   0   16.26    4.73   1
 -10   3   0   21.35    5.28   1
  -9   3   0   16.67    4.39   1
  -8   3   0   97.66    7.72   1
  -7   3   0   54.19    5.80   1
  -6   3   0   76.10    5.84   1
  -5   3   0   81.28    5.56   1
  -4   3   0   81.22    5.15   1
  -4   3   0   84.26    5.02   4
  -3   3   0  364.88   11.21   4
  -3   3   0  371.15   11.68   1
   3  -3   0  337.68   13.40   2
  -2   3   0  573.82   15.80   1
   2  -3   0  592.33   18.46   2
   1  -3   0    1.91    1.43   3
   1  -3   0    3.80    1.44   2
  -1   3   0    3.88    1.25   1
   0  -3   0   16.71    1.96   2
   0  -3   0   14.30    1.79   3
  -1  -3   0   19.35    1.89   2
  -2  -3   0  956.68   25.36   2
   3   3   0 7716.33  173.65   1
  -3  -3   0 7868.71  190.94   2
   4   3   0 5513.94  124.57   1
  -5  -3   0   24.28    2.51   4
  -5  -3   0   30.48    2.83   1
  -6  -3   0   28.73    3.14   4
  -6  -3   0   26.32    3.05   1
  -7  -3   0   86.28    5.70   1
  -7  -3   0   73.41    5.18   4
  -8  -3   0   51.30    4.94   4
  -8  -3   0   54.57    5.26   1
  -9  -3   0    1.88    2.42   1
 -10  -3   0   18.59    4.24   1
 -11  -3   0    5.28    3.64   1
 -12  -3   0    5.08    3.71   1
 -11   4   0   -0.14    3.54   1
 -10   4   0    9.87    4.23   1
  -9   4   0   52.86    6.89   1
  -8   4   0    6.25    3.08   1
  -7   4   0   14.35    3.90   1
  -6   4   0   12.74    3.39   1
  -5   4   0   38.33    4.35   1
  -4   4   0  105.04    5.95   1
   4  -4   0   95.42    6.99   2
   3  -4   0  120.00    7.19   2
  -3   4   0  113.95    5.80   1
   2  -4   0  203.14    7.41   3
  -2   4   0  192.66    7.24   1
   2  -4   0  181.03    8.59   2
   1  -4   0  721.38   19.87   3
  -1   4   0  730.18   18.37   1
   1  -4   0  699.51   21.14   2
   0  -4   0  607.98   19.19   3
   0  -4   0  754.51   19.99   2
   0   4   0  734.08   17.13   1
  -1  -4   0 1156.91   30.97   2
  -1  -4   0 1188.95   31.32   3
   1   4   0 1179.31   26.99   1
  -2  -4   0   46.62    3.34   2
   3   4   0   10.93    1.36   1
  -3  -4   0    6.45    1.79   2
  -4  -4   0  291.68   10.37   2
   4   4   0  267.82    8.97   1
  -6  -4   0  189.87    7.40   4
  -6  -4   0  182.77    7.54   1
  -7  -4   0   44.14    4.13   4
  -7  -4   0   43.01    4.18   1
  -8  -4   0   28.81    3.83   4
  -8  -4   0   26.31    3.87   1
  -9  -4   0   22.97    4.00   1
 -10  -4   0    4.88    2.75   1
 -11  -4   0   -0.36    2.87   1
 -11   5   0   18.57    5.53   1
 -10   5   0    1.77    3.25   1
  -9   5   0    0.39    2.78   1
  -8   5   0    5.61    3.41   1
  -7   5   0   44.98    5.66   1
  -6   5   0   47.91    5.44   1
  -5   5   0   83.54    6.22   1
  -4   5   0   47.68    4.53   1
   4  -5   0   39.07    5.27   2
  -3   5   0  105.20    5.80   1
   3  -5   0   93.86    6.65   2
  -2   5   0  173.48    7.08   1
   2  -5   0  176.15    8.77   2
   2  -5   0  187.12    7.43   3
  -1   5   0  379.99   11.24   1
   1  -5   0  386.04   13.63   2
   1  -5   0  384.01   12.32   3
   0   5   0   14.99    1.63   1
   0  -5   0    6.12    1.79   3
   0  -5   0   15.08    2.46   2
  -1  -5   0  956.23   26.70   3
  -1  -5   0  952.83   26.52   2
   1   5   0  977.14   22.60   1
  -2  -5   0  735.26   21.04   2
   3   5   0   19.76    1.61   1
  -3  -5   0   32.18    3.06   2
  -4  -5   0    1.03    1.44   2
   4   5   0    2.43    1.08   1
   5   5   0  371.25   11.58   1
  -5  -5   0  381.77   13.67   2
  -6  -5   0  647.98   17.49   4
  -6  -5   0  662.43   18.18   1
  -6  -5   0  653.03   21.33   2
  -7  -5   0   80.57    5.09   4
  -7  -5   0   91.42    6.69   2
  -7  -5   0   88.59    5.39   1
  -8  -5   0   26.33    3.58   4
  -8  -5   0   25.83    3.77   1
  -9  -5   0    1.00    2.26   4
  -9  -5   0    5.08    2.73   1
 -13  -5   0   15.21    6.76   2
 -10   6   0   23.13    5.55   1
  -9   6   0   14.58    4.47   1
  -8   6   0    7.61    3.35   1
  -7   6   0   37.33    5.52   1
  -6   6   0   84.70    6.73   1
  -5   6   0  254.28   11.34   1
   5  -6   0  267.24   14.11   2
   4  -6   0  154.23    9.58   2
  -4   6   0  154.00    7.94   1
  -3   6   0    0.63    1.50   1
   3  -6   0    5.96    2.45   2
   2  -6   0   23.02    3.79   2
   2  -6   0   28.03    3.17   3
  -2   6   0   20.17    2.77   1
   1  -6   0   46.46    4.32   2
   1  -6   0   48.07    3.91   3
  -1   6   0   52.02    3.38   1
   0  -6   0  692.73   20.91   2
   0   6   0  666.74   17.25   1
  -1  -6   0  425.04   14.14   3
   1   6   0  425.71   11.10   1
  -1  -6   0  431.09   14.12   2
   2   6   0   62.90    2.54   1
  -2  -6   0   63.62    4.22   2
  -3  -6   0   13.27    2.31   2
   3   6   0   11.35    1.15   1
   4   6   0   12.58    1.55   1
  -4  -6   0   15.96    2.71   2
   5   6   0   61.29    3.66   1
  -5  -6   0   72.21    5.24   2
  -6  -6   0   92.45    4.57   4
  -6  -6   0   92.58    6.27   2
  -6  -6   0   89.04    4.71   1
  -7  -6   0  200.30   10.34   2
  -7  -6   0  200.91    8.19   1
  -7  -6   0  206.37    8.04   4
  -8  -6   0    1.17    2.10   1
  -8  -6   0    4.02    2.02   4
  -8  -6   0    4.76    3.13   2
  -9  -6   0   25.27    4.97   2
 -10  -6   0    7.64    3.94   2
 -11  -6   0    4.09    3.85   2
 -12  -6   0   -3.02    3.42   2
 -13  -6   0   31.27    8.43   2
 -10   7   0    2.47    2.35   1
  -9   7   0    0.86    3.08   1
  -8   7   0   38.14    6.06   1
  -7   7   0   45.78    6.18   1
  -6   7   0   79.24    7.12   1
   5  -7   0    1.67    2.30   2
  -5   7   0    0.03    2.29   1
   4  -7   0   88.43    7.54   2
  -4   7   0   87.43    6.25   1
   3  -7   0  117.15    8.37   2
  -3   7   0  136.49    7.20   1
   2  -7   0    0.39    1.79   2
  -2   7   0    1.12    1.54   1
   2  -7   0    0.14    1.77   3
   1  -7   0  200.78    8.82   3
   1  -7   0  228.97   10.45   2
   0  -7   0    2.51    1.96   2
   0   7   0    3.91    1.40   1
   0  -7   0    2.77    1.72   3
   1   7   0  467.12   12.17   1
  -1  -7   0  462.09   15.46   3
  -1  -7   0  442.09   15.43   2
  -2  -7   0  264.88   10.88   3
   2   7   0  270.59    7.51   1
  -2  -7   0  269.26   10.44   2
   3   7   0  160.78    4.94   1
  -3  -7   0  177.98    7.95   2
   4   7   0    4.97    1.03   1
  -4  -7   0    5.81    2.12   2
   5   7   0   24.59    2.28   1
  -5  -7   0   26.49    3.63   2
  -6  -7   0  132.05    5.52   1
  -6  -7   0  132.45    7.76   2
  -7  -7   0    0.69    2.13   2
  -8  -7   0   16.51    4.09   2
  -9  -7   0   70.70    7.35   2
 -10  -7   0   11.68    4.32   2
 -11  -7   0   16.87    5.37   2
 -12  -7   0   11.47    4.62   2
 -13  -7   0    5.17    4.74   2
  -9   8   0    0.11    2.78   1
  -8   8   0   16.86    4.43   1
  -7   8   0   19.54    4.40   1
  -6   8   0   41.22    5.58   1
  -5   8   0   64.52    6.23   1
   5  -8   0   65.48    8.11   2
  -4   8   0   49.61    5.20   1
   4  -8   0   34.64    5.86   2
   3  -8   0   11.91    3.85   2
  -3   8   0   15.47    3.24   1
   2  -8   0    0.59    2.06   2
  -2   8   0    2.53    1.93   1
   2  -8   0    0.56    2.31   3
   1  -8   0    5.61    2.47   2
   1  -8   0    8.61    2.64   3
   0   8   0  112.53    5.21   1
   0  -8   0  115.80    7.16   2
  -1  -8   0    8.18    2.55   2
  -1  -8   0    8.12    2.79   3
   1   8   0    7.42    1.45   1
  -2  -8   0   12.15    2.86   2
  -2  -8   0   13.11    3.28   3
   2   8   0   14.49    1.53   1
   3   8   0   49.32    2.28   1
  -3  -8   0   57.00    4.68   2
  -3  -8   0   55.15    5.03   3
  -4  -8   0  393.01   14.38   2
  -5  -8   0  340.94   13.39   2
  -6  -8   0    9.05    2.96   2
  -7  -8   0   85.37    6.75   2
  -8  -8   0    3.09    2.85   2
  -9  -8   0    5.94    3.31   2
 -10  -8   0   11.98    4.29   2
 -11  -8   0    8.27    4.09   2
 -12  -8   0    6.28    4.47   2
 -13  -8   0    7.66    4.88   2
  -9   9   0   -1.77    2.03   1
  -8   9   0   22.27    5.28   1
  -7   9   0   28.30    5.37   1
  -6   9   0   42.72    5.86   1
   5  -9   0    4.31    3.08   2
  -5   9   0    2.02    2.42   1
   4  -9   0    1.18    2.40   2
  -4   9   0    1.49    2.28   1
   3  -9   0   59.40    7.00   2
  -3   9   0   41.34    4.78   1
   2  -9   0  394.59   16.82   2
   2  -9   0  371.11   14.32   3
  -2   9   0  370.35   13.20   1
   1  -9   0   60.76    6.25   2
   1  -9   0   56.38    5.30   3
   0  -9   0   60.76    5.88   2
   0   9   0   63.41    4.14   1
  -1  -9   0  118.98    7.46   3
   1   9   0  129.06    5.26   1
  -1  -9   0  112.15    7.31   2
  -2  -9   0   12.38    3.07   2
   2   9   0   14.54    1.69   1
  -2  -9   0   16.37    3.53   3
  -3  -9   0  393.99   15.76   3
  -3  -9   0  427.04   15.38   2
  -4  -9   0  151.53    8.14   2
  -5  -9   0   42.11    4.71   2
  -6  -9   0  138.30    8.42   2
  -7  -9   0    6.65    3.05   2
  -8  -9   0   14.30    3.94   2
  -9  -9   0   14.25    4.16   2
 -10  -9   0    1.23    3.17   2
 -11  -9   0   16.25    5.14   2
 -12  -9   0    6.29    4.82   2
 -13  -9   0    8.45    4.96   2
  -8  10   0    2.49    3.16   1
  -7  10   0    7.95    3.53   1
  -6  10   0   13.10    4.00   1
   5 -10   0  196.26   13.39   2
  -5  10   0  167.70   10.04   1
  -4  10   0  115.73    7.83   1
   4 -10   0  116.89    9.78   2
   3 -10   0   72.44    8.01   2
  -3  10   0   66.79    5.76   1
   2 -10   0    8.14    3.26   3
  -2  10   0    9.05    2.75   1
   2 -10   0    0.16    2.23   2
  -1  10   0  183.96    8.23   1
   1 -10   0  176.08   10.59   2
   1 -10   0  193.85    9.86   3
   0  10   0  233.46    9.00   1
   0 -10   0  241.81   12.14   2
   1  10   0    2.83    1.43   1
  -1 -10   0    8.53    2.91   2
  -1 -10   0    8.41    3.25   3
  -2 -10   0   42.69    5.30   3
  -2 -10   0   47.49    5.13   2
  -3 -10   0  105.45    7.23   2
  -3 -10   0  101.88    7.58   3
  -4 -10   0  270.69   11.91   2
  -4 -10   0  256.47   12.50   3
  -5 -10   0   32.03    4.54   2
  -6 -10   0   70.20    6.02   2
  -7 -10   0   20.92    4.57   2
  -8 -10   0    7.57    3.59   2
  -9 -10   0  107.58    8.68   2
 -10 -10   0    1.37    3.47   2
 -11 -10   0    8.83    4.37   2
 -12 -10   0   11.16    4.71   2
  -8  11   0   -4.58    2.12   1
  -7  11   0   26.23    5.63   1
   6 -11   0   21.18    5.90   2
  -6  11   0   23.22    5.12   1
  -5  11   0    1.44    2.68   1
   5 -11   0    5.45    3.84   2
  -4  11   0   88.34    6.87   1
   4 -11   0   79.15    9.38   2
  -3  11   0  169.30    9.10   1
   3 -11   0  185.00   12.36   2
  -2  11   0  184.32    9.08   1
   2 -11   0  180.44   11.69   2
   1 -11   0    0.93    2.54   2
   1 -11   0   -1.51    2.73   3
  -1  11   0   -0.37    1.85   1
   0  11   0   19.48    3.07   1
   0 -11   0   21.17    4.52   2
  -1 -11   0   60.65    6.25   3
  -1 -11   0   45.59    5.76   2
  -2 -11   0   34.48    5.23   3
  -2 -11   0   28.76    4.71   2
  -3 -11   0   16.18    3.84   2
  -3 -11   0   13.80    3.97   3
  -4 -11   0    1.95    2.77   3
  -4 -11   0   -1.18    2.36   2
  -5 -11   0   20.81    4.78   3
  -5 -11   0   20.18    4.11   2
  -6 -11   0   51.64    6.09   2
  -7 -11   0   62.16    6.43   2
  -8 -11   0   28.36    5.29   2
  -9 -11   0   11.68    4.30   2
 -10 -11   0   45.24    6.97   2
 -11 -11   0   61.98    8.22   2
  -7  12   0   21.50    4.83   1
   6 -12   0    1.57    3.51   2
  -6  12   0    7.32    3.13   1
   5 -12   0   48.72    8.55   2
  -5  12   0   53.11    6.23   1
  -4  12   0   79.01    7.16   1
   4 -12   0   91.40   10.29   2
   3 -12   0   18.91    5.21   2
  -3  12   0   10.79    3.31   1
  -2  12   0   -0.21    1.20   1
   2 -12   0   14.32    4.54   2
   1 -12   0   70.91    7.97   2
  -1  12   0   65.59    5.45   1
   1 -12   0   71.14    6.93   3
   0 -12   0   55.99    6.96   2
  -1 -12   0  167.75   10.70   2
  -1 -12   0  192.18   10.75   3
  -2 -12   0   40.98    6.02   3
  -2 -12   0   37.12    5.56   2
  -3 -12   0  112.39    8.52   3
  -3 -12   0  112.43    8.16   2
  -4 -12   0  208.19   11.22   2
  -4 -12   0  184.63   11.36   3
  -5 -12   0    2.95    3.09   2
  -5 -12   0   -0.09    2.79   3
  -6 -12   0   75.15    6.99   2
  -6 -12   0   83.70    8.26   3
  -7 -12   0    4.92    3.39   2
  -8 -12   0   -0.19    2.77   2
  -9 -12   0   17.62    4.85   2
 -10 -12   0   -0.47    3.31   2
  -6  13   0   19.35    4.78   1
  -5  13   0    2.12    2.62   1
   5 -13   0    5.63    4.50   2
  -4  13   0   18.28    4.40   1
   4 -13   0   27.50    6.65   2
   3 -13   0   24.58    6.40   2
  -3  13   0   30.52    4.98   1
   2 -13   0   74.36    9.09   2
   1 -13   0  146.65   11.05   2
   0 -13   0    7.92    3.25   3
   0 -13   0    6.39    3.55   2
  -1 -13   0   81.76    7.66   2
  -1 -13   0   76.55    7.51   3
  -2 -13   0   61.69    6.95   2
  -2 -13   0   53.17    6.57   3
  -3 -13   0  136.28    9.66   2
  -3 -13   0  132.83    9.83   3
  -4 -13   0    6.04    3.42   3
  -4 -13   0    6.29    3.34   2
  -5 -13   0  103.97    8.94   3
  -5 -13   0  123.29    8.76   2
  -6 -13   0  204.14   11.55   2
  -6 -13   0  212.85   12.80   3
  -7 -13   0   74.85    7.63   2
  -7 -13   0   87.04    8.96   3
  -8 -13   0   29.22    6.30   3
  -8 -13   0   21.63    5.35   2
  -6  14   0    5.47    3.23   1
  -5  14   0    3.83    3.06   1
   5 -14   0    4.88    3.76   2
   4 -14   0   20.16    5.79   2
   3 -14   0    8.14    4.48   2
   2 -14   0    2.23    3.24   2
   1 -14   0   38.00    6.80   2
   0 -14   0  213.03   13.57   2
  -1 -14   0  140.00   10.04   3
  -1 -14   0  140.38   10.61   2
  -2 -14   0    1.26    3.02   2
  -2 -14   0    0.54    3.06   3
  -3 -14   0    6.86    3.63   2
  -3 -14   0    7.41    3.96   3
  -4 -14   0   12.57    4.19   2
  -4 -14   0    3.44    3.49   3
  -5 -14   0   67.56    7.33   2
  -5 -14   0   60.61    7.68   3
  -6 -14   0    1.50    3.09   3
  -6 -14   0    0.69    3.00   2
  -7 -14   0   59.71    7.93   3
  -7 -14   0   49.48    6.64   2
  -8 -14   0   33.96    6.62   3
  -9 -14   0   22.69    5.86   3
 -10 -14   0    3.44    3.89   3
 -11 -14   0   10.45    5.23   3
   5 -15   0    4.66    4.17   2
   4 -15   0    8.73    4.05   2
   3 -15   0    7.14    4.42   2
   2 -15   0   75.09   10.07   2
   1 -15   0   47.99    8.22   2
   0 -15   0    5.06    3.76   2
  -1 -15   0   11.13    3.96   3
  -1 -15   0   11.05    4.47   2
  -2 -15   0   55.89    7.35   3
  -2 -15   0   58.33    7.67   2
  -3 -15   0   70.62    7.89   2
  -3 -15   0   73.13    8.25   3
  -4 -15   0   14.88    5.01   3
  -4 -15   0    4.60    3.66   2
  -5 -15   0   26.01    5.51   2
  -5 -15   0   15.88    5.09   3
  -6 -15   0   16.59    5.14   3
  -7 -15   0   30.25    6.53   3
  -8 -15   0   32.63    6.85   3
  -9 -15   0    5.67    3.73   3
 -10 -15   0   13.52    4.92   3
 -11 -15   0    8.10    4.50   3
   4 -16   0    2.49    4.29   2
   3 -16   0    2.60    3.59   2
   2 -16   0   11.38    4.94   2
   1 -16   0   22.00    5.97   2
   0 -16   0   72.24    9.53   2
  -1 -16   0   12.34    4.80   2
  -2 -16   0   34.11    6.78   2
  -2 -16   0   23.44    5.81   3
  -3 -16   0   12.28    4.65   2
  -3 -16   0    6.54    4.26   3
  -4 -16   0   69.72    8.83   3
  -5 -16   0   71.37    9.32   3
  -6 -16   0   14.64    4.73   3
  -7 -16   0    5.97    4.24   3
  -8 -16   0   34.98    7.29   3
  -9 -16   0    1.28    3.27   3
 -10 -16   0   21.55    6.70   3
   2 -17   0    7.51    4.51   2
   1 -17   0    0.46    3.86   2
   0 -17   0    3.53    4.21   2
  -1 -17   0    6.19    4.10   2
  -3 -17   0   30.71    6.56   3
  -4 -17   0   10.39    4.78   3
  -5 -17   0    4.02    4.05   3
  -6 -17   0   14.21    5.40   3
  -7 -17   0    0.66    3.76   3
  -8 -17   0   -2.44    3.05   3
  -9 -17   0    0.28    2.47   3
  -3 -18   0   16.44    4.99   3
  -4 -18   0   17.49    5.47   3
  -5 -18   0    6.91    4.46   3
  -6 -18   0   12.20    5.46   3
  -7 -18   0   -4.87    3.60   3
  -8 -18   0    1.13    3.01   3
  -4 -19   0    9.98    4.86   3
  -5 -19   0   -2.43    3.76   3
  -6 -19   0    8.45    4.55   3
  -7 -19   0   11.28    5.94   3
  -6 -19   1   -0.56    3.55   3
  -5 -19   1   18.67    6.35   3
  -8 -18   1    2.38    3.00   3
  -7 -18   1   27.53    6.70   3
  -6 -18   1   18.81    6.21   3
  -5 -18   1    5.92    4.53   3
  -4 -18   1    4.44    3.95   3
  -2 -18   1   15.75    5.74   2
  -1 -18   1    0.86    4.08   2
   0 -18   1   18.18    6.01   2
   1 -18   1    5.61    4.56   2
  -9 -17   1   -1.24    2.65   3
  -8 -17   1   -0.21    3.21   3
  -7 -17   1   -1.72    3.26   3
  -6 -17   1   -0.88    3.54   3
  -5 -17   1   23.13    5.96   3
  -4 -17   1    8.72    4.26   2
  -4 -17   1    8.02    4.53   3
  -3 -17   1   -1.57    3.25   2
  -3 -17   1    2.31    3.81   3
  -2 -17   1    2.45    3.80   2
  -1 -17   1   10.47    4.79   2
   0 -17   1   18.08    5.73   2
   1 -17   1   14.73    5.55   2
   2 -17   1    1.70    3.77   2
 -10 -16   1    2.05    2.65   3
  -9 -16   1    1.84    2.81   3
  -8 -16   1    3.11    3.73   3
  -7 -16   1   -0.16    3.29   3
  -6 -16   1    6.10    3.98   3
  -6 -16   1    3.87    3.81   2
  -5 -16   1    7.39    4.04   2
  -5 -16   1   13.05    4.45   3
  -4 -16   1    0.58    3.38   3
  -4 -16   1    0.99    3.53   2
  -3 -16   1   51.41    7.44   3
  -3 -16   1   68.96    8.43   2
  -2 -16   1   41.36    6.73   3
  -2 -16   1   25.56    6.13   2
  -1 -16   1   28.96    6.52   2
   0 -16   1   -2.23    3.32   2
   1 -16   1   12.27    4.87   2
   2 -16   1    0.80    3.49   2
   3 -16   1   -0.24    3.43   2
   4 -16   1    0.86    4.09   2
 -10 -15   1    4.55    3.89   3
  -8 -15   1   21.27    5.43   3
  -7 -15   1    6.44    3.95   2
  -7 -15   1    5.59    3.78   3
  -6 -15   1   22.63    5.35   2
  -6 -15   1   15.13    4.87   3
  -5 -15   1    0.64    3.12   3
  -5 -15   1    1.03    3.37   2
  -4 -15   1   13.30    4.57   3
  -4 -15   1   16.63    4.75   2
  -3 -15   1   15.73    5.00   2
  -3 -15   1   15.42    4.74   3
  -2 -15   1    2.35    3.23   3
  -2 -15   1    2.79    3.19   2
  -1 -15   1   90.91    9.67   2
   0 -15   1   64.39    8.78   2
   1 -15   1   28.38    6.63   2
   2 -15   1    2.15    3.25   2
   3 -15   1    7.32    4.35   2
   4 -15   1    2.63    4.47   2
   5 -15   1   14.55    5.76   2
  -9 -14   1   -0.87    3.23   2
  -8 -14   1    8.05    4.04   2
  -7 -14   1    9.62    3.92   3
  -7 -14   1    7.13    4.06   2
  -6 -14   1   41.81    6.25   2
  -6 -14   1   26.07    5.86   3
  -5 -14   1    4.74    3.49   2
  -5 -14   1    2.52    3.04   3
  -4 -14   1   42.93    6.32   2
  -4 -14   1   50.11    6.82   3
  -3 -14   1   83.76    8.40   3
  -3 -14   1   74.17    8.12   2
  -2 -14   1    3.34    3.12   3
  -2 -14   1   10.03    3.91   2
  -1 -14   1   22.64    5.46   2
   0 -14   1   46.84    7.49   2
   1 -14   1    5.54    3.81   2
   2 -14   1   76.39    9.76   2
   3 -14   1   15.96    5.44   2
   4 -14   1   -0.43    2.94   2
   5 -14   1    7.03    4.54   2
  -6  14  -1    2.82    3.16   1
   6 -14   1   12.24    5.35   2
 -10 -13   1   -0.31    3.76   2
  -9 -13   1   18.05    5.09   2
  -8 -13   1    3.78    3.51   2
  -7 -13   1    4.28    3.28   2
  -6 -13   1   52.06    6.95   3
  -6 -13   1   39.83    6.00   2
  -5 -13   1   22.11    5.05   3
  -5 -13   1   16.95    4.49   2
  -4 -13   1   47.58    6.25   2
  -4 -13   1   49.28    6.71   3
  -3 -13   1    3.97    3.29   3
  -3 -13   1   10.73    3.91   2
  -2 -13   1   13.47    4.25   3
  -2 -13   1   16.35    4.54   2
  -1 -13   1    5.10    3.28   2
  -1 -13   1   -1.08    2.81   3
   0 -13   1   90.01    8.48   2
   0 -13   1   87.19    7.49   3
   1 -13   1   81.37    8.93   2
   2 -13   1   11.15    4.46   2
   3 -13   1   17.55    5.26   2
   4 -13   1   28.37    6.70   2
  -4  13  -1   32.90    5.05   1
  -5  13  -1   16.83    4.07   1
   5 -13   1   10.55    4.65   2
  -6  13  -1    1.80    2.91   1
   6 -13   1    8.57    4.76   2
 -11 -12   1   37.23    7.46   2
 -10 -12   1   12.96    4.78   2
  -9 -12   1   -0.36    2.99   2
  -8 -12   1   31.99    5.77   2
  -7 -12   1    8.41    3.70   2
  -6 -12   1   22.60    4.97   2
  -5 -12   1   17.22    4.46   3
  -5 -12   1   13.49    4.05   2
  -4 -12   1    3.02    3.24   2
  -4 -12   1    3.37    3.33   3
  -3 -12   1   91.55    7.64   3
  -3 -12   1   99.28    7.95   2
  -2 -12   1  182.08   10.90   2
  -2 -12   1  157.65   10.11   3
  -1 -12   1   26.01    5.16   2
  -1 -12   1   16.81    4.33   3
   0 -12   1    4.26    3.07   2
   0 -12   1    2.91    2.94   3
   1 -12   1    8.19    3.82   2
   2 -12   1  258.80   15.00   2
  -2  12  -1  264.75   11.01   1
  -3  12  -1   56.00    5.78   1
   3 -12   1   54.97    8.12   2
  -4  12  -1   10.17    3.48   1
   4 -12   1   11.54    4.59   2
   5 -12   1    4.78    3.74   2
  -5  12  -1    0.13    2.53   1
   6 -12   1   23.46    6.43   2
  -6  12  -1   19.10    4.63   1
  -7  12  -1    4.42    3.56   1
 -12 -11   1    0.62    4.09   2
 -11 -11   1    3.49    4.16   2
 -10 -11   1   16.78    5.22   2
  -9 -11   1   12.26    4.35   2
  -8 -11   1   33.26    5.67   2
  -7 -11   1    9.12    3.55   2
  -6 -11   1   44.73    6.02   2
  -5 -11   1   62.23    6.44   2
  -4 -11   1  125.12    8.49   2
  -4 -11   1  130.09    8.81   3
  -3 -11   1   31.63    5.06   3
  -3 -11   1   41.79    5.35   2
  -2 -11   1   -0.15    2.48   3
  -2 -11   1    1.62    2.92   2
  -1 -11   1   99.12    7.71   2
  -1 -11   1  137.85    8.64   3
   0 -11   1  238.98   12.95   2
   0 -11   1  246.14   11.62   3
  -1  11  -1   14.75    2.97   1
   1 -11   1   10.17    3.59   3
   1 -11   1   14.64    4.32   2
   2 -11   1   12.55    4.21   2
   3 -11   1   26.74    5.76   2
  -3  11  -1   32.17    4.54   1
  -4  11  -1  106.92    7.56   1
   4 -11   1  100.31   10.43   2
   5 -11   1   63.73    9.08   2
  -5  11  -1   60.71    6.70   1
  -6  11  -1   27.39    5.31   1
   6 -11   1   32.36    7.23   2
  -7  11  -1    5.75    4.01   1
  -8  11  -1   12.68    4.59   1
 -12 -10   1   15.77    5.37   2
 -11 -10   1    6.67    4.17   2
 -10 -10   1   24.90    5.99   2
  -9 -10   1   13.09    4.12   2
  -8 -10   1   14.51    4.50   2
  -7 -10   1   89.25    7.69   2
  -6 -10   1   12.00    3.58   2
  -5 -10   1    5.25    3.04   2
  -4 -10   1   29.30    4.52   2
  -3 -10   1   81.65    6.68   3
  -3 -10   1   85.68    6.60   2
  -2 -10   1   92.01    7.03   2
  -2 -10   1   88.50    6.73   3
   1  10  -1   46.79    3.23   1
  -1 -10   1   47.18    5.26   3
  -1 -10   1   42.53    5.32   2
   0 -10   1    7.83    3.06   3
   0  10  -1    7.62    2.16   1
   0 -10   1   10.43    3.47   2
  -1  10  -1  259.89    9.81   1
   1 -10   1  242.25   11.06   3
   1 -10   1  250.85   13.07   2
  -2  10  -1   20.80    3.34   1
   2 -10   1   48.31    6.50   2
   3 -10   1   25.65    5.58   2
  -3  10  -1    9.49    2.75   1
   4 -10   1   34.30    6.51   2
  -4  10  -1   47.94    5.22   1
   5 -10   1    3.21    3.30   2
  -5  10  -1    4.76    2.83   1
  -6  10  -1   42.77    5.89   1
   6 -10   1   34.97    7.50   2
  -7  10  -1   44.74    6.42   1
  -8  10  -1    4.70    3.39   1
 -12  -9   1   21.42    6.47   2
 -11  -9   1   -2.45    3.27   2
 -10  -9   1   -1.10    3.40   2
  -9  -9   1   74.48    7.90   2
  -8  -9   1  172.52   10.65   2
  -7  -9   1   46.91    5.86   2
  -6  -9   1   10.14    3.40   2
  -5  -9   1   58.91    5.41   2
  -4  -9   1  133.75    7.94   2
  -3  -9   1    4.55    2.53   2
  -2  -9   1   48.53    4.97   3
  -2  -9   1   45.83    4.87   2
  -1  -9   1  167.63    8.54   3
  -1  -9   1  152.97    8.76   2
   1   9  -1  152.35    5.72   1
   0  -9   1   73.12    6.29   2
   0  -9   1   66.09    5.26   3
   0   9  -1   90.21    4.44   1
  -1   9  -1  225.98    8.89   1
   1  -9   1  226.13   11.77   2
   1  -9   1  231.68   10.12   3
   2  -9   1    2.46    2.53   3
   2  -9   1    6.59    3.16   2
  -2   9  -1    2.99    2.13   1
  -3   9  -1    8.93    2.90   1
   3  -9   1    8.66    3.55   2
  -4   9  -1   18.55    3.85   1
   4  -9   1   10.31    3.94   2
  -5   9  -1   74.76    6.82   1
   5  -9   1   80.84    8.91   2
   6  -9   1   43.09    7.79   2
  -6   9  -1   39.55    5.70   1
  -7   9  -1    0.66    2.76   1
  -8   9  -1    6.96    3.51   1
  -9   9  -1   -2.41    1.97   1
 -12  -8   1    9.12    4.56   2
 -11  -8   1   -0.14    3.18   2
 -10  -8   1    0.52    3.33   2
  -9  -8   1   41.22    6.38   2
  -8  -8   1   85.56    7.54   2
  -7  -8   1  160.12    9.69   2
  -6  -8   1    4.02    2.57   2
  -5  -8   1   52.22    5.19   2
  -4  -8   1  129.45    7.52   2
  -3  -8   1  375.14   14.03   2
   2   8  -1  121.67    4.04   1
  -2  -8   1  133.35    7.32   3
  -2  -8   1  131.11    7.33   2
   1   8  -1  307.79    8.85   1
  -1  -8   1  297.28   12.31   2
  -1  -8   1  295.49   11.73   3
   0  -8   1   15.88    3.46   2
   0  -8   1   19.10    2.99   3
   0   8  -1   29.68    2.61   1
   1  -8   1   17.83    3.08   3
   1  -8   1   19.48    3.90   2
  -1   8  -1   21.86    2.66   1
  -2   8  -1  273.95   10.31   1
   2  -8   1  277.83   10.74   3
   2  -8   1  269.04   13.02   2
  -3   8  -1  436.61   14.78   1
   3  -8   1  410.41   17.99   2
   4  -8   1   17.01    4.53   2
  -4   8  -1    7.03    2.88   1
  -5   8  -1   27.00    4.41   1
   5  -8   1   24.44    5.43   2
  -6   8  -1    5.63    2.91   1
   6  -8   1   10.39    3.96   2
  -7   8  -1   38.23    5.92   1
  -8   8  -1   22.33    5.31   1
  -9   8  -1    0.94    2.87   1
 -13  -7   1   55.33   10.23   2
 -12  -7   1   11.27    5.39   2
 -11  -7   1    3.49    4.03   2
 -10  -7   1    4.96    3.72   2
  -9  -7   1    1.78    2.95   2
  -8  -7   1  121.56    8.90   2
  -7  -7   1   -0.13    2.20   2
  -6  -7   1   10.39    3.01   2
  -5  -7   1   27.18    3.83   2
  -4  -7   1  200.57    9.21   2
  -3  -7   1   33.23    3.90   2
  -2  -7   1   21.15    3.12   2
  -1  -7   1 1003.46   28.22   3
   1   7  -1  952.43   23.26   1
  -1  -7   1  975.65   28.61   2
   0   7  -1  545.45   14.14   1
   0  -7   1  540.22   17.76   2
   0  -7   1  475.76   16.31   3
   1  -7   1   89.68    6.38   2
   1  -7   1   86.39    5.22   3
   2  -7   1    4.92    2.10   3
   2  -7   1    5.33    2.33   2
  -2   7  -1    2.65    1.74   1
   3  -7   1    9.41    3.09   2
  -3   7  -1   11.88    2.80   1
  -4   7  -1  163.27    8.65   1
   4  -7   1  189.21   11.14   2
  -5   7  -1  101.85    7.13   1
   5  -7   1  103.09    8.68   2
  -6   7  -1    3.38    2.75   1
   6  -7   1    2.13    2.93   2
  -7   7  -1    2.19    2.83   1
  -8   7  -1   10.43    3.78   1
  -9   7  -1   28.64    5.56   1
 -10   7  -1   -0.96    2.07   1
 -13  -6   1    4.79    5.28   2
 -12  -6   1   32.19    7.51   2
 -11  -6   1   25.54    6.05   2
 -10  -6   1   69.43    8.34   2
  -9  -6   1   19.14    4.80   2
  -8  -6   1  202.40   11.39   2
  -7  -6   1   14.45    3.65   2
  -7  -6   1   20.59    2.78   1
  -6  -6   1  212.86    7.60   1
  -6  -6   1  203.19   10.24   2
  -5  -6   1  577.67   14.99   1
  -5  -6   1  572.59   14.41   4
  -5  -6   1  571.18   19.21   2
  -4  -6   1    6.44    0.91   4
  -4  -6   1    7.29    1.02   1
  -4  -6   1    3.60    2.25   2
  -3  -6   1  157.07    7.28   2
  -2  -6   1   63.01    4.49   2
  -1  -6   1  297.92   11.06   2
   1   6  -1  288.06    7.85   1
  -1  -6   1  295.84   10.66   3
   0  -6   1   12.58    2.64   2
   0  -6   1    5.84    1.62   3
   0   6  -1    7.39    1.42   1
   1  -6   1  144.06    7.64   2
   1  -6   1  128.37    5.99   3
   2  -6   1  403.26   12.99   3
  -2   6  -1  409.35   12.78   1
   2  -6   1  404.59   15.61   2
  -3   6  -1   12.71    2.71   1
   3  -6   1   14.33    3.52   2
   4  -6   1    4.70    2.56   2
  -4   6  -1    8.23    2.57   1
  -5   6  -1    3.09    2.54   1
   5  -6   1    2.73    2.43   2
  -6   6  -1   44.40    5.40   1
  -7   6  -1   20.91    4.55   1
  -8   6  -1    0.11    2.41   1
  -9   6  -1    1.05    2.74   1
 -10   6  -1   -2.02    2.53   1
 -13  -5   1   14.88    6.55   2
 -12  -5   1   18.21    6.01   2
 -11  -5   1    2.54    4.02   2
  -9  -5   1   59.36    5.41   1
  -8  -5   1   18.24    4.30   2
  -8  -5   1   17.29    3.11   1
  -7  -5   1   51.36    4.01   1
  -7  -5   1   50.09    5.61   2
  -6  -5   1  939.20   23.50   4
  -6  -5   1  923.24   28.89   2
  -6  -5   1  957.54   24.43   1
  -5  -5   1  919.29   22.52   1
  -5  -5   1  861.27   26.81   2
  -5  -5   1  895.16   21.59   4
  -4  -5   1  485.86   16.21   2
  -4  -5   1  481.52   12.13   4
  -4  -5   1  500.56   12.67   1
  -3  -5   1  157.29    7.16   2
  -2  -5   1  177.30    7.55   2
   1   5  -1  391.49    9.72   1
  -1  -5   1  400.84   13.08   2
   0  -5   1 1036.41   29.02   2
   0   5  -1 1028.97   24.71   1
   1  -5   1  626.48   19.84   2
   1  -5   1  626.20   17.76   3
   2  -5   1  169.03    8.67   2
  -2   5  -1  183.48    7.26   1
   2  -5   1  179.51    6.91   3
  -2   5  -1  185.19    6.98   4
   3  -5   1  320.16   13.62   2
  -3   5  -1  331.54   11.50   1
  -3   5  -1  322.99   10.98   4
  -4   5  -1   59.46    4.69   4
   4  -5   1   78.96    6.50   2
  -4   5  -1   58.26    4.78   1
  -5   5  -1  200.70    9.49   1
   5  -5   1  186.76   11.26   2
  -6   5  -1  142.48    8.44   1
  -7   5  -1   22.50    4.37   1
  -8   5  -1   27.76    5.23   1
  -9   5  -1   22.42    5.07   1
 -10   5  -1    7.05    3.98   1
 -11   5  -1    1.57    3.52   1
 -10  -4   1   86.74    6.89   1
  -9  -4   1    6.39    2.88   1
  -8  -4   1    5.32    2.29   1
  -7  -4   1   34.19    3.67   1
  -6  -4   1  352.47   11.58   1
  -6  -4   1  354.12   11.17   4
  -5  -4   1  524.74   13.73   4
  -5  -4   1  492.38   14.10   1
  -5  -4   1  487.25   16.91   2
  -4  -4   1  169.45    7.69   2
  -4  -4   1  157.78    5.50   4
  -4  -4   1  182.33    5.94   1
  -3  -4   1  181.50    5.17   4
  -3  -4   1  186.29    5.42   1
  -3  -4   1  194.73    7.82   2
  -2  -4   1    1.36    1.43   2
  -1  -4   1   27.27    2.74   2
   0  -4   1  363.16   12.01   2
   0   4  -1  370.46    9.65   1
   0   4  -1  359.14    9.25   4
  -1   4  -1 1140.14   27.75   1
   1  -4   1 1122.06   31.74   2
  -1   4  -1 1163.78   26.83   4
   1  -4   1 1154.05   29.80   3
   2  -4   1  476.89   16.52   2
  -2   4  -1  475.88   13.62   4
  -2   4  -1  505.63   14.27   1
   2  -4   1  511.56   14.22   3
  -3   4  -1 1115.07   27.98   4
  -3   4  -1 1136.78   29.08   1
   3  -4   1 1090.05   33.20   2
   4  -4   1  423.48   16.74   2
  -4   4  -1  415.19   14.21   1
  -4   4  -1  444.92   13.93   4
   5  -4   1    0.36    1.96   2
  -5   4  -1    5.44    2.33   4
  -5   4  -1    2.78    2.12   1
  -6   4  -1  163.75    8.88   1
  -6   4  -1  159.89    8.48   4
  -7   4  -1   44.11    5.55   1
  -8   4  -1   40.02    5.72   1
  -9   4  -1   15.05    4.60   1
 -10   4  -1   75.04    8.48   1
 -11   4  -1   38.47    7.26   1
 -11  -3   1    3.92    3.26   1
 -10  -3   1   47.63    5.72   1
  -9  -3   1   56.97    5.73   1
  -8  -3   1  165.28    8.37   1
  -7  -3   1   19.95    3.19   1
  -6  -3   1    3.31    1.78   1
  -6  -3   1    3.53    1.64   4
  -5  -3   1  217.87    7.67   4
  -5  -3   1  228.69    8.12   1
  -4  -3   1  238.84    7.96   1
  -4  -3   1  267.02    7.83   4
  -3  -3   1   14.70    1.52   1
  -3  -3   1   14.76    1.45   4
  -3  -3   1   17.10    2.42   2
  -2  -3   1    6.49    1.65   2
  -1  -3   1 1016.55   27.06   2
   0   3  -1  838.51   19.04   4
   0   3  -1  848.05   19.74   1
   0  -3   1  831.33   22.92   2
  -1   3  -1 1530.67   34.69   4
   1  -3   1 1528.59   40.63   2
  -1   3  -1 1543.60   36.03   1
   1  -3   1 1562.07   38.95   3
   2  -3   1  133.16    6.56   2
  -2   3  -1  122.08    5.04   4
  -2   3  -1  125.37    5.24   1
   3  -3   1  135.15    7.30   2
  -3   3  -1  130.98    5.93   1
  -3   3  -1  126.52    5.70   4
  -4   3  -1  109.31    5.88   4
  -4   3  -1  118.99    6.26   1
   4  -3   1  125.30    7.74   2
  -5   3  -1  442.95   15.16   1
  -5   3  -1  442.16   14.65   4
  -6   3  -1   24.76    3.89   4
  -6   3  -1   27.63    4.19   1
  -7   3  -1   13.24    3.36   4
  -7   3  -1    9.14    3.27   1
  -8   3  -1    1.84    2.58   1
  -9   3  -1    1.74    2.97   1
 -10   3  -1    6.00    3.53   1
 -11   3  -1    6.38    3.93   1
 -12  -2   1   27.04    5.76   1
 -11  -2   1   15.83    4.44   1
 -10  -2   1    3.37    2.78   1
  -9  -2   1   -0.56    2.21   1
  -8  -2   1   19.60    3.72   1
  -7  -2   1  116.99    6.67   1
  -6  -2   1   14.00    2.65   1
  -5  -2   1   39.31    3.26   4
  -5  -2   1   45.39    3.54   1
  -4  -2   1    2.71    1.24   4
  -4  -2   1    1.74    1.26   1
  -3  -2   1 4427.45   94.75   4
  -3  -2   1 4317.61   98.17   1
  -2  -2   1 6037.79  131.74   1
  -2  -2   1 5788.05  145.03   2
  -1  -2   1  390.47   11.33   2
   0  -2   1   73.21    3.35   2
   1  -2   1   26.67    2.42   2
   1  -2   1   22.28    1.97   1
   2  -2   1   62.79    3.63   1
   2  -2   1   62.50    4.17   2
  -3   2  -1  337.38   10.60   1
   3  -2   1  318.37   12.25   2
  -3   2  -1  340.17   10.09   4
  -4   2  -1  219.97    8.51   1
  -4   2  -1  208.56    8.09   4
  -5   2  -1   14.91    2.90   1
  -5   2  -1   14.24    2.85   4
  -6   2  -1  129.40    7.23   4
  -6   2  -1  119.35    7.27   1
  -7   2  -1   53.04    5.64   1
  -7   2  -1   53.26    5.44   4
  -8   2  -1  140.24    8.60   4
  -8   2  -1  132.15    8.79   1
  -9   2  -1    9.52    3.58   1
 -10   2  -1    6.84    3.80   1
 -11   2  -1   19.29    5.20   1
 -12   2  -1   16.17    5.36   1
 -12  -1   1   14.90    4.72   1
 -11  -1   1    0.13    2.99   1
 -10  -1   1   16.07    4.12   1
  -9  -1   1   19.55    4.23   1
  -8  -1   1   19.94    3.98   1
  -7  -1   1   38.42    4.38   1
  -6  -1   1   21.98    3.22   1
  -5  -1   1   95.04    5.25   1
  -4  -1   1  338.93   10.21   4
  -4  -1   1  330.75   10.48   1
  -3  -1   1   55.69    3.22   1
  -2  -1   1  368.34    9.69   1
  -1  -1   1 1114.05   28.44   2
   0  -1   1 2522.52   62.47   2
   1  -1   1   51.14    2.53   1
   1  -1   1   57.50    2.88   2
   2  -1   1  242.76    7.89   1
   2  -1   1  222.83    8.36   2
   3  -1   1    8.17    1.85   1
   3  -1   1    6.99    1.97   2
  -4   1  -1  242.26    8.46   4
  -4   1  -1  251.26    8.98   1
  -5   1  -1  140.51    6.91   1
  -5   1  -1  139.37    6.70   4
  -6   1  -1   55.15    4.94   4
  -6   1  -1   63.25    5.15   1
  -7   1  -1    8.50    2.86   4
  -7   1  -1    8.54    2.96   1
  -8   1  -1   16.32    4.03   1
  -8   1  -1   12.90    3.48   4
  -9   1  -1   12.34    3.89   1
 -10   1  -1   22.77    5.16   1
 -11   1  -1    2.74    3.72   1
 -12   1  -1   24.90    6.20   1
 -12   0   1   14.18    4.88   1
 -11   0   1   56.65    7.37   1
 -10   0   1  129.70    9.42   1
  -9   0   1   28.76    4.96   1
  -8   0   1  163.35    9.17   1
  -7   0   1  123.16    7.31   1
  -6   0   1   49.74    4.49   1
  -5   0   1  208.66    8.48   1
  -4   0   1   48.12    3.55   1
  -3   0   1   19.35    2.17   1
  -2   0   1   20.28    1.90   1
  -1   0   1  361.63    9.07   1
   1   0   1  500.56   12.45   1
   2   0   1  248.50    7.79   1
   3   0   1    1.55    1.25   1
   4   0   1   65.79    4.44   1
  -5   0  -1   38.49    3.68   1
  -5   0  -1   37.28    3.38   4
  -6   0  -1   29.23    3.61   4
  -6   0  -1   30.81    3.78   1
  -7   0  -1   45.77    4.87   4
  -7   0  -1   40.78    4.83   1
  -8   0  -1  246.40   11.21   4
  -8   0  -1  236.24   11.53   1
  -9   0  -1   19.33    4.44   1
  -9   0  -1   14.94    3.92   4
 -10   0  -1    6.37    3.43   1
 -11   0  -1   -1.35    3.13   1
 -12   0  -1   12.08    4.77   1
 -12   1   1    3.61    3.71   1
 -11   1   1   -1.10    2.69   1
 -10   1   1   30.12    5.60   1
  -9   1   1  310.62   14.20   1
  -8   1   1   14.12    3.72   1
  -7   1   1    3.29    2.54   1
  -6   1   1   81.75    5.74   1
  -5   1   1  538.25   16.55   1
  -4   1   1  209.81    8.09   1
  -3   1   1   17.04    2.16   1
  -2   1   1   17.10    1.90   1
  -1   1   1  118.77    3.98   1
   0  -1  -1 1324.24   33.23   3
   0   1   1 1301.24   29.97   1
  -1  -1  -1 1062.96   27.40   3
   1   1   1 1093.88   24.99   1
   2   1   1   19.43    1.80   1
   3   1   1  282.62    9.19   1
   4   1   1  345.10   11.68   1
   5   1   1  345.44   12.40   1
  -6  -1  -1   20.34    3.13   1
  -6  -1  -1   19.49    3.00   4
  -7  -1  -1    6.76    2.47   1
  -7  -1  -1    6.86    2.54   4
  -8  -1  -1   63.69    5.95   4
  -8  -1  -1   73.42    6.23   1
  -9  -1  -1   11.32    3.42   4
  -9  -1  -1   10.60    3.57   1
 -10  -1  -1   10.17    3.75   1
 -11  -1  -1    2.60    3.36   1
 -12  -1  -1   -3.23    3.09   1
 -12   2   1   37.05    7.26   1
 -11   2   1   21.87    5.59   1
 -10   2   1    1.12    2.79   1
  -9   2   1    4.45    2.89   1
  -8   2   1   10.48    3.58   1
  -7   2   1   31.83    4.70   1
  -6   2   1  137.00    7.72   1
  -5   2   1    0.23    1.61   1
  -4   2   1  150.74    6.98   1
  -3   2   1  376.90   11.78   1
  -2   2   1   61.88    3.51   1
   1  -2  -1 1224.81   32.26   3
  -1   2   1 1248.57   29.27   1
   1  -2  -1 1254.14   32.67   2
   0   2   1   78.80    2.90   1
   0  -2  -1   84.41    3.57   3
   0  -2  -1   82.26    3.23   2
   2   2   1   -0.09    0.27   1
   3   2   1 3274.77   74.99   1
   4   2   1   36.77    3.16   1
   5   2   1  440.56   14.54   1
  -7  -2  -1   10.57    2.78   1
  -7  -2  -1   13.16    2.87   4
  -8  -2  -1   -1.70    1.88   4
  -8  -2  -1   -1.24    1.93   1
  -9  -2  -1    8.14    3.14   1
  -9  -2  -1    4.89    2.66   4
 -10  -2  -1    5.64    3.21   1
 -10  -2  -1    7.02    3.12   4
 -11  -2  -1   18.47    4.79   1
 -12  -2  -1    6.40    4.03   1
 -13  -2  -1    4.08    4.25   1
 -11   3   1    2.53    3.29   1
 -10   3   1   29.48    5.59   1
  -9   3   1   26.64    5.40   1
  -8   3   1   12.03    3.75   1
  -7   3   1  324.41   13.68   1
  -6   3   1   11.64    3.04   1
  -5   3   1  130.29    7.15   1
  -4   3   1  383.97   12.97   1
  -3   3   1   65.97    4.24   1
   2  -3  -1  229.14    9.31   2
  -2   3   1  231.59    7.95   1
  -1   3   1   71.65    3.63   1
   1  -3  -1   87.25    4.52   2
   0  -3  -1 1412.89   35.86   2
   0  -3  -1 1415.42   36.12   3
   0   3   1 1341.74   32.22   1
  -1  -3  -1  182.51    5.82   2
   1   3   1  175.89    5.22   1
  -1  -3  -1  176.95    6.53   3
  -2  -3  -1   29.86    2.32   2
   2   3   1   29.60    1.89   1
   3   3   1    4.06    1.20   1
   4   3   1   -0.03    0.46   1
   5   3   1  897.80   24.60   1
   6   3   1   18.62    3.14   1
  -7  -3  -1   20.96    3.33   1
  -7  -3  -1   25.28    3.39   4
  -8  -3  -1  115.45    7.00   4
  -8  -3  -1  102.83    6.83   1
  -9  -3  -1   63.35    6.13   4
  -9  -3  -1   76.34    6.75   1
 -10  -3  -1    8.15    3.04   4
 -10  -3  -1    8.85    3.38   1
 -11  -3  -1    4.08    3.16   1
 -12  -3  -1    7.77    4.26   1
 -11   4   1    2.77    3.89   1
 -10   4   1    9.41    3.99   1
  -9   4   1   -1.80    2.44   1
  -8   4   1   47.09    6.09   1
  -7   4   1   66.14    6.58   1
  -6   4   1  131.83    8.04   1
  -5   4   1   73.14    5.56   1
  -4   4   1   -0.43    1.44   1
   3  -4  -1  333.50   13.84   2
  -3   4   1  372.02   11.99   1
  -2   4   1  423.84   12.72   1
   2  -4  -1  429.21   14.90   2
   1  -4  -1  997.27   28.11   2
  -1   4   1 1007.89   24.79   1
   0  -4  -1  355.10   11.46   3
   0  -4  -1  360.41   11.47   2
  -1  -4  -1    9.68    1.74   2
  -1  -4  -1   10.90    2.27   3
   1   4   1    7.40    1.28   1
   2   4   1   67.42    2.81   1
  -2  -4  -1   69.18    3.54   2
  -2  -4  -1   64.64    4.20   3
  -3  -4  -1   27.97    2.59   2
   3   4   1   29.40    2.18   1
   4   4   1   62.83    3.73   1
  -4  -4  -1   72.28    4.24   2
   5   4   1    1.89    1.29   1
   6   4   1    0.19    0.77   1
  -8  -4  -1   29.62    4.03   1
  -8  -4  -1   26.35    3.84   4
  -9  -4  -1    4.61    2.62   4
  -9  -4  -1    1.63    2.61   1
 -10  -4  -1   22.14    4.42   4
 -10  -4  -1   30.51    5.19   1
 -11  -4  -1   52.42    6.46   1
 -10   5   1   36.44    6.68   1
  -9   5   1   52.21    6.85   1
  -8   5   1  129.11    9.17   1
  -7   5   1    1.91    2.73   1
  -6   5   1   53.62    5.75   1
  -5   5   1   14.76    3.37   1
   4  -5  -1  167.37    9.71   2
  -4   5   1  146.67    7.68   1
  -3   5   1    0.71    1.53   1
   3  -5  -1    1.01    1.75   2
   2  -5  -1    8.50    2.25   3
   2  -5  -1    6.36    2.18   2
  -2   5   1    3.95    1.65   1
  -1   5   1  231.31    7.94   1
   1  -5  -1  233.32    9.49   2
   0  -5  -1  692.67   19.86   3
   0  -5  -1  656.28   19.82   2
  -1  -5  -1   60.27    4.29   3
   1   5   1   56.49    2.90   1
  -1  -5  -1   61.91    3.80   2
  -2  -5  -1   23.74    3.02   3
   2   5   1   26.66    1.88   1
  -2  -5  -1   31.38    2.74   2
   3   5   1  184.78    5.98   1
  -3  -5  -1  176.64    7.09   2
  -4  -5  -1   46.81    3.57   2
   4   5   1   37.52    2.76   1
   5   5   1  556.34   16.13   1
  -5  -5  -1  560.00   17.81   2
   6   5   1  306.48   11.63   1
  -6  -5  -1  342.70   12.84   2
   7   5   1   -0.29    1.33   1
  -8  -5  -1  103.49    6.26   4
  -8  -5  -1  114.03    6.70   1
  -9  -5  -1  216.68   10.06   4
  -9  -5  -1  210.09   10.35   1
 -10  -5  -1   22.15    4.20   4
 -10  -5  -1   23.04    4.49   1
 -10   6   1    2.86    3.61   1
  -9   6   1    5.19    3.62   1
  -8   6   1   76.63    7.67   1
  -7   6   1   68.26    6.82   1
  -6   6   1   46.35    5.52   1
  -5   6   1    9.30    2.96   1
   4  -6  -1    3.33    2.18   2
  -4   6   1    2.15    2.02   1
   3  -6  -1   -0.98    1.33   2
  -3   6   1    3.09    1.80   1
  -2   6   1  345.96   11.86   1
   2  -6  -1  373.87   13.04   3
   2  -6  -1  357.55   14.27   2
   1  -6  -1   51.11    4.36   2
  -1   6   1   52.09    3.52   1
   0  -6  -1   66.75    4.77   3
   0  -6  -1   72.04    4.77   2
   1   6   1  285.99    8.45   1
  -1  -6  -1  282.10   10.41   2
  -1  -6  -1  300.69   11.15   3
   2   6   1  260.65    7.65   1
  -2  -6  -1  264.52    9.48   2
  -2  -6  -1  263.78   10.48   3
  -3  -6  -1    7.15    1.86   2
   3   6   1    8.04    1.19   1
   4   6   1   65.96    3.45   1
  -4  -6  -1   67.26    4.46   2
  -5  -6  -1  390.30   13.36   2
   5   6   1  339.61   11.32   1
  -6  -6  -1  115.43    6.86   2
   6   6   1  117.07    6.00   1
   7   6   1   59.74    4.78   1
  -7  -6  -1   70.63    5.83   2
  -8  -6  -1  132.29    7.23   1
  -8  -6  -1  148.60    8.88   2
  -8  -6  -1  141.44    7.05   4
  -9  -6  -1    4.24    2.97   2
  -9  -6  -1    4.87    2.45   4
  -9  -6  -1    0.45    2.09   1
 -10  -6  -1   49.08    6.97   2
 -11  -6  -1   31.44    6.69   2
 -12  -6  -1   10.61    5.12   2
 -13  -6  -1   10.69    5.04   2
 -10   7   1    2.64    2.75   1
  -9   7   1   32.32    6.06   1
  -8   7   1    8.69    3.54   1
  -7   7   1   14.26    3.83   1
  -6   7   1    9.58    3.21   1
  -5   7   1  185.31    9.59   1
  -4   7   1  153.77    8.30   1
   4  -7  -1  149.77   10.02   2
   3  -7  -1    9.52    2.99   2
  -3   7   1    1.38    1.89   1
   2  -7  -1   45.29    5.10   2
   2  -7  -1   46.69    4.51   3
  -2   7   1   40.55    3.92   1
   1  -7  -1  119.36    7.19   2
  -1   7   1  123.04    5.82   1
   0  -7  -1  238.47    9.96   3
   0  -7  -1  241.04   10.28   2
   0   7   1  233.92    8.11   1
  -1  -7  -1  694.16   21.62   2
  -1  -7  -1  727.12   22.35   3
   1   7   1  731.89   18.34   1
   2   7   1   47.90    2.75   1
  -2  -7  -1   47.98    3.99   2
  -2  -7  -1   47.46    4.56   3
   3   7   1   76.10    3.31   1
  -3  -7  -1   80.64    5.78   3
  -3  -7  -1   75.05    4.78   2
   4   7   1  192.41    6.55   1
  -4  -7  -1  200.08    8.44   2
   5   7   1  109.74    5.02   1
  -5  -7  -1  113.19    6.44   2
   6   7   1   68.09    4.28   1
  -6  -7  -1   70.63    5.49   2
   7   7   1    5.05    1.98   1
  -7  -7  -1    7.22    2.93   2
  -8  -7  -1   26.43    4.53   2
  -9  -7  -1   53.02    6.43   2
 -10  -7  -1   51.54    6.90   2
 -11  -7  -1   14.66    4.98   2
 -12  -7  -1    5.95    3.98   2
 -13  -7  -1   17.96    5.95   2
  -9   8   1    2.70    2.17   1
  -8   8   1   21.91    5.24   1
  -7   8   1  100.10    8.23   1
  -6   8   1   79.32    7.42   1
  -5   8   1   49.73    5.80   1
   5  -8  -1   54.74    7.43   2
  -4   8   1    5.18    2.60   1
   4  -8  -1    1.13    2.24   2
   3  -8  -1  473.43   19.29   2
  -3   8   1  469.30   16.03   1
   2  -8  -1   81.33    6.11   3
  -2   8   1   79.34    5.42   1
   2  -8  -1   96.91    7.32   2
   1  -8  -1    0.40    1.01   3
  -1   8   1    7.79    2.06   1
   1  -8  -1    3.57    2.17   2
   0   8   1   25.52    2.70   1
   0  -8  -1   18.94    3.52   2
   0  -8  -1   25.19    3.78   3
  -1  -8  -1  483.45   17.16   3
   1   8   1  518.31   13.93   1
  -1  -8  -1  502.64   16.90   2
  -2  -8  -1   44.08    4.12   2
  -2  -8  -1   46.29    4.84   3
   2   8   1   36.91    2.65   1
   3   8   1  248.73    7.48   1
  -3  -8  -1  239.10    9.89   2
  -3  -8  -1  246.12   11.19   3
  -4  -8  -1   50.73    4.57   2
   4   8   1   56.24    3.02   1
  -4  -8  -1   55.63    5.52   3
   5   8   1   51.71    3.27   1
  -5  -8  -1   51.06    4.62   2
  -6  -8  -1   59.77    5.24   2
  -7  -8  -1  159.55    8.98   2
  -8  -8  -1   62.71    6.38   2
  -9  -8  -1    1.40    2.82   2
 -10  -8  -1   -2.94    2.51   2
 -11  -8  -1   23.73    5.79   2
 -12  -8  -1   39.43    7.56   2
  -9   9   1    1.55    1.97   1
  -8   9   1    2.94    3.17   1
  -7   9   1    2.98    3.01   1
  -6   9   1   56.58    6.66   1
  -5   9   1  167.79    9.61   1
   5  -9  -1  142.65   11.12   2
  -4   9   1   56.59    5.76   1
   4  -9  -1   54.81    7.22   2
   3  -9  -1   76.01    7.61   2
  -3   9   1   65.94    5.80   1
  -2   9   1    7.84    2.57   1
   2  -9  -1    9.45    3.36   2
   2  -9  -1   15.72    3.72   3
   1  -9  -1   29.68    3.86   3
  -1   9   1   46.00    4.10   1
   0  -9  -1   32.93    4.47   3
   0  -9  -1   26.24    4.19   2
   0   9   1   28.10    3.03   1
  -1  -9  -1    0.51    2.29   3
   1   9   1   -0.05    1.08   1
  -1  -9  -1   -1.29    1.50   2
  -2  -9  -1   -1.09    1.95   2
   2   9   1    3.29    1.23   1
  -2  -9  -1    0.48    2.31   3
   3   9   1    7.85    1.38   1
  -3  -9  -1    9.23    2.71   2
  -3  -9  -1    9.64    3.33   3
  -4  -9  -1  281.94   12.85   3
  -4  -9  -1  276.96   11.45   2
  -5  -9  -1   63.16    5.36   2
  -6  -9  -1    7.36    2.84   2
  -7  -9  -1    7.36    3.18   2
  -8  -9  -1  125.63    8.55   2
  -9  -9  -1  113.42    8.42   2
 -10  -9  -1    4.55    3.46   2
 -11  -9  -1    2.99    3.68   2
  -8  10   1   -1.62    1.76   1
  -7  10   1   34.47    6.02   1
  -6  10   1   79.99    7.76   1
   5 -10  -1   19.32    5.31   2
  -5  10   1    5.81    3.13   1
   4 -10  -1  114.49    9.65   2
  -4  10   1   99.10    7.27   1
  -3  10   1   31.40    4.44   1
   3 -10  -1   36.56    6.13   2
   2 -10  -1    8.18    3.46   2
  -2  10   1   10.58    2.99   1
   2 -10  -1    8.31    3.49   3
   1 -10  -1  242.21   11.47   3
   1 -10  -1  272.59   13.21   2
   0 -10  -1   -1.15    2.37   3
   0 -10  -1   -0.27    2.16   2
   0  10   1    0.71    1.62   1
   1  10   1  107.37    5.31   1
  -1 -10  -1   94.02    7.08   2
  -1 -10  -1  119.12    7.88   3
  -2 -10  -1   23.36    4.52   3
   2  10   1   10.30    1.83   1
  -2 -10  -1   19.60    3.69   2
  -3 -10  -1  150.94    9.11   3
  -3 -10  -1  139.22    8.03   2
  -4 -10  -1   31.49    4.28   2
  -4 -10  -1   42.63    5.73   3
  -5 -10  -1   29.60    4.34   2
  -5 -10  -1   33.07    5.23   3
  -6 -10  -1  135.93    8.19   2
  -7 -10  -1   30.97    4.79   2
  -8 -10  -1    6.25    3.24   2
  -9 -10  -1   11.08    3.97   2
 -10 -10  -1   48.31    6.73   2
  -8  11   1   -1.46    2.39   1
  -7  11   1    2.91    3.09   1
  -6  11   1   36.22    5.85   1
  -5  11   1   19.17    4.50   1
   5 -11  -1    9.72    4.67   2
  -4  11   1   50.58    5.93   1
   4 -11  -1   43.51    7.29   2
   3 -11  -1   20.46    5.19   2
  -3  11   1   14.55    3.68   1
  -2  11   1   13.96    3.36   1
   2 -11  -1   14.73    4.24   3
   2 -11  -1   12.30    4.04   2
   1 -11  -1   39.53    5.50   3
   1 -11  -1   39.86    5.90   2
   0  11   1  392.01   13.17   1
   0 -11  -1  403.89   16.37   3
   0 -11  -1  379.31   16.79   2
  -1 -11  -1  156.16    9.37   2
   1  11   1  135.39    6.49   1
  -1 -11  -1  149.20    9.41   3
  -2 -11  -1    0.86    3.08   3
  -2 -11  -1    9.98    3.14   2
  -3 -11  -1  115.21    7.86   2
  -3 -11  -1  120.59    8.80   3
  -4 -11  -1  139.80    8.34   2
  -4 -11  -1  128.34    9.22   3
  -5 -11  -1   30.12    5.49   3
  -5 -11  -1   37.65    4.84   2
  -6 -11  -1   58.78    7.06   3
  -6 -11  -1   67.81    6.32   2
  -7 -11  -1   -0.17    2.42   2
  -8 -11  -1   23.86    4.85   2
  -9 -11  -1   37.78    6.09   2
  -7  12   1    3.27    3.34   1
  -6  12   1   27.87    5.63   1
  -5  12   1   -1.95    2.59   1
   5 -12  -1    0.25    3.26   2
  -4  12   1    6.43    3.15   1
   4 -12  -1    8.30    4.02   2
  -3  12   1    8.63    3.13   1
   3 -12  -1   14.89    4.73   2
   2 -12  -1  261.78   14.86   2
  -2  12   1  263.04   11.84   1
   1 -12  -1   45.58    6.02   3
   1 -12  -1   44.17    6.60   2
  -1  12   1   44.62    4.67   1
   0 -12  -1   30.82    5.51   2
   0 -12  -1   49.03    6.27   3
  -1 -12  -1   30.83    5.46   3
  -1 -12  -1   31.12    5.37   2
  -2 -12  -1  113.51    8.84   3
  -2 -12  -1  111.00    8.19   2
  -3 -12  -1   27.62    5.66   3
  -3 -12  -1   31.32    4.99   2
  -4 -12  -1   12.92    3.77   2
  -4 -12  -1    4.98    3.64   3
  -5 -12  -1   44.55    6.60   3
  -5 -12  -1   50.25    5.75   2
  -6 -12  -1  126.36    9.70   3
  -6 -12  -1  124.96    8.46   2
  -7 -12  -1    6.63    3.74   3
  -7 -12  -1    7.56    3.50   2
  -8 -12  -1   30.80    6.27   3
  -8 -12  -1   35.71    5.49   2
  -6  13   1    6.46    3.74   1
  -5  13   1   79.28    8.06   1
   5 -13  -1   85.49   10.89   2
   4 -13  -1   78.14    9.98   2
  -4  13   1   71.18    7.37   1
   3 -13  -1   28.89    6.56   2
  -3  13   1   28.94    5.05   1
  -2  13   1    6.30    2.56   1
   2 -13  -1    6.84    3.96   2
   1 -13  -1   79.60    8.67   2
   0 -13  -1   99.78    8.61   2
   0 -13  -1   75.97    7.79   3
  -1 -13  -1   21.79    5.07   3
  -1 -13  -1   10.58    3.97   2
  -2 -13  -1    6.94    3.33   2
  -2 -13  -1    8.99    3.96   3
  -3 -13  -1    2.75    3.44   3
  -3 -13  -1    2.32    2.85   2
  -4 -13  -1   50.79    7.10   3
  -4 -13  -1   52.35    6.24   2
  -5 -13  -1   33.73    5.27   2
  -5 -13  -1   23.69    5.35   3
  -6 -13  -1    6.28    3.64   3
  -6 -13  -1    3.05    2.99   2
  -7 -13  -1    4.90    3.51   3
  -8 -13  -1   18.22    5.23   3
  -9 -13  -1   36.09    7.31   3
 -10 -13  -1   11.39    4.87   3
 -11 -13  -1   -3.67    3.01   3
 -12 -13  -1   16.36    6.27   3
  -5  14   1    4.77    3.11   1
   5 -14  -1    0.67    3.29   2
   4 -14  -1    1.81    2.96   2
  -4  14   1    1.74    2.93   1
   3 -14  -1   93.51   10.90   2
   2 -14  -1   76.24    9.46   2
   1 -14  -1   12.03    4.61   2
   0 -14  -1    7.29    3.50   2
   0 -14  -1    1.38    2.51   3
  -1 -14  -1   61.49    7.38   3
  -1 -14  -1   51.86    7.20   2
  -2 -14  -1   65.19    7.58   2
  -2 -14  -1   81.86    8.34   3
  -3 -14  -1   57.76    6.75   2
  -3 -14  -1   55.03    7.08   3
  -4 -14  -1   54.37    7.52   3
  -4 -14  -1   40.00    6.08   2
  -5 -14  -1   15.69    5.05   3
  -6 -14  -1   87.53    9.26   3
  -7 -14  -1   21.97    5.71   3
  -8 -14  -1    9.33    4.45   3
  -9 -14  -1   -0.58    3.25   3
 -10 -14  -1    4.67    4.26   3
 -11 -14  -1   16.84    5.97   3
   5 -15  -1   20.88    6.54   2
   4 -15  -1   29.36    7.35   2
   3 -15  -1   11.30    4.96   2
   2 -15  -1   10.41    4.75   2
   1 -15  -1   14.72    4.85   2
   0 -15  -1   58.01    8.26   2
  -1 -15  -1   51.08    7.61   2
  -1 -15  -1   49.56    7.19   3
  -2 -15  -1   24.78    5.59   3
  -2 -15  -1   17.46    5.00   2
  -3 -15  -1   47.28    7.37   3
  -3 -15  -1   51.16    6.91   2
  -4 -15  -1  146.40   11.35   3
  -5 -15  -1   66.92    8.63   3
  -6 -15  -1   23.29    5.88   3
  -7 -15  -1    0.66    3.28   3
  -8 -15  -1   46.97    8.01   3
  -9 -15  -1   40.91    7.62   3
 -10 -15  -1   -2.24    3.87   3
 -11 -15  -1    8.94    4.78   3
   4 -16  -1    2.97    4.23   2
   3 -16  -1   33.81    7.64   2
   2 -16  -1   11.47    5.56   2
   1 -16  -1   53.76    8.86   2
   0 -16  -1    2.13    3.76   2
  -1 -16  -1   47.51    7.90   2
  -2 -16  -1   81.98    9.05   3
  -3 -16  -1  104.12   10.15   3
  -4 -16  -1    2.58    3.74   3
  -5 -16  -1   11.71    5.23   3
  -6 -16  -1    5.64    4.15   3
  -7 -16  -1   23.50    6.04   3
  -8 -16  -1   16.31    5.36   3
  -9 -16  -1   -1.96    3.15   3
 -10 -16  -1    8.34    5.01   3
   2 -17  -1    0.22    4.20   2
  -2 -17  -1   12.60    4.69   3
  -3 -17  -1   15.17    4.98   3
  -4 -17  -1    2.84    4.33   3
  -5 -17  -1   40.30    7.64   3
  -6 -17  -1   13.32    5.30   3
  -7 -17  -1    2.57    5.06   3
  -8 -17  -1   -0.50    3.40   3
  -9 -17  -1    0.79    2.52   3
  -3 -18  -1   38.18    7.46   3
  -4 -18  -1   22.65    6.09   3
  -5 -18  -1   26.70    6.66   3
  -6 -18  -1   -2.71    3.76   3
  -7 -18  -1    5.57    4.86   3
  -8 -18  -1   -1.81    2.83   3
  -4 -19  -1   23.10    6.57   3
  -5 -19  -1   51.44    8.94   3
  -6 -19  -1   11.39    5.00   3
  -7 -19  -1   -1.04    3.15   3
  -6 -19   2   -0.80    4.26   3
  -5 -19   2    3.47    4.79   3
  -2 -19   2   15.29    5.32   2
  -1 -19   2   10.83    5.01   2
  -8 -18   2   -0.77    2.84   3
  -7 -18   2   21.40    5.84   3
  -6 -18   2    8.89    4.62   3
  -5 -18   2   19.17    6.02   3
  -4 -18   2   32.60    7.04   2
  -4 -18   2   33.45    6.89   3
  -3 -18   2    9.36    4.94   2
  -2 -18   2    1.43    3.83   2
  -1 -18   2    7.69    4.52   2
   0 -18   2    1.45    3.65   2
   1 -18   2    7.48    5.36   2
  -9 -17   2    2.41    2.51   3
  -8 -17   2    1.12    2.61   3
  -7 -17   2    7.67    4.46   3
  -6 -17   2   80.46    9.48   3
  -6 -17   2   64.04    8.70   2
  -5 -17   2   15.73    5.21   3
  -5 -17   2   26.97    6.42   2
  -4 -17   2   -1.39    3.39   3
  -4 -17   2    2.28    3.95   2
  -3 -17   2   44.04    7.74   2
  -2 -17   2   49.99    8.16   2
  -1 -17   2   20.16    5.92   2
   0 -17   2    4.88    4.21   2
   1 -17   2    7.61    4.38   2
   2 -17   2   11.94    4.69   2
 -10 -16   2    5.26    2.87   3
  -9 -16   2    3.83    2.30   3
  -8 -16   2   34.34    6.89   2
  -8 -16   2   39.25    7.36   3
  -7 -16   2    1.38    3.60   3
  -7 -16   2    2.65    4.31   2
  -6 -16   2    7.06    4.43   2
  -6 -16   2    9.69    4.37   3
  -5 -16   2   20.30    5.41   3
  -5 -16   2   23.42    5.73   2
  -4 -16   2   54.76    7.99   2
  -4 -16   2   71.85    8.52   3
  -3 -16   2   16.52    5.14   2
  -3 -16   2   13.15    4.80   3
  -2 -16   2    4.06    3.76   2
  -1 -16   2   12.59    4.80   2
   0 -16   2   33.48    7.43   2
   1 -16   2    7.50    4.05   2
   2 -16   2    3.56    3.61   2
   3 -16   2    4.91    4.25   2
   4 -16   2   11.20    5.39   2
  -9 -15   2   -0.50    3.58   2
  -8 -15   2    7.46    4.66   2
  -8 -15   2    2.82    3.28   3
  -7 -15   2    5.36    3.89   2
  -7 -15   2    6.66    3.59   3
  -6 -15   2   17.32    5.01   2
  -6 -15   2   17.93    4.90   3
  -5 -15   2    2.81    3.28   3
  -5 -15   2    3.70    3.48   2
  -4 -15   2   39.39    6.73   2
  -4 -15   2   42.79    6.60   3
  -3 -15   2    3.71    3.45   2
  -3 -15   2    3.77    3.46   3
  -2 -15   2   44.48    6.33   3
  -2 -15   2   36.22    6.71   2
  -1 -15   2   43.98    7.31   2
   0 -15   2   18.50    5.41   2
   1 -15   2   14.33    5.11   2
   2 -15   2    7.76    4.44   2
   3 -15   2   18.74    6.08   2
   4 -15   2   -0.05    3.93   2
   5 -15   2    3.67    3.82   2
 -10 -14   2    7.41    4.57   2
  -9 -14   2    4.58    4.07   2
  -8 -14   2    0.53    3.54   2
  -7 -14   2    3.57    4.01   2
  -6 -14   2    5.29    3.41   3
  -6 -14   2    2.07    3.13   2
  -5 -14   2    6.72    3.92   3
  -5 -14   2    9.18    4.18   2
  -4 -14   2   17.81    4.76   3
  -4 -14   2   11.61    4.23   2
  -3 -14   2   72.11    8.01   2
  -3 -14   2   70.40    7.52   3
  -2 -14   2   84.79    8.16   3
  -2 -14   2   69.15    8.05   2
  -1 -14   2    2.73    3.18   2
   0 -14   2   51.74    7.67   2
   1 -14   2   36.63    7.22   2
   2 -14   2    2.80    3.45   2
   3 -14   2    5.04    3.88   2
   4 -14   2   27.55    6.56   2
   5 -14   2    0.40    3.69   2
   6 -14   2    6.72    4.08   2
 -11 -13   2    3.84    4.24   2
 -10 -13   2    5.62    3.92   2
  -9 -13   2    5.44    3.86   2
  -8 -13   2    3.94    3.93   2
  -7 -13   2   31.43    5.94   2
  -6 -13   2   21.99    5.05   2
  -5 -13   2   22.72    5.12   3
  -5 -13   2   25.70    5.30   2
  -4 -13   2    8.64    3.60   3
  -4 -13   2    5.76    3.63   2
  -3 -13   2    7.63    3.33   3
  -3 -13   2    2.82    3.23   2
  -2 -13   2   10.13    3.98   2
  -2 -13   2   12.62    4.00   3
  -1 -13   2   19.73    3.88   3
  -1 -13   2   51.05    7.07   2
   0 -13   2   13.78    4.50   2
   1 -13   2    5.37    3.83   2
   2 -13   2   94.63   10.10   2
   3 -13   2   29.93    6.63   2
   4 -13   2    3.73    3.86   2
   5 -13   2   -2.73    3.06   2
  -5  13  -2    2.21    2.76   1
   6 -13   2    6.48    4.59   2
  -6  13  -2   10.54    3.90   1
 -12 -12   2   -0.35    3.88   2
 -11 -12   2   -0.78    3.99   2
 -10 -12   2    5.45    3.97   2
  -9 -12   2    7.54    4.16   2
  -8 -12   2    0.57    2.98   2
  -7 -12   2    2.87    3.53   2
  -6 -12   2   22.18    4.96   2
  -5 -12   2    5.12    3.31   2
  -4 -12   2   33.80    5.41   3
  -4 -12   2   42.07    6.06   2
  -3 -12   2    4.77    3.45   2
  -3 -12   2    4.17    3.07   3
  -2 -12   2   37.18    5.20   3
  -2 -12   2   25.07    5.36   2
  -1 -12   2   47.57    6.29   2
   0 -12   2   11.19    3.78   3
   0 -12   2    7.41    3.64   2
   1 -12   2   20.10    5.18   2
   2 -12   2   21.04    5.27   2
  -3  12  -2    3.85    2.58   1
   3 -12   2    5.19    3.39   2
  -4  12  -2   11.76    3.53   1
   4 -12   2   21.08    5.87   2
  -5  12  -2   28.98    5.23   1
   5 -12   2   27.82    6.63   2
   6 -12   2   16.43    5.90   2
  -6  12  -2   14.41    4.27   1
   7 -12   2    4.97    4.22   2
  -7  12  -2   -2.32    2.71   1
 -12 -11   2   14.89    5.59   2
 -11 -11   2   59.80    8.65   2
 -10 -11   2   58.78    8.15   2
  -9 -11   2    4.93    4.01   2
  -8 -11   2    2.06    3.21   2
  -7 -11   2  124.65    8.97   2
  -6 -11   2    1.64    3.06   2
  -5 -11   2    0.79    3.01   2
  -4 -11   2   37.31    5.41   2
  -3 -11   2   60.40    6.22   3
  -3 -11   2   48.80    6.00   2
  -2 -11   2   54.87    5.95   3
  -2 -11   2   51.65    6.22   2
  -1 -11   2    8.97    3.67   2
   0 -11   2    4.02    3.00   3
   0 -11   2    5.80    3.28   2
  -1  11  -2   69.91    5.03   1
   1 -11   2   71.39    7.85   2
   2 -11   2    1.78    2.82   2
  -2  11  -2   11.19    2.77   1
  -3  11  -2    4.26    2.39   1
   3 -11   2   15.16    4.51   2
  -4  11  -2   17.11    3.91   1
   4 -11   2   19.45    5.38   2
  -5  11  -2   21.99    4.51   1
   5 -11   2   32.57    6.82   2
   6 -11   2   32.27    7.31   2
  -6  11  -2   32.70    5.46   1
  -7  11  -2    8.68    3.87   1
   7 -11   2   20.88    6.29   2
  -8  11  -2   -0.94    3.32   1
 -12 -10   2    5.48    4.69   2
 -11 -10   2    6.53    4.50   2
 -10 -10   2   55.83    7.85   2
  -9 -10   2   99.98    8.88   2
  -8 -10   2    9.10    3.99   2
  -7 -10   2    5.38    3.48   2
  -6 -10   2   87.78    7.30   2
  -5 -10   2  122.71    8.45   2
  -4 -10   2  166.12    9.71   2
  -3 -10   2    3.04    2.70   2
  -2 -10   2    2.35    2.49   3
  -2 -10   2    3.15    2.62   2
  -1 -10   2  107.88    8.03   2
   0 -10   2  244.38   10.90   3
   0  10  -2  237.41    8.60   1
   0 -10   2  247.82   12.55   2
   1 -10   2  146.69    8.04   3
   1 -10   2  143.83    9.89   2
  -1  10  -2  142.24    6.77   1
   2 -10   2   46.68    6.49   2
  -3  10  -2    6.05    2.70   1
   3 -10   2   10.03    3.86   2
  -4  10  -2    3.13    2.38   1
   4 -10   2    3.14    3.02   2
   5 -10   2   29.97    6.60   2
  -5  10  -2   36.77    5.26   1
   6 -10   2   -0.62    2.90   2
  -6  10  -2    2.47    2.80   1
  -7  10  -2    4.51    3.10   1
   7 -10   2    3.17    3.80   2
  -8  10  -2   10.01    3.93   1
 -12  -9   2    6.15    4.43   2
 -11  -9   2    5.71    4.21   2
 -10  -9   2    3.76    3.34   2
  -9  -9   2    5.12    3.55   2
  -8  -9   2   74.14    7.67   2
  -7  -9   2   82.94    7.60   2
  -6  -9   2    7.80    3.36   2
  -5  -9   2   92.79    6.92   2
  -4  -9   2   11.86    3.40   2
  -3  -9   2  429.26   16.20   2
  -2  -9   2  189.59    9.87   2
   1   9  -2   41.40    2.72   1
  -1  -9   2   29.75    4.02   3
  -1  -9   2   44.14    5.12   2
   0  -9   2   11.27    3.28   2
   0   9  -2    9.22    1.87   1
   0  -9   2   11.09    2.93   3
   1  -9   2  160.67    7.95   3
  -1   9  -2  165.54    7.12   1
   1  -9   2  153.50    9.74   2
   2  -9   2  156.65   10.09   2
   3  -9   2    9.98    3.53   2
  -3   9  -2   12.60    2.98   1
  -4   9  -2   35.93    4.67   1
   4  -9   2   34.73    6.16   2
  -5   9  -2   77.28    6.45   1
   5  -9   2   80.18    9.11   2
  -6   9  -2   21.15    4.54   1
   6  -9   2   26.68    6.09   2
  -7   9  -2   67.55    7.35   1
  -8   9  -2    5.00    3.28   1
  -9   9  -2    1.30    2.19   1
 -12  -8   2   29.18    7.07   2
 -11  -8   2    6.22    4.41   2
 -10  -8   2   10.27    4.58   2
  -9  -8   2   39.76    6.65   2
  -8  -8   2  145.43    9.92   2
  -7  -8   2  126.96    8.83   2
  -6  -8   2    3.60    2.85   2
  -5  -8   2   73.18    6.11   2
  -4  -8   2  186.43    9.48   2
  -3  -8   2   49.30    4.94   2
  -2  -8   2    7.96    2.69   2
   1   8  -2  163.48    5.53   1
  -1  -8   2  174.08    8.19   3
  -1  -8   2  173.69    9.00   2
   0  -8   2  418.13   16.12   2
   0  -8   2  437.60   14.66   3
   0   8  -2  417.73   12.16   1
  -1   8  -2   90.12    5.05   1
   1  -8   2   97.26    7.13   2
   1  -8   2  101.42    5.68   3
  -2   8  -2    3.56    1.86   1
   2  -8   2    5.57    2.66   2
   2  -8   2    5.19    2.20   3
  -3   8  -2   17.00    3.21   1
   3  -8   2   19.14    4.23   2
  -4   8  -2   73.54    5.85   1
   4  -8   2   84.88    7.92   2
   5  -8   2    9.60    3.72   2
  -5   8  -2    2.31    2.39   1
   6  -8   2    8.67    4.01   2
  -6   8  -2    6.40    3.17   1
  -7   8  -2   25.40    5.07   1
  -8   8  -2    7.66    3.64   1
  -9   8  -2    2.45    3.08   1
 -12  -7   2   13.11    5.87   2
 -11  -7   2   17.39    5.63   2
 -10  -7   2   67.34    8.58   2
  -9  -7   2    7.49    3.88   2
  -8  -7   2  160.63   10.49   2
  -7  -7   2  101.03    8.03   2
  -6  -7   2  482.03   18.22   2
  -5  -7   2  451.25   16.74   2
  -4  -7   2   10.06    2.75   2
  -3  -7   2   92.60    6.18   2
  -2  -7   2  166.23    8.18   2
  -1  -7   2   85.72    5.84   2
   1   7  -2   80.02    3.22   1
   0  -7   2    3.18    2.01   2
   0   7  -2    0.23    0.99   1
   0  -7   2    1.32    1.53   3
   1  -7   2  336.15   13.67   2
  -1   7  -2  327.89   10.56   1
   1  -7   2  327.76   11.34   3
   2  -7   2  316.05   10.74   3
   2  -7   2  319.69   13.91   2
  -2   7  -2  305.99   10.78   1
  -2   7  -2  295.12   10.27   4
  -3   7  -2  288.68   10.61   4
   3  -7   2  278.41   13.48   2
  -3   7  -2  272.26   10.79   1
  -4   7  -2   52.20    5.02   1
   4  -7   2   44.84    6.23   2
   5  -7   2   -0.99    2.35   2
  -5   7  -2    3.89    2.49   1
   6  -7   2   66.09    8.33   2
  -6   7  -2   49.46    5.75   1
  -7   7  -2   34.16    5.51   1
  -8   7  -2    8.49    3.59   1
  -9   7  -2    0.31    2.75   1
 -10   7  -2   -0.74    2.34   1
 -12  -6   2   18.12    6.48   2
 -11  -6   2    3.33    3.84   2
 -10  -6   2   14.01    4.89   2
  -9  -6   2  127.32    9.89   2
  -8  -6   2   30.28    5.36   2
  -7  -6   2   51.39    6.01   2
  -6  -6   2    6.03    1.62   1
  -6  -6   2    5.16    2.85   2
  -5  -6   2  129.14    7.47   2
  -5  -6   2  115.73    4.52   1
  -4  -6   2   79.27    3.04   1
  -4  -6   2   84.50    5.72   2
  -3  -6   2    8.08    2.29   2
  -2  -6   2   32.59    3.60   2
  -1  -6   2   42.23    3.98   2
   1   6  -2   45.50    2.15   1
   0  -6   2  467.79   14.10   3
   0  -6   2  432.87   15.56   2
   0   6  -2  446.10   12.10   1
   0   6  -2  433.90   11.56   4
   1  -6   2  535.73   14.29   3
  -1   6  -2  406.09   12.38   4
   1  -6   2  482.97   16.51   2
  -1   6  -2  405.93   12.83   1
   2  -6   2  281.39   12.73   2
  -2   6  -2  322.73   10.43   4
  -2   6  -2  330.81   10.87   1
   2  -6   2  307.63   10.24   3
  -3   6  -2   39.93    4.01   1
  -3   6  -2   46.37    4.13   4
   3  -6   2   35.74    4.89   2
   4  -6   2   70.60    7.13   2
  -4   6  -2   58.90    4.86   4
  -4   6  -2   66.81    5.32   1
  -5   6  -2  149.10    8.42   1
   5  -6   2  155.28   10.43   2
  -5   6  -2  155.20    8.14   4
   6  -6   2    5.32    2.95   2
  -6   6  -2    0.97    2.76   1
  -7   6  -2  176.17   10.18   1
  -8   6  -2  131.59    9.35   1
  -9   6  -2   65.24    7.84   1
 -10   6  -2    0.00    2.41   1
 -12  -5   2   25.42    7.09   2
 -11  -5   2   61.48    9.09   2
 -10  -5   2   82.47    9.39   2
  -9  -5   2    5.05    3.26   2
  -8  -5   2    0.93    2.59   2
  -8  -5   2    1.28    1.85   1
  -7  -5   2   65.10    4.48   1
  -7  -5   2   60.03    6.31   2
  -6  -5   2  185.06    7.18   1
  -6  -5   2  190.20    9.88   2
  -5  -5   2   38.35    2.76   1
  -5  -5   2   44.53    4.66   2
  -4  -5   2  144.90    4.83   1
  -4  -5   2  143.23    7.42   2
  -3  -5   2    8.01    2.28   2
  -2  -5   2  237.76    9.42   2
   1   5  -2   54.83    2.23   1
   1   5  -2   56.97    2.17   4
  -1  -5   2   57.21    4.20   2
   0   5  -2  119.92    4.25   4
   0   5  -2  116.86    4.36   1
   0  -5   2  119.38    6.27   2
   1  -5   2  250.24    8.27   3
   1  -5   2  231.03   10.00   2
   2  -5   2  513.04   14.52   3
   2  -5   2  503.29   17.81   2
  -2   5  -2  502.03   14.73   1
  -2   5  -2  516.10   14.28   4
  -3   5  -2  357.14   11.95   1
  -3   5  -2  339.42   11.44   4
   3  -5   2  357.18   14.56   2
  -4   5  -2  163.22    7.70   4
   4  -5   2  161.78    9.77   2
  -4   5  -2  161.59    7.96   1
  -5   5  -2    5.06    2.43   1
   5  -5   2    8.22    3.40   2
  -5   5  -2   10.19    2.83   4
  -6   5  -2   19.17    4.01   1
  -6   5  -2   18.45    3.73   4
   6  -5   2   22.84    4.84   2
  -7   5  -2   16.18    3.97   1
  -7   5  -2   16.07    3.75   4
  -8   5  -2   -1.82    2.11   1
  -9   5  -2   20.71    4.96   1
 -10   5  -2   34.51    6.55   1
 -11   5  -2   54.16    8.23   1
  -9  -4   2   83.72    6.24   1
  -8  -4   2  112.20    6.60   1
  -7  -4   2   71.05    4.85   1
  -6  -4   2   12.32    2.24   1
  -6  -4   2   15.41    3.48   2
  -5  -4   2  260.81    8.63   1
  -5  -4   2  269.67   11.34   2
  -4  -4   2  300.32   11.52   2
  -4  -4   2  292.53    8.57   1
  -3  -4   2  524.08   16.82   2
  -3  -4   2  545.14   13.18   1
  -2  -4   2  739.46   21.44   2
  -1  -4   2   37.74    3.37   2
   0  -4   2   47.25    2.63   1
   0  -4   2   46.67    3.76   2
   1  -4   2   66.26    3.66   1
   1  -4   2   62.99    3.25   3
   1  -4   2   64.70    4.51   2
   2  -4   2   17.64    2.43   1
   2  -4   2   14.72    1.56   3
   2  -4   2    8.13    2.40   2
  -3   4  -2  206.00    7.78   4
  -3   4  -2  214.38    8.27   1
   3  -4   2  206.30   10.02   2
   4  -4   2   71.20    5.99   2
  -4   4  -2   77.22    4.90   4
  -4   4  -2   67.27    4.85   1
   5  -4   2  376.18   16.55   2
  -5   4  -2  373.79   13.89   1
  -5   4  -2  395.76   13.68   4
  -6   4  -2   43.07    5.09   1
  -6   4  -2   42.63    4.96   4
  -7   4  -2   13.58    3.71   1
  -7   4  -2   12.80    3.54   4
  -8   4  -2   53.81    6.50   1
  -8   4  -2   55.70    6.38   4
  -9   4  -2   58.15    6.98   1
 -10   4  -2   27.84    6.05   1
 -11   4  -2    2.42    3.54   1
 -11  -3   2    0.81    2.57   1
 -10  -3   2    7.33    3.10   1
  -9  -3   2    5.50    2.63   1
  -8  -3   2   -0.86    1.83   1
  -7  -3   2  113.73    6.36   1
  -6  -3   2  190.12    7.83   1
  -5  -3   2  282.79    9.40   1
  -4  -3   2   31.71    3.48   2
  -4  -3   2   27.69    2.39   1
  -3  -3   2  638.71   19.32   2
  -3  -3   2  649.75   15.97   1
  -2  -3   2   30.98    1.68   1
  -2  -3   2   31.84    2.98   2
  -1  -3   2   47.32    3.34   2
   0  -3   2    0.77    1.60   2
   0  -3   2    3.83    0.91   1
   1  -3   2   72.51    4.50   2
   1  -3   2   74.37    3.67   1
   2  -3   2    8.50    2.19   2
   2  -3   2   11.62    2.07   1
   3  -3   2   40.18    3.76   1
   3  -3   2   42.58    4.35   2
  -4   3  -2  131.83    6.50   1
   4  -3   2  125.24    7.76   2
  -4   3  -2  123.91    6.02   4
  -5   3  -2    5.67    2.34   1
  -5   3  -2   10.37    2.60   4
   5  -3   2    2.57    2.13   2
  -6   3  -2  105.09    6.66   4
  -6   3  -2  105.16    6.89   1
  -7   3  -2   13.46    3.74   1
  -7   3  -2    9.69    3.30   4
  -8   3  -2   39.46    5.72   1
  -8   3  -2   40.66    5.58   4
  -9   3  -2    7.11    3.36   1
 -10   3  -2   81.36    8.44   1
 -11   3  -2  124.83   10.57   1
 -12  -2   2    5.18    3.66   1
 -11  -2   2    3.15    3.11   1
 -10  -2   2    3.67    2.69   1
  -9  -2   2   20.93    4.00   1
  -8  -2   2   59.35    5.49   1
  -7  -2   2   23.38    3.51   1
  -6  -2   2    9.27    2.34   1
  -5  -2   2    8.56    1.98   1
  -4  -2   2  769.67   19.93   1
  -3  -2   2  122.94    4.59   1
  -2  -2   2   86.81    3.33   1
  -2  -2   2   89.27    4.59   2
  -1  -2   2  276.00    9.00   2
   0  -2   2    8.85    1.63   2
   0  -2   2    8.37    1.03   1
   1  -2   2  186.44    7.11   2
   1  -2   2  191.13    6.32   1
   2  -2   2   85.10    4.43   1
   2  -2   2   83.59    4.87   2
   3  -2   2  116.89    5.96   1
   3  -2   2  118.38    6.58   2
   4  -2   2   78.04    5.77   2
   4  -2   2   78.42    5.26   1
  -6   2  -2  148.60    7.97   1
  -6   2  -2  153.13    7.84   4
  -7   2  -2   21.88    4.19   1
  -7   2  -2   33.91    4.72   4
  -8   2  -2   23.93    4.56   4
  -8   2  -2   20.83    4.51   1
  -9   2  -2    6.90    3.54   1
  -9   2  -2    4.25    3.03   4
 -10   2  -2   13.17    4.57   1
 -11   2  -2   10.77    4.59   1
 -12   2  -2   35.37    7.16   1
 -12  -1   2   27.72    5.93   1
 -11  -1   2   30.78    5.74   1
 -10  -1   2   20.57    4.62   1
  -9  -1   2   -2.09    2.01   1
  -8  -1   2   98.54    6.99   1
  -7  -1   2   40.72    4.50   1
  -6  -1   2   52.26    4.36   1
  -5  -1   2   49.70    3.89   1
  -4  -1   2   31.95    2.88   1
  -3  -1   2  120.42    4.79   1
  -2  -1   2   23.70    1.96   1
  -1  -1   2  222.03    5.97   1
  -1  -1   2  211.74    7.09   2
   0  -1   2    4.16    1.09   2
   0  -1   2    1.76    0.67   1
   1  -1   2   64.74    3.34   2
   1  -1   2   61.06    2.90   1
   2  -1   2  210.93    8.02   2
   2  -1   2  212.21    7.39   1
   3  -1   2  167.43    7.50   2
   3  -1   2  157.53    6.85   1
   4  -1   2   82.78    5.31   1
   4  -1   2   74.54    5.35   2
   5  -1   2  146.04    7.79   1
  -6   1  -2  203.19    9.39   1
  -6   1  -2  226.29    9.20   4
  -7   1  -2   37.91    4.75   1
  -7   1  -2   35.99    4.55   4
  -8   1  -2   54.90    5.96   4
  -8   1  -2   42.90    5.67   1
  -9   1  -2    0.63    2.48   4
  -9   1  -2    1.25    2.95   1
 -10   1  -2   18.63    4.55   4
 -10   1  -2   15.53    4.46   1
 -11   1  -2   -0.16    2.94   1
 -12   1  -2   18.89    5.38   1
 -12   0   2    2.31    3.63   1
 -11   0   2    1.15    3.16   1
 -10   0   2   24.65    4.97   1
  -9   0   2   25.87    4.76   1
  -8   0   2    6.64    2.77   1
  -7   0   2    3.79    2.33   1
  -6   0   2    1.32    1.75   1
  -5   0   2   76.66    4.93   1
  -4   0   2  888.79   23.38   1
  -3   0   2   52.39    3.21   1
  -2   0   2  197.70    6.39   1
  -1   0   2  585.14   14.39   1
   0   0   2  493.92   12.25   1
   1   0   2    8.06    1.11   1
   2   0   2 1126.27   29.89   2
   2   0   2 1133.45   27.70   1
  -2   0  -2 1138.14   28.75   3
   3   0   2   92.26    5.08   2
   3   0   2   87.04    4.70   1
   4   0   2   98.99    5.57   1
   5   0   2  102.50    6.45   1
   6   0   2    5.69    2.27   1
  -7   0  -2    7.34    2.49   4
  -7   0  -2    4.51    2.47   1
  -8   0  -2   35.39    4.91   4
  -8   0  -2   38.32    5.04   1
  -9   0  -2   38.72    5.70   1
  -9   0  -2   31.76    5.17   4
 -10   0  -2   27.11    5.05   4
 -10   0  -2   23.05    5.18   1
 -11   0  -2    2.38    3.22   1
 -12   0  -2    3.98    3.92   1
 -12   1   2    3.05    3.79   1
 -11   1   2    2.68    3.27   1
 -10   1   2    5.55    3.43   1
  -9   1   2   -1.06    2.38   1
  -8   1   2   46.42    5.59   1
  -7   1   2   89.18    6.56   1
  -6   1   2   58.36    4.94   1
  -5   1   2    3.03    1.85   1
  -4   1   2   59.38    4.15   1
  -3   1   2   81.29    4.26   1
  -2   1   2   49.34    3.06   1
  -1   1   2  769.59   18.90   1
   0   1   2    0.39    0.68   1
   0  -1  -2    0.92    1.04   3
   1   1   2  172.81    5.24   1
  -1  -1  -2  166.69    5.61   3
  -2  -1  -2   50.29    2.76   3
   2   1   2   51.38    2.85   1
   3   1   2  199.71    7.40   1
   4   1   2    4.63    1.67   1
   5   1   2  167.51    8.08   1
   6   1   2  129.63    7.55   1
  -8  -1  -2    0.96    2.36   1
  -8  -1  -2    3.98    2.47   4
  -9  -1  -2    3.84    2.82   1
  -9  -1  -2    0.76    2.55   4
 -10  -1  -2    5.95    3.48   1
 -10  -1  -2    1.45    2.73   4
 -11  -1  -2   37.58    6.43   1
 -12  -1  -2    7.76    4.08   1
 -11   2   2   -0.08    3.31   1
 -10   2   2    6.62    3.76   1
  -9   2   2   56.47    6.62   1
  -8   2   2   28.58    4.90   1
  -7   2   2   21.92    4.20   1
  -6   2   2   28.59    4.09   1
  -5   2   2  262.32   10.49   1
  -4   2   2  228.14    8.96   1
  -3   2   2    2.29    1.33   1
  -2   2   2  152.51    5.88   1
  -1   2   2  243.77    7.58   1
   0  -2  -2   60.98    2.76   2
   0  -2  -2   67.41    3.67   3
   0   2   2   65.70    2.94   1
  -1  -2  -2  130.73    5.10   3
   1   2   2  133.67    4.51   1
   2   2   2  114.76    4.39   1
  -2  -2  -2  115.09    4.93   3
   3   2   2  113.80    4.98   1
   4   2   2  149.16    6.62   1
   5   2   2  133.78    6.88   1
   6   2   2    0.55    1.60   1
   7   2   2    8.21    2.72   1
  -8  -2  -2  130.20    8.01   1
  -8  -2  -2  131.16    7.60   4
  -9  -2  -2   21.80    4.40   1
  -9  -2  -2   25.05    4.56   4
 -10  -2  -2   23.79    4.85   4
 -10  -2  -2   13.00    4.27   1
 -11  -2  -2   -1.83    2.93   1
 -11  -2  -2   -2.04    2.45   4
 -12  -2  -2   10.67    4.37   1
 -13  -2  -2   25.01    6.29   1
 -11   3   2   32.41    6.69   1
 -10   3   2   18.52    5.02   1
  -9   3   2    0.07    2.76   1
  -8   3   2   24.47    4.57   1
  -7   3   2  142.03    8.74   1
  -6   3   2  118.30    7.44   1
  -5   3   2    7.45    2.40   1
  -4   3   2  306.64   11.10   1
  -3   3   2  336.12   11.18   1
  -2   3   2  137.59    5.79   1
   1  -3  -2 1291.79   34.67   2
   1  -3  -2 1293.24   34.86   3
  -1   3   2 1317.43   31.35   1
   0  -3  -2  564.10   16.59   3
   0   3   2  562.66   14.61   1
   0  -3  -2  575.90   15.81   2
   1   3   2    1.10    0.96   1
  -1  -3  -2    2.08    1.62   3
  -2  -3  -2   13.42    1.39   2
  -2  -3  -2   12.10    2.19   3
   3   3   2    5.29    1.17   1
   4   3   2    6.10    1.56   1
   5   3   2  634.75   18.87   1
   6   3   2  474.23   16.13   1
   7   3   2  131.61    7.89   1
  -9  -3  -2    9.14    3.11   4
  -9  -3  -2   10.86    3.36   1
 -10  -3  -2   49.19    6.14   4
 -10  -3  -2   42.97    6.11   1
 -11  -3  -2   55.47    6.75   4
 -11  -3  -2   51.27    7.07   1
 -12  -3  -2    7.40    3.96   1
 -13  -3  -2   10.92    5.06   1
 -11   4   2    1.21    3.23   1
 -10   4   2    8.81    4.22   1
  -9   4   2  120.20    9.35   1
  -8   4   2    4.96    3.12   1
  -7   4   2    9.33    3.13   1
  -6   4   2   23.15    4.15   1
  -5   4   2   73.11    5.50   1
  -4   4   2  291.24   11.05   1
  -3   4   2   21.12    2.94   1
  -2   4   2   68.01    4.17   1
   2  -4  -2   67.35    4.83   2
  -1   4   2   61.56    3.59   1
   1  -4  -2   66.73    4.57   3
   1  -4  -2   57.97    3.99   2
   0  -4  -2  466.67   13.84   2
   0   4   2  454.63   12.51   1
   0  -4  -2  466.48   14.52   3
  -1  -4  -2  345.17   10.18   2
  -1  -4  -2  340.06   11.52   3
  -2  -4  -2   45.16    3.70   3
  -2  -4  -2   52.95    2.89   2
   2   4   2   57.01    2.82   1
  -3  -4  -2  627.64   17.45   2
   3   4   2  630.47   16.48   1
  -3  -4  -2  625.03   18.98   3
   4   4   2   95.40    4.65   1
   5   4   2    0.40    0.59   1
   6   4   2   25.99    3.55   1
   7   4   2  281.43   12.14   1
   8   4   2  181.92    9.72   1
  -9  -4  -2   46.93    5.19   4
  -9  -4  -2   48.92    5.46   1
 -10  -4  -2   42.21    5.50   4
 -10  -4  -2   38.39    5.55   1
 -11  -4  -2   -2.06    2.45   4
 -11  -4  -2    0.99    3.26   1
 -12  -4  -2    7.05    4.14   1
 -10   5   2    6.45    3.69   1
  -9   5   2    4.30    3.35   1
  -8   5   2    0.14    2.81   1
  -7   5   2   92.77    7.46   1
  -6   5   2   62.84    6.12   1
  -5   5   2   20.71    3.81   1
  -4   5   2    9.33    2.73   1
  -3   5   2  361.95   12.36   1
   3  -5  -2  337.83   14.19   2
   2  -5  -2 1301.56   36.97   2
  -2   5   2 1292.97   32.58   1
   1  -5  -2  320.53   11.58   3
  -1   5   2  318.71   10.15   1
   1  -5  -2  306.71   11.58   2
   0  -5  -2    9.10    1.85   2
   0   5   2    6.78    1.50   1
   0  -5  -2    6.55    2.11   3
  -1  -5  -2    7.07    2.20   3
  -1  -5  -2    6.55    1.51   2
   1   5   2    2.58    0.82   1
   2   5   2  172.20    5.89   1
  -2  -5  -2  156.43    7.33   3
  -2  -5  -2  172.48    6.26   2
  -3  -5  -2    1.94    1.26   2
   3   5   2    4.74    1.17   1
  -3  -5  -2    2.55    1.77   3
  -4  -5  -2  115.59    5.46   2
   4   5   2  116.76    5.17   1
  -5  -5  -2  300.17   11.15   2
   5   5   2  332.36   10.99   1
   6   5   2  236.48    9.65   1
   7   5   2    2.50    1.38   1
   8   5   2   49.71    5.18   1
  -9  -5  -2    5.34    2.79   1
  -9  -5  -2    8.89    2.86   4
 -10  -5  -2   51.24    5.99   1
 -10  -5  -2   48.05    5.72   4
 -11  -5  -2   34.43    5.49   4
 -11  -5  -2   37.13    5.96   1
 -10   6   2    9.58    4.61   1
  -9   6   2    5.58    3.70   1
  -8   6   2    0.18    2.65   1
  -7   6   2    7.88    3.04   1
  -6   6   2   33.64    5.03   1
  -5   6   2  225.31   10.78   1
  -4   6   2  225.80   10.15   1
  -3   6   2    0.29    1.72   1
   3  -6  -2   -0.64    1.45   2
   2  -6  -2   15.13    3.13   2
  -2   6   2   10.58    2.39   1
  -1   6   2  222.60    8.43   1
   1  -6  -2  229.81    9.65   3
   1  -6  -2  226.60    9.82   2
   0  -6  -2 1305.83   35.17   2
   0  -6  -2 1261.66   35.49   3
   0   6   2 1262.77   31.22   1
  -1  -6  -2  340.31   12.44   3
   1   6   2  344.29   10.13   1
  -1  -6  -2  340.57   11.44   2
   2   6   2   51.26    2.99   1
  -2  -6  -2   56.62    4.70   3
  -2  -6  -2   41.60    3.19   2
  -3  -6  -2  163.78    8.17   3
  -3  -6  -2  170.49    6.82   2
   3   6   2  163.11    5.85   1
   4   6   2  192.24    6.84   1
  -4  -6  -2  186.21    7.55   2
  -4  -6  -2  175.78    8.68   3
  -5  -6  -2  170.16    7.69   2
   5   6   2  176.59    7.23   1
   6   6   2    5.44    1.96   1
  -6  -6  -2    7.60    2.30   2
  -7  -6  -2   47.15    4.84   2
   7   6   2   54.85    4.90   1
   8   6   2   62.58    5.70   1
  -8  -6  -2   62.27    5.84   2
  -9  -6  -2  306.65   12.81   1
  -9  -6  -2  324.64   12.28   4
 -12  -6  -2    0.53    3.58   2
 -13  -6  -2   16.17    6.38   2
  -9   7   2   -0.42    2.85   1
  -8   7   2   18.41    4.75   1
  -7   7   2   25.25    4.98   1
  -6   7   2   25.91    4.62   1
  -5   7   2   60.87    6.12   1
  -4   7   2   37.75    4.70   1
   3  -7  -2  189.92   10.61   2
  -3   7   2  190.42    8.82   1
  -2   7   2   32.39    3.65   1
   2  -7  -2   30.76    4.34   2
   1  -7  -2   11.43    2.96   3
  -1   7   2    8.24    2.16   1
   1  -7  -2    4.53    2.02   2
   0  -7  -2   23.66    3.64   3
   0   7   2   10.22    1.86   1
   0  -7  -2   15.68    2.83   2
  -1  -7  -2  471.99   16.64   3
  -1  -7  -2  494.35   15.93   2
   1   7   2  502.61   13.81   1
  -2  -7  -2  105.05    6.74   3
  -2  -7  -2  104.24    5.54   2
   2   7   2  110.01    4.72   1
   3   7   2   77.40    3.79   1
  -3  -7  -2   83.17    5.94   3
  -3  -7  -2   79.45    4.66   2
  -4  -7  -2  157.69    8.42   3
   4   7   2  147.42    5.82   1
  -4  -7  -2  145.51    6.70   2
   5   7   2   30.66    2.85   1
  -5  -7  -2   28.27    3.33   2
   6   7   2  215.57    8.72   1
  -6  -7  -2  223.44    9.78   2
   7   7   2  171.56    8.24   1
  -7  -7  -2  185.90    9.27   2
  -8  -7  -2   54.55    5.69   2
   8   7   2   59.23    5.46   1
  -9  -7  -2   12.00    3.82   2
 -10  -7  -2   38.06    6.03   2
 -11  -7  -2  107.24    9.45   2
 -12  -7  -2   35.87    7.16   2
  -9   8   2   -1.82    1.83   1
  -8   8   2   13.18    3.98   1
  -7   8   2    5.59    3.14   1
  -6   8   2   54.55    6.50   1
  -5   8   2   36.80    5.19   1
  -4   8   2   57.22    5.55   1
   4  -8  -2   45.83    6.53   2
   3  -8  -2   13.37    3.68   2
  -3   8   2    6.20    2.68   1
   2  -8  -2   -0.47    1.79   2
  -2   8   2    1.52    1.85   1
   2  -8  -2    3.18    1.48   3
   1  -8  -2   80.46    6.36   3
  -1   8   2   93.81    5.56   1
   1  -8  -2  100.47    6.78   2
   0  -8  -2  182.64    9.18   3
   0  -8  -2  169.17    8.69   2
   1   8   2  425.69   12.78   1
  -1  -8  -2  426.52   15.87   3
  -1  -8  -2  447.00   15.28   2
   2   8   2  280.61    9.07   1
  -2  -8  -2  278.00   10.82   2
  -2  -8  -2  277.94   12.19   3
   3   8   2    6.97    1.46   1
  -3  -8  -2    5.29    2.76   3
  -3  -8  -2    6.29    2.18   2
   4   8   2   79.22    3.92   1
  -4  -8  -2   82.20    6.43   3
  -4  -8  -2   71.55    5.03   2
  -5  -8  -2   53.05    5.74   3
  -5  -8  -2   51.38    4.45   2
   5   8   2   61.76    3.78   1
  -6  -8  -2   -0.07    1.88   2
   6   8   2    4.65    1.44   1
  -7  -8  -2   69.15    5.72   2
  -8  -8  -2   89.17    6.92   2
  -9  -8  -2  159.09    9.72   2
 -10  -8  -2   33.42    5.70   2
 -11  -8  -2    4.19    3.58   2
  -9   9   2    0.86    2.40   1
  -7   9   2   12.69    4.03   1
  -6   9   2    9.92    3.62   1
  -5   9   2    4.03    2.69   1
   4  -9  -2   66.64    7.84   2
  -4   9   2   67.46    6.26   1
   3  -9  -2   24.03    4.84   2
  -3   9   2   12.81    3.46   1
  -2   9   2  297.77   11.60   1
   2  -9  -2  260.20   12.23   3
   2  -9  -2  289.41   13.97   2
   1  -9  -2  210.11   10.51   3
  -1   9   2  223.88    9.28   1
   1  -9  -2  205.08   10.85   2
   0   9   2    1.61    1.07   1
   0  -9  -2    3.32    2.67   3
   0  -9  -2    6.49    2.46   2
  -1  -9  -2  139.12    8.21   3
  -1  -9  -2  134.56    7.65   2
   1   9   2  134.13    6.06   1
   2   9   2  169.58    6.70   1
  -2  -9  -2  174.65    9.46   3
  -2  -9  -2  169.86    8.25   2
  -3  -9  -2  222.02    9.61   2
  -3  -9  -2  223.39   11.39   3
   3   9   2  226.70    7.77   1
  -4  -9  -2   97.79    6.05   2
   4   9   2   93.47    4.40   1
  -4  -9  -2   91.51    7.27   3
  -5  -9  -2    9.02    2.84   2
  -5  -9  -2   16.72    4.10   3
  -6  -9  -2   55.58    6.48   3
  -6  -9  -2   57.65    5.06   2
  -7  -9  -2   39.84    4.92   2
  -8  -9  -2    7.40    2.91   2
  -9  -9  -2    8.72    3.42   2
 -10  -9  -2   26.95    5.18   2
  -8  10   2   -1.91    1.97   1
  -7  10   2    1.11    2.94   1
  -6  10   2   10.51    3.68   1
  -5  10   2   92.78    7.67   1
  -4  10   2  150.47    9.16   1
   4 -10  -2  148.31   11.18   2
   3 -10  -2   18.08    4.48   2
  -3  10   2   16.28    3.72   1
   2 -10  -2    9.90    3.77   2
   2 -10  -2    6.41    3.62   3
  -2  10   2   10.38    3.19   1
   1 -10  -2  105.71    7.80   3
   1 -10  -2  125.98    8.68   2
  -1  10   2  124.27    6.91   1
   0 -10  -2  273.66   12.90   3
   0  10   2  284.02   10.42   1
   0 -10  -2  275.55   12.84   2
  -1 -10  -2   53.19    5.45   2
   1  10   2   59.93    4.29   1
  -1 -10  -2   60.03    6.26   3
   2  10   2    5.11    1.61   1
  -2 -10  -2    0.93    1.66   2
  -2 -10  -2    3.53    3.01   3
  -3 -10  -2    0.61    2.79   3
  -3 -10  -2    1.56    2.31   2
   3  10   2    2.67    1.22   1
  -4 -10  -2   67.68    5.55   2
  -4 -10  -2   54.89    6.27   3
  -5 -10  -2   42.30    6.02   3
  -5 -10  -2   45.34    4.72   2
  -6 -10  -2    1.17    2.40   2
  -6 -10  -2    3.70    3.34   3
  -7 -10  -2    1.61    3.18   3
  -7 -10  -2    4.56    2.74   2
  -8 -10  -2   39.22    5.38   2
  -7  11   2   26.01    5.89   1
  -6  11   2   72.71    8.07   1
  -5  11   2   -0.64    2.60   1
   4 -11  -2   15.87    5.14   2
  -4  11   2   13.61    3.97   1
   3 -11  -2  166.71   11.78   2
  -3  11   2  173.68    9.79   1
  -2  11   2   72.72    6.16   1
   2 -11  -2   88.85    7.55   3
   2 -11  -2   89.63    8.28   2
   1 -11  -2   13.40    4.10   2
   1 -11  -2    2.35    2.78   3
  -1  11   2    9.78    2.83   1
   0  11   2    8.66    2.63   1
   0 -11  -2    8.76    4.05   3
   0 -11  -2    6.15    2.84   2
  -1 -11  -2   66.12    6.88   3
   1  11   2   68.75    4.75   1
  -1 -11  -2   60.76    6.21   2
  -2 -11  -2  236.37   11.39   2
  -2 -11  -2  238.53   12.64   3
  -3 -11  -2   69.18    6.04   2
  -3 -11  -2   71.12    7.45   3
  -4 -11  -2   30.50    4.43   2
  -4 -11  -2   24.17    5.26   3
  -5 -11  -2   -0.57    2.37   2
  -5 -11  -2    0.31    2.93   3
  -6 -11  -2   64.30    5.99   2
  -6 -11  -2   58.25    7.33   3
  -7 -11  -2   21.61    5.27   3
  -7 -11  -2   20.92    4.03   2
  -8 -11  -2   22.89    5.44   3
  -9 -11  -2    7.60    4.02   3
 -10 -11  -2    8.44    4.48   3
 -12 -11  -2   23.35    6.67   3
  -7  12   2    9.33    4.31   1
  -6  12   2   10.51    4.05   1
  -5  12   2   53.54    6.99   1
   4 -12  -2  103.18   10.85   2
  -4  12   2   97.57    7.95   1
  -3  12   2   41.74    5.59   1
   3 -12  -2   52.34    7.87   2
   2 -12  -2    2.99    3.30   2
  -2  12   2    6.75    3.02   1
   1 -12  -2   41.26    6.31   2
   0 -12  -2   37.12    6.03   3
   0  12   2   47.81    4.64   1
   0 -12  -2   34.60    5.69   2
  -1 -12  -2    5.51    3.88   3
  -1 -12  -2    2.94    2.58   2
  -2 -12  -2   36.48    5.89   3
  -2 -12  -2   35.98    5.22   2
  -3 -12  -2   36.79    5.00   2
  -3 -12  -2   25.52    5.45   3
  -4 -12  -2   56.64    7.27   3
  -4 -12  -2   55.97    5.78   2
  -5 -12  -2   94.01    7.09   2
  -5 -12  -2   88.25    8.24   3
  -6 -12  -2   13.68    4.61   3
  -7 -12  -2   23.84    5.58   3
  -8 -12  -2   81.84    8.96   3
  -9 -12  -2   36.08    6.86   3
 -10 -12  -2    5.98    4.18   3
 -11 -12  -2    4.71    4.26   3
 -12 -12  -2   25.09    6.79   3
  -6  13   2   16.00    4.70   1
  -5  13   2    2.01    2.94   1
   4 -13  -2   -1.08    3.93   2
  -4  13   2    8.26    3.43   1
   3 -13  -2   89.31   10.14   2
  -3  13   2  109.45    7.96   1
   2 -13  -2   28.27    6.24   2
  -2  13   2   29.61    4.78   1
  -1  13   2  187.42    9.51   1
   1 -13  -2  243.06   13.91   2
   0 -13  -2   11.64    4.15   3
   0 -13  -2    9.73    3.69   2
  -1 -13  -2   34.82    5.77   2
  -1 -13  -2   40.78    6.32   3
  -2 -13  -2   49.79    6.71   3
  -2 -13  -2   49.10    6.08   2
  -3 -13  -2  172.05   11.49   3
  -3 -13  -2  172.17    9.97   2
  -4 -13  -2   46.74    5.78   2
  -4 -13  -2   56.60    7.48   3
  -5 -13  -2    4.83    3.81   3
  -6 -13  -2   40.34    6.78   3
  -7 -13  -2    0.44    3.18   3
  -8 -13  -2   -0.01    3.06   3
  -9 -13  -2   14.52    5.20   3
 -10 -13  -2   17.68    5.53   3
 -11 -13  -2   28.75    6.62   3
 -12 -13  -2   10.30    5.16   3
  -5  14   2    1.11    2.99   1
  -4  14   2    1.55    2.64   1
   4 -14  -2   10.88    4.46   2
  -3  14   2   13.13    3.74   1
   3 -14  -2   11.30    4.69   2
   2 -14  -2    9.63    4.33   2
   1 -14  -2   45.11    7.36   2
   0 -14  -2  196.07   12.32   3
   0 -14  -2  224.35   13.43   2
  -1 -14  -2   89.17    8.71   2
  -1 -14  -2   66.95    7.96   3
  -2 -14  -2    0.45    3.22   3
  -2 -14  -2    2.71    3.12   2
  -3 -14  -2   20.96    5.36   3
  -4 -14  -2   19.20    5.27   3
  -5 -14  -2   87.88    9.40   3
  -6 -14  -2   18.64    5.41   3
  -7 -14  -2    1.52    3.51   3
  -8 -14  -2    8.41    4.33   3
  -9 -14  -2   10.93    5.12   3
 -10 -14  -2    6.49    4.59   3
 -11 -14  -2   -0.47    4.06   3
   4 -15  -2    7.69    4.86   2
   3 -15  -2   -0.14    3.55   2
   2 -15  -2   35.23    6.93   2
   1 -15  -2   35.44    6.74   2
   0 -15  -2    3.70    3.58   2
  -1 -15  -2    3.27    3.76   3
  -2 -15  -2    9.69    4.37   3
  -3 -15  -2    3.56    3.75   3
  -4 -15  -2    6.74    4.40   3
  -5 -15  -2    4.42    4.11   3
  -6 -15  -2   21.14    6.16   3
  -7 -15  -2   12.33    5.03   3
  -8 -15  -2   10.95    4.72   3
  -9 -15  -2   -2.30    3.68   3
 -10 -15  -2    5.64    4.64   3
 -11 -15  -2   21.43    6.76   3
   3 -16  -2    7.36    4.26   2
  -1 -16  -2   28.30    6.44   3
  -2 -16  -2   22.41    6.04   3
  -3 -16  -2    2.13    3.60   3
  -4 -16  -2   17.53    5.56   3
  -5 -16  -2    4.19    4.15   3
  -6 -16  -2    0.20    3.55   3
  -7 -16  -2    0.25    3.38   3
  -8 -16  -2   -1.31    3.83   3
  -9 -16  -2   18.85    5.95   3
 -10 -16  -2    1.37    4.31   3
  -2 -17  -2   30.57    6.71   3
  -3 -17  -2   26.02    6.52   3
  -4 -17  -2   28.71    7.06   3
  -5 -17  -2    1.68    4.08   3
  -6 -17  -2   32.12    7.28   3
  -7 -17  -2   34.15    7.56   3
  -8 -17  -2   -0.80    3.78   3
  -9 -17  -2    2.76    2.92   3
  -3 -18  -2   16.28    5.69   3
  -4 -18  -2   27.92    6.76   3
  -5 -18  -2    2.19    5.18   3
  -6 -18  -2    2.86    4.08   3
  -7 -18  -2   -2.81    3.40   3
  -8 -18  -2   -0.31    3.08   3
  -3 -19  -2   10.49    5.36   3
  -4 -19  -2    3.55    5.25   3
  -5 -19  -2   -2.64    4.34   3
  -6 -19  -2    3.68    4.77   3
  -7 -19  -2   -4.68    2.87   3
  -4 -19   3   13.83    5.02   2
  -3 -19   3   26.57    6.60   2
  -2 -19   3    5.92    4.28   2
  -7 -18   3   68.41    9.37   3
  -6 -18   3   37.62    7.71   2
  -6 -18   3   45.07    7.81   3
  -5 -18   3    5.80    4.33   2
  -5 -18   3    7.96    4.32   3
  -4 -18   3    0.15    3.58   2
  -3 -18   3   16.21    5.43   2
  -2 -18   3   21.51    5.76   2
  -1 -18   3   12.45    5.21   2
   0 -18   3   19.05    6.09   2
   1 -18   3    0.93    3.81   2
  -9 -17   3    2.74    2.54   3
  -8 -17   3   29.23    7.01   2
  -8 -17   3    1.95    2.54   3
  -7 -17   3    4.12    4.46   2
  -7 -17   3    7.64    3.87   3
  -6 -17   3    0.97    3.43   2
  -6 -17   3   -0.41    3.45   3
  -5 -17   3   13.05    5.30   2
  -5 -17   3    8.03    3.97   3
  -4 -17   3   31.84    6.74   3
  -4 -17   3   28.01    6.74   2
  -3 -17   3    8.37    4.32   2
  -2 -17   3    4.43    4.29   2
  -1 -17   3    5.00    4.35   2
   0 -17   3   14.63    5.78   2
   1 -17   3    7.36    4.19   2
   2 -17   3   -0.04    4.33   2
  -9 -16   3   -4.54    3.50   2
  -8 -16   3   22.54    5.63   3
  -8 -16   3   23.24    5.88   2
  -7 -16   3   18.90    5.71   3
  -7 -16   3   30.99    6.76   2
  -6 -16   3   49.45    7.44   3
  -6 -16   3   52.41    7.95   2
  -5 -16   3  160.21   11.74   2
  -5 -16   3  149.46   11.23   3
  -4 -16   3   21.43    5.64   3
  -4 -16   3   22.65    6.08   2
  -3 -16   3    1.54    3.23   3
  -3 -16   3    6.50    4.06   2
  -2 -16   3   15.17    5.09   2
  -1 -16   3    0.95    3.40   2
   0 -16   3    6.93    4.37   2
   1 -16   3    1.21    3.48   2
   2 -16   3   12.06    5.43   2
   3 -16   3    1.99    3.52   2
 -10 -15   3    6.86    4.94   2
  -9 -15   3    0.43    3.82   2
  -8 -15   3   14.31    5.06   2
  -7 -15   3    2.45    3.96   2
  -6 -15   3    2.08    3.14   3
  -6 -15   3   -0.69    3.12   2
  -5 -15   3   35.65    6.41   3
  -5 -15   3   32.01    6.50   2
  -4 -15   3  110.36    9.57   2
  -4 -15   3   96.25    8.63   3
  -3 -15   3   88.72    8.08   3
  -3 -15   3   79.84    9.19   2
  -2 -15   3   19.43    5.40   2
  -1 -15   3   44.60    7.68   2
   0 -15   3   49.10    8.17   2
   1 -15   3   29.23    6.77   2
   2 -15   3    0.29    3.29   2
   3 -15   3    4.15    3.63   2
   4 -15   3    4.85    4.34   2
   5 -15   3    5.87    3.87   2
 -11 -14   3   -4.67    3.71   2
 -10 -14   3   23.01    6.48   2
  -9 -14   3    3.32    4.07   2
  -8 -14   3   18.82    5.52   2
  -7 -14   3   11.16    4.82   2
  -6 -14   3   69.64    8.15   2
  -5 -14   3    4.44    3.01   3
  -5 -14   3    2.03    3.62   2
  -4 -14   3    5.66    3.33   3
  -4 -14   3    0.80    3.17   2
  -3 -14   3    0.63    2.87   3
  -3 -14   3    0.48    2.99   2
  -2 -14   3   52.24    7.29   2
  -2 -14   3   37.07    5.80   3
  -1 -14   3    9.54    4.15   2
   0 -14   3   -0.10    3.19   2
   1 -14   3   43.22    7.69   2
   2 -14   3   45.39    8.20   2
   3 -14   3    4.79    3.73   2
   4 -14   3    7.29    4.53   2
   5 -14   3   -0.95    3.03   2
 -11 -13   3   15.88    5.75   2
 -10 -13   3   -3.58    2.82   2
  -9 -13   3   12.68    4.80   2
  -8 -13   3   -1.44    3.15   2
  -7 -13   3    8.74    4.08   2
  -6 -13   3   19.56    5.35   2
  -5 -13   3   43.64    6.52   2
  -4 -13   3   96.04    8.50   2
  -4 -13   3   85.81    7.58   3
  -3 -13   3   88.51    8.13   2
  -3 -13   3   99.46    7.91   3
  -2 -13   3   60.20    6.39   3
  -2 -13   3   50.29    7.15   2
  -1 -13   3   39.56    5.64   3
  -1 -13   3   31.02    5.81   2
   0 -13   3    1.63    3.21   2
   1 -13   3   65.22    8.58   2
   2 -13   3    2.77    3.46   2
   3 -13   3    7.45    4.33   2
   4 -13   3   14.43    4.95   2
   5 -13   3    5.77    3.86   2
   6 -13   3   -3.47    3.36   2
  -6  13  -3    6.07    3.62   1
 -11 -12   3   22.64    6.57   2
 -10 -12   3   30.36    6.90   2
  -9 -12   3    1.53    3.70   2
  -8 -12   3    0.00    3.23   2
  -7 -12   3   80.71    8.54   2
  -6 -12   3   27.36    5.54   2
  -5 -12   3    8.59    3.86   2
  -4 -12   3   22.17    4.98   2
  -3 -12   3   40.19    6.07   2
  -3 -12   3   39.15    5.48   3
  -2 -12   3   56.17    6.94   2
  -2 -12   3   61.08    6.43   3
  -1 -12   3   75.18    6.50   3
  -1 -12   3   84.50    8.23   2
   0 -12   3   85.39    8.72   2
   1 -12   3    5.40    3.52   2
   2 -12   3   28.06    5.93   2
   3 -12   3   90.95   10.05   2
  -4  12  -3   10.25    3.59   1
   4 -12   3   12.02    4.60   2
  -5  12  -3   15.07    3.78   1
   5 -12   3   11.93    5.19   2
  -6  12  -3    7.53    3.18   1
   6 -12   3   20.36    6.19   2
   7 -12   3   23.57    6.58   2
  -7  12  -3   15.55    4.66   1
 -12 -11   3    1.32    4.61   2
 -11 -11   3    3.34    4.23   2
 -10 -11   3   16.32    5.52   2
  -9 -11   3   -0.55    3.48   2
  -8 -11   3    8.09    3.99   2
  -7 -11   3   11.93    4.05   2
  -6 -11   3   16.11    4.65   2
  -5 -11   3   40.66    5.81   2
  -4 -11   3  127.84    8.99   2
  -3 -11   3   70.27    7.14   2
  -2 -11   3   13.20    4.13   2
  -2 -11   3   13.60    3.98   3
  -1 -11   3    6.89    3.60   2
  -1 -11   3    5.94    2.60   3
   0 -11   3    4.16    3.10   2
   0 -11   3    0.92    2.52   3
   1 -11   3   39.28    6.40   2
   2 -11   3    8.05    3.85   2
  -2  11  -3    9.71    2.79   1
  -3  11  -3    0.37    2.05   1
   3 -11   3    4.09    3.19   2
   4 -11   3   41.34    7.36   2
  -4  11  -3   40.92    5.24   1
   5 -11   3   72.02    9.58   2
  -5  11  -3   57.45    6.44   1
   6 -11   3    2.83    3.90   2
  -6  11  -3    4.24    3.12   1
  -7  11  -3    3.99    3.44   1
   7 -11   3   13.44    4.91   2
  -8  11  -3    6.74    4.04   1
 -12 -10   3   10.55    4.99   2
 -11 -10   3   36.68    7.70   2
 -10 -10   3   33.78    6.79   2
  -9 -10   3   17.00    5.22   2
  -8 -10   3   10.46    4.40   2
  -7 -10   3   53.61    6.86   2
  -6 -10   3   10.16    3.92   2
  -5 -10   3  130.81    9.09   2
  -4 -10   3    8.40    3.46   2
  -3 -10   3  154.69    9.45   2
  -2 -10   3   75.57    6.73   2
  -1 -10   3   99.78    7.81   2
   0 -10   3    1.56    2.46   2
   0 -10   3    1.68    2.40   3
   1 -10   3    9.86    3.92   2
  -1  10  -3   17.95    2.89   1
  -2  10  -3    1.78    2.05   1
   2 -10   3    4.30    3.14   2
   3 -10   3    5.94    3.33   2
  -3  10  -3    5.02    2.65   1
   4 -10   3    4.37    3.36   2
  -4  10  -3    4.39    2.74   1
  -5  10  -3   -0.39    2.36   1
   5 -10   3    2.77    3.14   2
   6 -10   3    8.10    3.94   2
  -6  10  -3    7.78    3.21   1
   7 -10   3   15.00    5.31   2
  -7  10  -3   13.26    4.08   1
  -8  10  -3    3.72    3.60   1
 -12  -9   3   18.23    6.13   2
 -11  -9   3   -3.82    3.05   2
 -10  -9   3    2.86    3.90   2
  -9  -9   3   76.29    8.58   2
  -8  -9   3  199.29   12.17   2
  -7  -9   3    4.13    3.30   2
  -6  -9   3    1.55    2.71   2
  -5  -9   3   66.97    6.13   2
  -4  -9   3   62.70    6.21   2
  -3  -9   3    5.71    2.82   2
  -2  -9   3    6.77    3.02   2
  -1  -9   3   31.23    4.76   2
   0  -9   3   28.50    3.73   3
   0   9  -3   36.74    3.00   1
   0  -9   3   29.21    4.76   2
   1  -9   3   98.17    7.80   2
   1  -9   3  104.68    6.18   3
  -1   9  -3  105.49    5.54   1
   2  -9   3   30.80    5.45   2
   3  -9   3    5.18    3.14   2
  -3   9  -3    3.14    2.23   1
   4  -9   3    4.57    3.25   2
  -4   9  -3    0.86    2.25   1
  -5   9  -3   41.96    5.38   1
   5  -9   3   35.86    6.87   2
  -6   9  -3   12.16    3.87   1
   6  -9   3   16.02    5.14   2
  -7   9  -3    3.59    3.25   1
   7  -9   3    6.29    4.08   2
  -8   9  -3   19.56    4.71   1
  -9   9  -3    0.67    2.36   1
 -12  -8   3   19.49    6.58   2
 -11  -8   3   55.90    8.95   2
 -10  -8   3   16.11    5.24   2
  -9  -8   3   15.89    4.78   2
  -8  -8   3   16.96    4.65   2
  -7  -8   3   44.01    6.12   2
  -6  -8   3    2.18    2.79   2
  -5  -8   3   69.76    6.21   2
  -4  -8   3   18.77    3.76   2
  -3  -8   3    6.96    2.75   2
  -2  -8   3  297.76   12.63   2
  -1  -8   3   47.01    5.00   2
   1   8  -3   44.51    2.58   1
   0  -8   3   11.67    2.62   3
   0   8  -3   16.52    2.10   1
   0  -8   3   19.88    3.85   2
   1  -8   3   10.70    3.26   2
  -1   8  -3   12.64    2.29   1
   1  -8   3    7.05    2.21   3
  -1   8  -3   11.14    2.09   4
  -3   8  -3    5.00    2.35   1
   3  -8   3   -0.33    2.12   2
  -3   8  -3    9.50    2.51   4
  -4   8  -3   53.00    5.31   1
   4  -8   3   48.88    6.77   2
  -4   8  -3   54.76    5.14   4
   5  -8   3   57.73    7.69   2
  -5   8  -3   63.62    6.02   1
   6  -8   3   44.69    7.46   2
  -6   8  -3   36.17    5.30   1
  -7   8  -3    7.39    3.52   1
   7  -8   3    8.20    4.18   2
  -8   8  -3   18.14    4.78   1
  -9   8  -3   -0.56    2.92   1
 -12  -7   3    4.48    4.46   2
 -11  -7   3    3.80    4.24   2
 -10  -7   3   -0.47    3.08   2
  -9  -7   3   84.68    8.95   2
  -8  -7   3   51.26    6.79   2
  -7  -7   3   16.41    4.31   2
  -6  -7   3   22.24    4.42   2
  -5  -7   3  144.31    8.57   2
  -4  -7   3   42.08    4.72   2
  -3  -7   3   16.45    3.39   2
  -2  -7   3   37.49    4.25   2
  -1  -7   3    2.70    2.19   2
   1   7  -3    2.97    0.87   4
   1   7  -3    2.01    0.90   1
   0   7  -3  396.30   11.33   1
   0  -7   3  382.37   15.11   2
   0   7  -3  390.36   10.90   4
   0  -7   3  398.09   13.11   3
  -1   7  -3  176.78    7.03   1
   1  -7   3  178.61    9.56   2
  -1   7  -3  184.52    6.89   4
   1  -7   3  193.24    7.70   3
  -2   7  -3    6.18    1.95   4
  -2   7  -3    6.77    2.12   1
   2  -7   3    4.34    2.51   2
   2  -7   3    7.58    1.97   3
   3  -7   3    9.96    3.26   2
  -3   7  -3   14.30    2.95   1
  -3   7  -3   15.11    2.96   4
  -4   7  -3   68.00    5.41   4
   4  -7   3   69.55    7.41   2
  -4   7  -3   68.76    5.61   1
  -5   7  -3    3.68    2.54   1
   5  -7   3    3.37    2.73   2
  -5   7  -3    2.15    2.34   4
   6  -7   3    6.38    3.49   2
  -6   7  -3    9.72    3.35   1
  -6   7  -3    8.10    3.06   4
   7  -7   3   35.80    6.75   2
  -7   7  -3   27.06    5.14   1
  -8   7  -3   23.34    5.06   1
  -9   7  -3    5.18    3.64   1
 -10   7  -3    0.32    2.23   1
 -12  -6   3    3.60    4.84   2
 -11  -6   3   11.12    4.98   2
 -10  -6   3   60.85    8.54   2
  -9  -6   3   38.76    6.57   2
  -8  -6   3    1.94    3.12   2
  -7  -6   3    1.57    2.85   2
  -6  -6   3   79.24    6.70   2
  -5  -6   3   75.31    3.66   1
  -5  -6   3   73.71    6.08   2
  -4  -6   3   28.12    1.73   1
  -4  -6   3   25.82    3.88   2
  -3  -6   3  135.78    7.33   2
  -2  -6   3  354.73   13.24   2
  -1  -6   3    6.10    2.32   2
   0  -6   3  127.03    7.16   2
   1  -6   3  380.39   14.68   2
   1  -6   3  395.58   12.11   3
  -2   6  -3  192.19    7.65   1
   2  -6   3  191.65    6.84   3
   2  -6   3  176.78    9.61   2
  -2   6  -3  195.06    7.31   4
  -3   6  -3   24.87    3.28   1
   3  -6   3   28.08    4.59   2
  -3   6  -3   29.62    3.37   4
   4  -6   3   13.11    3.77   2
  -4   6  -3   10.13    2.75   4
  -4   6  -3    9.54    2.71   1
  -5   6  -3   33.93    4.48   4
   5  -6   3   34.09    5.76   2
  -5   6  -3   34.98    4.67   1
  -6   6  -3  106.64    7.64   1
   6  -6   3  103.69    8.97   2
  -6   6  -3   98.76    6.98   4
  -7   6  -3   46.96    5.81   4
  -7   6  -3   61.10    6.57   1
  -8   6  -3   -0.24    2.71   1
  -9   6  -3    3.91    3.44   1
 -10   6  -3    0.81    2.64   1
 -12  -5   3    4.22    4.36   2
 -11  -5   3   -5.25    3.09   2
 -10  -5   3   26.13    6.30   2
  -9  -5   3   45.33    6.99   2
  -8  -5   3  122.10    9.26   2
  -7  -5   3   92.64    7.68   2
  -7  -5   3   87.91    5.20   1
  -6  -5   3   20.15    2.51   1
  -6  -5   3   26.18    4.46   2
  -5  -5   3   32.16    2.61   1
  -5  -5   3   33.36    4.41   2
  -4  -5   3   92.99    6.17   2
  -4  -5   3   98.98    3.88   1
  -3  -5   3   58.15    4.63   2
  -3  -5   3   52.55    2.26   1
  -2  -5   3   30.34    3.48   2
  -1  -5   3   86.53    3.26   1
  -1  -5   3   95.48    5.59   2
   0  -5   3   59.10    3.14   1
   0  -5   3   58.88    4.50   2
   1  -5   3    6.76    1.44   3
   1  -5   3    4.62    2.04   2
   1  -5   3    7.00    1.62   1
   2  -5   3   80.32    4.86   1
   2  -5   3   74.07    3.47   3
   2  -5   3   78.41    5.80   2
   3  -5   3  164.88    9.13   2
  -4   5  -3   54.94    4.45   4
   4  -5   3   69.86    6.25   2
  -4   5  -3   71.68    5.13   1
  -5   5  -3   44.20    4.78   1
  -5   5  -3   38.70    4.48   4
   5  -5   3   59.82    6.82   2
  -6   5  -3   65.53    6.05   4
  -6   5  -3   57.62    5.92   1
   6  -5   3   45.27    6.76   2
  -7   5  -3  145.46    8.83   4
  -7   5  -3  157.88    9.58   1
  -8   5  -3   40.03    6.01   1
  -8   5  -3   50.06    6.22   4
  -9   5  -3   54.29    7.09   1
 -10   5  -3   15.24    4.75   1
 -11   5  -3    3.25    3.98   1
 -12  -4   3    3.87    4.55   2
 -11  -4   3    1.59    3.94   2
  -9  -4   3   -0.43    1.95   1
  -8  -4   3   10.91    2.76   1
  -8  -4   3   13.59    4.30   2
  -7  -4   3  100.82    5.85   1
  -7  -4   3  105.84    8.00   2
  -6  -4   3  143.27    6.41   1
  -6  -4   3  139.73    8.53   2
  -5  -4   3    6.99    2.45   2
  -5  -4   3    8.71    1.75   1
  -4  -4   3   47.78    4.65   2
  -4  -4   3   48.85    2.94   1
  -3  -4   3   44.55    2.32   1
  -3  -4   3   40.49    3.81   2
  -2  -4   3   50.23    3.90   2
  -2  -4   3   39.32    1.89   1
  -1  -4   3  195.76    5.59   1
  -1  -4   3  197.93    8.17   2
   0  -4   3   78.05    4.91   2
   0  -4   3   71.37    3.34   1
   1  -4   3   17.54    2.19   1
   1  -4   3   19.67    2.90   2
   2  -4   3   17.44    2.53   1
   2  -4   3   19.69    3.24   2
   3  -4   3   79.86    5.88   2
   3  -4   3   82.21    5.37   1
   4  -4   3   55.81    5.75   2
   4  -4   3   58.43    4.83   1
  -5   4  -3   16.63    3.10   4
   5  -4   3   19.87    4.33   2
  -5   4  -3   16.96    3.37   1
  -6   4  -3  183.19    9.10   4
  -6   4  -3  188.95    9.59   1
   6  -4   3  182.63   11.40   2
  -7   4  -3  111.78    8.00   1
  -7   4  -3  124.62    8.02   4
  -8   4  -3    1.90    2.54   4
  -8   4  -3    1.76    2.82   1
  -9   4  -3    3.63    3.28   1
  -9   4  -3    7.41    3.56   4
 -10   4  -3   94.86    9.26   1
 -11   4  -3   31.06    6.81   1
 -10  -3   3   36.68    5.27   1
  -9  -3   3   29.07    4.42   1
  -8  -3   3    7.65    2.68   1
  -7  -3   3    6.27    2.31   1
  -6  -3   3    5.98    1.93   1
  -5  -3   3   35.39    4.23   2
  -5  -3   3   37.33    3.10   1
  -4  -3   3  329.23    9.97   1
  -4  -3   3  345.09   12.82   2
  -3  -3   3   60.09    4.45   2
  -3  -3   3   65.55    3.12   1
  -2  -3   3   24.14    1.73   1
  -2  -3   3   29.36    3.06   2
  -1  -3   3  241.49    6.51   1
  -1  -3   3  231.75    8.80   2
   0  -3   3  177.17    7.39   2
   0  -3   3  182.98    5.78   1
   1  -3   3  665.79   17.51   1
   1  -3   3  663.19   19.72   2
   2  -3   3   24.86    3.19   2
   2  -3   3   19.66    2.50   1
   3  -3   3   84.01    5.76   2
   3  -3   3   86.81    5.27   1
   4  -3   3   26.84    4.17   2
   4  -3   3   30.53    3.96   1
   5  -3   3  294.06   12.26   1
   5  -3   3  272.46   13.17   2
  -6   3  -3    1.04    2.08   1
  -6   3  -3    1.89    1.96   4
  -7   3  -3    8.95    3.17   1
  -7   3  -3   14.45    3.52   4
  -8   3  -3   37.46    5.53   4
  -8   3  -3   31.17    5.31   1
  -9   3  -3  110.26    8.87   1
  -9   3  -3  107.10    8.28   4
 -10   3  -3   27.59    5.75   4
 -10   3  -3   26.88    5.86   1
 -11   3  -3    4.56    3.97   1
 -11  -2   3    3.56    3.35   1
 -10  -2   3    3.90    3.01   1
  -9  -2   3    3.51    2.49   1
  -8  -2   3   52.31    5.22   1
  -7  -2   3  184.64    8.63   1
  -6  -2   3  229.03    9.19   1
  -5  -2   3  101.66    5.27   1
  -4  -2   3   26.69    2.53   1
  -3  -2   3   25.27    3.02   2
  -3  -2   3   29.40    2.31   1
  -2  -2   3    6.04    1.89   2
  -2  -2   3    9.17    1.36   1
  -1  -2   3    7.93    1.21   1
  -1  -2   3   10.88    2.02   2
   0  -2   3   14.99    1.44   1
   0  -2   3   14.74    2.19   2
   1  -2   3   26.48    2.74   2
   1  -2   3   24.18    2.12   1
   2  -2   3 1838.79   44.41   1
   2  -2   3 1858.05   48.68   2
   3  -2   3   82.06    4.99   1
   3  -2   3   88.28    5.63   2
   4  -2   3   70.45    5.49   2
   4  -2   3   79.58    5.35   1
   5  -2   3  145.08    8.25   1
   5  -2   3  159.61    9.14   2
   6  -2   3  105.74    7.27   1
  -7   2  -3   74.22    5.90   4
  -7   2  -3   66.21    6.17   1
  -8   2  -3   31.18    5.01   1
  -8   2  -3   33.31    5.14   4
  -9   2  -3    4.01    3.37   1
  -9   2  -3    9.31    3.47   4
 -10   2  -3   45.83    6.61   4
 -10   2  -3   44.58    6.92   1
 -11   2  -3   57.10    7.92   1
 -12   2  -3   24.20    6.37   1
 -12  -1   3    6.04    4.13   1
 -11  -1   3    0.62    2.96   1
 -10  -1   3   10.15    3.75   1
  -9  -1   3   30.67    4.97   1
  -8  -1   3   30.17    4.48   1
  -7  -1   3   12.89    3.07   1
  -6  -1   3   31.06    3.68   1
  -5  -1   3   13.03    2.45   1
  -4  -1   3  515.09   14.79   1
  -3  -1   3   13.45    1.89   1
  -2  -1   3    7.94    1.86   2
  -2  -1   3   10.76    1.55   1
  -1  -1   3  502.05   12.81   1
  -1  -1   3  487.56   14.40   2
   0  -1   3  448.10   11.61   1
   0  -1   3  445.20   12.99   2
   1  -1   3  329.16    9.56   1
   1  -1   3  340.58   10.46   2
   2  -1   3  193.54    7.53   2
   2  -1   3  193.32    7.04   1
   3  -1   3   12.66    2.28   1
   3  -1   3   13.78    2.51   2
   4  -1   3  136.67    6.93   1
   4  -1   3  134.74    7.34   2
   5  -1   3   87.87    6.05   1
   6  -1   3   78.30    6.26   1
  -8   1  -3  183.46   10.10   1
  -8   1  -3  173.16    9.60   4
  -9   1  -3   72.64    7.43   1
  -9   1  -3   80.37    7.59   4
 -10   1  -3   57.94    7.47   1
 -10   1  -3   60.28    7.15   4
 -11   1  -3    1.83    3.30   4
 -11   1  -3   -0.29    3.26   1
 -12   1  -3    3.39    4.36   1
 -12   0   3   -1.49    3.03   1
 -11   0   3    6.74    3.89   1
 -10   0   3   19.26    4.55   1
  -9   0   3   -1.83    2.39   1
  -8   0   3   14.22    3.72   1
  -7   0   3   68.18    5.87   1
  -6   0   3  190.16    8.80   1
  -5   0   3  120.11    6.34   1
  -4   0   3   -0.42    1.06   1
  -3   0   3  457.77   13.16   1
  -2   0   3   78.05    3.86   1
  -1   0   3  468.91   12.31   1
  -1   0   3  464.27   13.45   2
  -1   0  -3  190.83    6.32   3
   1   0   3  197.12    6.29   2
   1   0   3  191.77    6.23   1
  -2   0  -3   97.10    3.98   3
   2   0   3  114.79    4.76   1
   3   0   3   28.27    2.90   2
   3   0   3   28.73    2.93   1
  -3   0  -3   27.30    2.08   3
   4   0   3  302.54   11.13   1
   5   0   3   12.39    2.89   1
   6   0   3  142.67    8.33   1
   7   0   3   81.25    6.67   1
  -8   0  -3   -0.81    1.98   4
  -8   0  -3   -1.71    2.16   1
  -9   0  -3    2.07    2.46   4
  -9   0  -3   -0.01    2.42   1
 -10   0  -3   21.24    5.26   1
 -10   0  -3   16.71    4.46   4
 -11   0  -3   72.48    8.46   1
 -11   0  -3   78.20    8.15   4
 -12   0  -3   25.82    6.19   1
 -11   1   3    7.46    3.70   1
 -10   1   3    0.99    2.87   1
  -9   1   3   55.44    6.57   1
  -8   1   3    8.90    3.28   1
  -7   1   3   23.54    4.13   1
  -6   1   3   65.97    5.32   1
  -5   1   3  157.16    7.61   1
  -4   1   3  281.38   10.10   1
  -3   1   3   59.38    3.74   1
  -2   1   3   31.51    2.68   1
  -1   1   3    6.49    1.49   1
   0  -1  -3  255.44    8.73   3
   0   1   3  254.00    7.46   2
   0   1   3  269.25    7.85   1
   1   1   3 1181.93   28.22   1
  -1  -1  -3 1184.14   30.90   3
   2   1   3  435.88   12.77   2
  -2  -1  -3  471.18   13.11   3
   2   1   3  457.06   12.69   1
   3   1   3   18.85    2.39   1
  -3  -1  -3   26.64    2.39   3
   4   1   3  103.23    5.59   1
   5   1   3   58.97    4.68   1
   6   1   3   69.54    5.55   1
   7   1   3    2.48    2.06   1
  -9  -1  -3   47.36    5.82   4
  -9  -1  -3   48.23    5.95   1
 -10  -1  -3   35.17    5.99   1
 -10  -1  -3   42.16    5.95   4
 -11  -1  -3    2.87    2.99   4
 -11  -1  -3    0.82    3.37   1
 -12  -1  -3    2.07    3.85   1
 -11   2   3   44.03    7.11   1
 -10   2   3    2.72    3.38   1
  -9   2   3    4.19    3.21   1
  -8   2   3    6.70    3.08   1
  -7   2   3   22.21    4.19   1
  -6   2   3    4.99    2.56   1
  -5   2   3   45.55    4.51   1
  -4   2   3   20.25    2.98   1
  -3   2   3    2.02    1.35   1
  -2   2   3  128.25    5.59   1
  -1   2   3 1533.84   36.43   1
   0  -2  -3  220.43    8.45   3
   0   2   3  234.92    7.36   1
   1   2   3  512.01   13.61   1
  -1  -2  -3  513.02   15.07   3
   2   2   3   87.59    3.98   1
  -2  -2  -3   77.48    4.15   3
   3   2   3   89.84    4.56   1
  -3  -2  -3  103.68    4.87   3
   4   2   3    4.88    1.63   1
   5   2   3    4.34    1.72   1
   6   2   3  302.10   12.30   1
   7   2   3   51.07    5.57   1
   8   2   3    5.96    2.57   1
  -9  -2  -3    5.98    2.57   4
  -9  -2  -3    3.15    2.60   1
 -10  -2  -3   39.20    5.76   4
 -10  -2  -3   53.66    6.55   1
 -11  -2  -3   35.22    6.25   4
 -11  -2  -3   42.21    6.87   1
 -12  -2  -3   20.23    4.86   4
 -12  -2  -3   23.64    5.90   1
 -13  -2  -3    6.48    4.67   1
 -11   3   3   14.92    4.69   1
 -10   3   3   -1.87    2.88   1
  -9   3   3   42.61    6.41   1
  -8   3   3   -0.76    2.36   1
  -7   3   3   -1.39    2.23   1
  -6   3   3   13.69    3.28   1
  -5   3   3  308.29   12.09   1
  -4   3   3  316.22   11.61   1
  -3   3   3  154.13    6.84   1
  -2   3   3   33.14    2.99   1
   1  -3  -3  124.01    6.24   3
  -1   3   3  128.51    5.33   1
   0   3   3  279.08    8.68   1
   0  -3  -3  282.14   10.23   3
   1   3   3  334.77    9.88   1
  -1  -3  -3  332.91   11.19   3
  -2  -3  -3    1.48    1.69   3
   2   3   3    3.48    1.21   1
   3   3   3   60.30    3.54   1
  -3  -3  -3   55.42    3.95   3
   4   3   3  154.49    6.64   1
  -4  -3  -3  143.86    6.72   3
   5   3   3   31.43    3.58   1
   6   3   3   25.54    3.74   1
   7   3   3   24.47    4.01   1
   8   3   3    3.41    2.36   1
 -10  -3  -3   28.70    5.23   1
 -10  -3  -3   25.42    4.70   4
 -11  -3  -3    3.28    3.74   1
 -11  -3  -3   -0.86    2.78   4
 -12  -3  -3    5.46    4.29   1
 -12  -3  -3   -0.27    3.01   4
 -13  -3  -3   12.89    5.17   1
 -11   4   3   -1.01    3.30   1
 -10   4   3   29.24    5.95   1
  -9   4   3    7.81    3.78   1
  -8   4   3    2.06    2.88   1
  -7   4   3   72.27    6.89   1
  -6   4   3   19.91    4.04   1
  -5   4   3    9.12    2.80   1
  -4   4   3   90.27    5.86   1
  -3   4   3  129.86    6.55   1
  -2   4   3  408.07   12.85   1
   1  -4  -3    8.40    2.44   3
   1  -4  -3    8.81    1.95   2
  -1   4   3    4.42    1.48   1
   0   4   3  104.32    4.64   1
   0  -4  -3  104.20    4.66   2
   0  -4  -3  102.61    5.77   3
  -1  -4  -3  669.79   17.77   2
   1   4   3  669.24   17.54   1
  -1  -4  -3  663.00   19.80   3
  -2  -4  -3  264.97    9.97   3
   2   4   3  280.02    8.66   1
  -2  -4  -3  275.47    7.88   2
   3   4   3    5.87    1.38   1
  -3  -4  -3    6.39    2.07   3
  -3  -4  -3    9.67    1.37   2
  -4  -4  -3  329.50   12.01   3
   4   4   3  329.33   10.81   1
   5   4   3   12.70    2.47   1
   6   4   3    2.98    1.60   1
   7   4   3    2.19    1.81   1
   8   4   3    7.34    2.74   1
   9   4   3    0.13    1.71   1
 -10  -4  -3   46.26    5.77   4
 -10  -4  -3   44.78    5.97   1
 -11  -4  -3   89.60    8.54   1
 -11  -4  -3   89.21    8.21   4
 -12  -4  -3   34.96    6.57   1
 -12  -4  -3   45.36    6.78   4
 -10   5   3    2.64    3.68   1
  -9   5   3   21.82    5.17   1
  -8   5   3   66.32    7.45   1
  -7   5   3    8.12    3.34   1
  -6   5   3   44.17    5.52   1
  -5   5   3   76.28    6.20   1
  -4   5   3  239.44   10.21   1
  -3   5   3   31.51    3.72   1
  -2   5   3   83.13    5.09   1
   1  -5  -3  156.66    7.19   2
   1  -5  -3  148.20    7.65   3
  -1   5   3  155.07    6.50   1
   0   5   3    4.43    1.48   1
   0  -5  -3   11.40    2.68   3
   0  -5  -3    9.21    1.80   2
  -1  -5  -3  232.80    9.48   3
   1   5   3  229.29    7.82   1
  -1  -5  -3  234.80    7.90   2
   2   5   3    0.66    0.44   1
  -2  -5  -3   -1.24    1.55   3
  -2  -5  -3    0.39    0.90   2
  -3  -5  -3    0.94    1.73   3
   3   5   3    0.22    0.67   1
  -3  -5  -3    1.73    1.01   2
  -4  -5  -3  113.12    6.46   3
  -4  -5  -3  110.59    4.96   2
   4   5   3  101.80    5.02   1
  -5  -5  -3   20.53    2.49   2
  -5  -5  -3   25.78    3.65   3
   6   5   3    0.35    0.96   1
   7   5   3   88.53    6.13   1
   8   5   3   38.28    5.00   1
   9   5   3   27.40    4.63   1
 -10  -5  -3    1.14    2.61   1
 -10  -5  -3   -2.74    2.05   4
 -11  -5  -3   38.52    5.90   4
 -11  -5  -3   19.29    4.73   1
 -10   6   3   26.58    5.88   1
  -9   6   3    1.51    2.97   1
  -8   6   3   -1.97    2.37   1
  -7   6   3   24.18    4.89   1
  -6   6   3   22.48    4.31   1
  -5   6   3   -1.50    1.92   1
  -4   6   3  106.08    6.88   1
  -3   6   3  248.07   10.39   1
   2  -6  -3  255.45   11.49   2
  -2   6   3  268.92   10.26   1
   2  -6  -3  261.40   11.51   3
  -1   6   3  263.89    9.53   1
   1  -6  -3  263.84   11.16   3
   1  -6  -3  272.25   10.89   2
   0  -6  -3   18.89    2.68   2
   0  -6  -3   22.03    3.43   3
   0   6   3   24.63    2.69   1
   1   6   3  143.38    6.16   1
  -1  -6  -3  165.47    8.01   3
  -1  -6  -3  167.03    6.69   2
  -2  -6  -3  240.85   10.23   3
   2   6   3  230.16    8.08   1
  -2  -6  -3  253.23    8.40   2
  -3  -6  -3   41.57    4.37   3
   3   6   3   46.97    3.09   1
  -3  -6  -3   39.81    2.97   2
  -4  -6  -3  111.55    5.27   2
  -4  -6  -3  110.92    6.85   3
   4   6   3  106.32    5.11   1
  -5  -6  -3  266.17    9.78   2
  -5  -6  -3  257.18   11.43   3
   5   6   3  261.05    9.53   1
  -6  -6  -3    5.11    2.02   2
   6   6   3    5.47    1.88   1
  -7  -6  -3   47.80    4.53   2
   7   6   3   61.00    4.95   1
   8   6   3    0.78    1.22   1
   9   6   3   -0.52    1.42   1
 -10  -6  -3   32.58    5.11   1
 -10  -6  -3   43.02    5.26   4
  -9   7   3   32.92    6.45   1
  -8   7   3    6.05    3.41   1
  -7   7   3    3.07    3.06   1
  -6   7   3   14.48    3.79   1
  -5   7   3    9.40    3.18   1
  -4   7   3  213.17   10.43   1
   3  -7  -3   14.83    3.56   2
  -3   7   3   15.87    3.42   1
   2  -7  -3    4.31    2.12   2
   2  -7  -3    9.35    3.22   3
  -2   7   3    9.14    2.55   1
  -1   7   3  237.67    9.31   1
   1  -7  -3  254.15   10.92   2
   1  -7  -3  245.86   10.94   3
   0   7   3  757.28   20.92   1
   0  -7  -3  779.61   24.24   3
   0  -7  -3  778.18   23.47   2
  -1  -7  -3  144.94    7.88   3
  -1  -7  -3  137.48    6.60   2
  -2  -7  -3  124.06    5.69   2
  -2  -7  -3  115.33    7.13   3
   2   7   3  124.44    5.51   1
  -3  -7  -3  212.72   10.06   3
   3   7   3  197.24    7.30   1
  -3  -7  -3  195.86    7.66   2
  -4  -7  -3   75.25    4.52   2
   4   7   3   79.31    4.26   1
  -4  -7  -3   79.23    6.12   3
  -5  -7  -3  120.11    6.12   2
  -5  -7  -3  122.80    7.75   3
   5   7   3  126.97    5.99   1
   6   7   3   -0.45    1.19   1
  -6  -7  -3   -0.62    2.31   3
  -6  -7  -3   -0.91    1.58   2
  -7  -7  -3   72.48    5.50   2
   7   7   3   71.81    5.34   1
   8   7   3  115.14    7.14   1
  -8  -7  -3   96.99    6.96   2
   9   7   3   81.34    7.16   1
  -9  -7  -3   66.47    6.24   2
 -10  -7  -3   25.58    5.02   2
  -9   8   3    0.16    2.21   1
  -8   8   3   13.01    4.53   1
  -7   8   3   19.66    4.88   1
  -6   8   3   38.56    5.81   1
  -5   8   3   32.15    5.08   1
  -4   8   3    3.37    2.73   1
   3  -8  -3   89.92    7.29   2
  -3   8   3   85.07    6.39   1
   2  -8  -3  207.54   10.90   2
  -2   8   3  214.14    9.72   1
   2  -8  -3  210.80   10.84   3
  -1   8   3  294.46   10.89   1
   1  -8  -3  283.82   12.53   2
   1  -8  -3  286.91   12.66   3
   0  -8  -3    9.08    3.13   3
   0   8   3   15.59    2.56   1
   0  -8  -3   14.06    2.82   2
   1   8   3    7.34    1.56   1
  -1  -8  -3    6.96    2.88   3
  -1  -8  -3    4.02    1.89   2
  -2  -8  -3  256.16    9.78   2
  -2  -8  -3  235.70   11.28   3
   2   8   3  274.91    9.18   1
  -3  -8  -3   53.81    5.74   3
  -3  -8  -3   58.04    4.17   2
   3   8   3   50.33    3.42   1
   4   8   3    1.03    1.01   1
  -4  -8  -3    0.39    1.42   2
  -4  -8  -3    6.13    2.75   3
  -5  -8  -3   12.70    3.77   3
   5   8   3   18.33    2.47   1
  -5  -8  -3   17.52    2.82   2
   6   8   3  213.17    8.76   1
  -6  -8  -3  205.03    9.26   2
  -6  -8  -3  214.07   11.33   3
  -7  -8  -3   28.33    3.90   2
   7   8   3   28.26    3.62   1
  -7  -8  -3   33.16    5.44   3
  -8  -8  -3   -0.88    2.14   2
  -9  -8  -3    8.99    3.29   2
  -8   9   3    1.12    2.86   1
  -7   9   3    7.62    3.60   1
  -6   9   3   12.64    3.94   1
  -5   9   3   22.11    4.61   1
  -4   9   3    9.07    3.28   1
   3  -9  -3   48.71    6.45   2
  -3   9   3   38.86    5.00   1
  -2   9   3    8.44    2.93   1
   2  -9  -3    3.71    2.61   2
   2  -9  -3    8.84    3.41   3
  -1   9   3   86.17    5.68   1
   1  -9  -3   76.90    6.31   2
   1  -9  -3   79.45    7.03   3
   0   9   3  544.59   16.82   1
   0  -9  -3  546.45   19.39   2
   0  -9  -3  577.40   20.23   3
  -1  -9  -3   24.36    4.38   3
  -1  -9  -3   30.21    3.85   2
   1   9   3   29.72    3.14   1
   2   9   3   51.18    3.76   1
  -2  -9  -3   52.23    5.82   3
  -2  -9  -3   54.03    4.38   2
  -3  -9  -3   38.95    5.43   3
  -3  -9  -3   36.39    3.77   2
   3   9   3   36.97    3.15   1
  -4  -9  -3  189.09   10.74   3
   4   9   3  201.19    7.47   1
  -4  -9  -3  189.38    8.51   2
   5   9   3  250.86    9.16   1
  -5  -9  -3  244.22   10.28   2
  -5  -9  -3  264.68   12.87   3
  -6  -9  -3   46.97    4.49   2
  -6  -9  -3   48.90    6.32   3
  -7  -9  -3   29.41    4.19   2
  -7  -9  -3   29.77    5.43   3
  -8  -9  -3    7.53    3.01   2
  -8  -9  -3    3.48    3.40   3
  -9  -9  -3   78.19    8.32   3
 -12  -9  -3   63.35    8.85   3
  -8  10   3    2.34    2.35   1
  -7  10   3   13.40    4.65   1
  -6  10   3   74.73    7.97   1
  -5  10   3    3.71    2.75   1
  -4  10   3    5.59    2.99   1
  -3  10   3    0.04    2.10   1
   3 -10  -3    3.64    2.88   2
   2 -10  -3    0.77    2.22   2
  -2  10   3   -1.17    1.90   1
   2 -10  -3    1.92    2.84   3
   1 -10  -3   -1.82    2.98   3
   1 -10  -3   -0.76    2.03   2
  -1  10   3   -0.55    1.81   1
   0  10   3   -0.16    1.11   1
   0 -10  -3    6.41    3.44   3
   0 -10  -3    2.84    2.20   2
  -1 -10  -3   28.04    4.92   3
  -1 -10  -3   20.99    3.85   2
   1  10   3   28.46    3.33   1
  -2 -10  -3  138.54    7.63   2
   2  10   3  131.78    6.36   1
  -2 -10  -3  121.88    8.65   3
  -3 -10  -3  160.41   10.02   3
  -3 -10  -3  163.10    8.45   2
   3  10   3  167.96    7.01   1
  -4 -10  -3  141.99    7.76   2
  -4 -10  -3  162.54   10.28   3
   4  10   3  154.64    6.48   1
  -5 -10  -3    2.05    2.38   2
  -5 -10  -3    6.57    3.44   3
  -6 -10  -3  310.53   12.82   2
  -6 -10  -3  333.13   15.73   3
  -7 -10  -3   12.61    4.39   3
  -8 -10  -3   45.21    6.80   3
  -9 -10  -3   13.64    4.54   3
 -10 -10  -3   27.05    6.31   3
 -11 -10  -3   48.42    7.83   3
 -12 -10  -3   26.50    6.59   3
  -7  11   3    0.40    3.05   1
  -6  11   3   -2.43    2.76   1
  -5  11   3   39.34    6.14   1
  -4  11   3   73.64    7.40   1
   3 -11  -3   24.20    5.31   2
  -3  11   3   23.65    4.50   1
   2 -11  -3   -0.93    1.72   3
  -2  11   3    4.51    2.44   1
   2 -11  -3   -1.08    2.05   2
  -1  11   3    1.39    2.16   1
   1 -11  -3    4.77    2.62   2
   1 -11  -3   -0.71    3.23   3
   0 -11  -3   27.70    4.71   2
   0 -11  -3   23.56    5.19   3
  -1 -11  -3   42.65    5.99   3
  -1 -11  -3   47.44    5.49   2
   1  11   3   38.60    3.99   1
   2  11   3   82.33    5.20   1
  -2 -11  -3   85.16    6.41   2
  -2 -11  -3   80.97    7.56   3
  -3 -11  -3   13.22    4.21   3
  -3 -11  -3   10.19    2.86   2
  -4 -11  -3   30.72    5.91   3
  -4 -11  -3   40.16    4.58   2
  -5 -11  -3   70.91    7.81   3
  -6 -11  -3    1.19    3.55   3
  -7 -11  -3    1.17    3.05   3
  -8 -11  -3   19.45    5.24   3
  -9 -11  -3   25.70    5.91   3
 -10 -11  -3    5.74    4.30   3
 -11 -11  -3    2.29    3.99   3
 -12 -11  -3   27.02    6.50   3
  -7  12   3    0.28    3.73   1
  -6  12   3    8.59    4.48   1
  -5  12   3    2.43    2.99   1
  -4  12   3    5.31    3.16   1
  -3  12   3   83.37    7.00   1
   3 -12  -3   81.41    9.19   2
  -2  12   3   86.41    6.84   1
   2 -12  -3  113.63    9.27   2
   1 -12  -3    2.38    3.22   3
  -1  12   3    5.80    2.52   1
   1 -12  -3   11.40    3.70   2
   0 -12  -3    1.19    2.29   2
   0  12   3    3.63    1.89   1
   0 -12  -3   -3.50    2.74   3
   1  12   3   57.42    4.81   1
  -1 -12  -3   65.50    7.37   3
  -1 -12  -3   66.59    6.27   2
  -2 -12  -3   21.47    5.20   3
  -2 -12  -3   23.65    4.28   2
  -3 -12  -3   54.07    7.01   3
  -4 -12  -3   13.50    4.74   3
  -5 -12  -3    1.49    3.65   3
  -6 -12  -3   -2.52    2.86   3
  -7 -12  -3   58.83    7.91   3
  -8 -12  -3   21.97    5.98   3
  -9 -12  -3    5.20    4.20   3
 -10 -12  -3    1.38    3.95   3
 -11 -12  -3   18.07    5.82   3
 -12 -12  -3    8.82    5.08   3
  -6  13   3   12.63    3.73   1
  -5  13   3    3.16    3.25   1
  -4  13   3   21.54    4.68   1
   3 -13  -3    4.30    3.51   2
  -3  13   3    5.62    3.00   1
  -2  13   3   -0.26    2.36   1
   2 -13  -3    1.67    2.86   2
   1 -13  -3   53.95    7.43   2
  -1  13   3   42.03    5.09   1
   1 -13  -3   57.64    7.18   3
   0 -13  -3   21.16    5.32   3
   0 -13  -3   27.16    5.40   2
  -1 -13  -3    3.92    3.54   3
  -1 -13  -3    3.14    2.71   2
  -2 -13  -3   44.88    6.72   3
  -3 -13  -3    6.83    3.99   3
  -4 -13  -3   34.41    6.21   3
  -5 -13  -3   86.43    9.25   3
  -6 -13  -3    2.66    3.48   3
  -7 -13  -3    5.10    3.93   3
  -8 -13  -3    0.01    3.51   3
  -9 -13  -3   18.62    5.64   3
 -10 -13  -3   15.61    5.60   3
 -11 -13  -3    2.15    4.42   3
 -12 -13  -3    3.04    4.97   3
  -5  14   3   30.17    6.09   1
  -4  14   3    0.08    2.76   1
  -3  14   3   18.34    4.25   1
   3 -14  -3   13.17    5.08   2
   2 -14  -3   19.91    5.32   2
  -2  14   3    4.69    2.75   1
   1 -14  -3   61.24    8.10   2
   0 -14  -3    4.56    3.65   3
  -1 -14  -3   17.09    5.29   3
  -2 -14  -3   14.35    4.81   3
  -3 -14  -3    2.78    3.67   3
  -4 -14  -3   15.10    4.90   3
  -5 -14  -3   12.30    4.92   3
  -6 -14  -3   16.97    5.52   3
  -7 -14  -3  110.22   10.42   3
  -8 -14  -3    3.68    4.37   3
  -9 -14  -3    3.29    4.26   3
 -10 -14  -3    4.72    4.43   3
 -11 -14  -3    9.45    5.43   3
   3 -15  -3    0.19    3.84   2
   0 -15  -3   45.41    7.28   3
  -1 -15  -3   40.76    7.36   3
  -2 -15  -3    8.30    4.20   3
  -3 -15  -3    7.57    4.45   3
  -4 -15  -3   45.69    7.56   3
  -5 -15  -3   26.40    6.29   3
  -6 -15  -3    9.53    4.80   3
  -7 -15  -3    5.29    4.43   3
  -8 -15  -3   29.22    7.16   3
  -9 -15  -3    7.60    4.49   3
 -10 -15  -3   -5.67    3.88   3
 -11 -15  -3    1.69    4.25   3
  -1 -16  -3   14.52    5.14   3
  -2 -16  -3   71.29    9.24   3
  -3 -16  -3   15.42    5.33   3
  -4 -16  -3   -0.55    3.61   3
  -5 -16  -3   30.72    7.04   3
  -6 -16  -3   43.83    8.14   3
  -7 -16  -3   13.91    5.50   3
  -8 -16  -3   -3.94    3.56   3
  -9 -16  -3    1.41    4.21   3
 -10 -16  -3    4.90    4.75   3
  -2 -17  -3    0.10    4.33   3
  -3 -17  -3    6.60    4.85   3
  -4 -17  -3   21.68    6.32   3
  -5 -17  -3   16.46    5.78   3
  -6 -17  -3   -1.39    3.83   3
  -7 -17  -3   23.59    6.95   3
  -8 -17  -3    0.67    3.92   3
  -9 -17  -3    0.57    2.64   3
  -2 -18  -3   12.55    5.88   3
  -3 -18  -3    3.70    4.80   3
  -4 -18  -3    4.73    4.95   3
  -5 -18  -3    1.03    4.55   3
  -6 -18  -3   35.39    7.58   3
  -7 -18  -3   -0.86    2.89   3
  -8 -18  -3   -2.30    2.99   3
  -3 -19  -3   13.14    5.98   3
  -4 -19  -3   14.22    6.11   3
  -5 -19  -3   12.56    5.26   3
  -6 -19  -3    7.89    5.57   3
  -7 -19  -3   -2.73    2.96   3
  -4 -19   4    1.78    4.54   2
  -3 -19   4   13.40    5.64   2
  -7 -18   4    8.68    4.87   2
  -7 -18   4   11.62    4.81   3
  -6 -18   4   -2.23    3.21   3
  -6 -18   4   10.05    4.72   2
  -5 -18   4    5.98    3.76   3
  -5 -18   4    3.50    3.87   2
  -4 -18   4    9.50    4.71   2
  -3 -18   4    1.34    3.74   2
  -2 -18   4    3.36    3.90   2
  -1 -18   4    2.07    3.93   2
   0 -18   4   16.05    5.81   2
  -8 -17   4    1.89    2.47   3
  -8 -17   4    3.44    4.46   2
  -7 -17   4    6.37    4.06   3
  -7 -17   4   16.55    5.55   2
  -6 -17   4   36.93    6.82   3
  -6 -17   4   51.73    8.06   2
  -5 -17   4   11.15    4.72   2
  -5 -17   4    9.03    4.24   3
  -4 -17   4    9.58    4.76   2
  -3 -17   4   21.17    5.88   2
  -2 -17   4   24.45    6.03   2
  -1 -17   4   17.01    5.50   2
   0 -17   4   15.05    4.65   2
   1 -17   4   14.20    5.14   2
   2 -17   4   -0.23    4.24   2
  -9 -16   4    9.87    5.15   2
  -8 -16   4   12.89    5.24   2
  -7 -16   4    0.75    3.74   2
  -7 -16   4    6.73    3.67   3
  -6 -16   4   -2.31    3.30   2
  -6 -16   4    3.87    3.22   3
  -5 -16   4   26.11    5.79   3
  -5 -16   4   32.00    6.56   2
  -4 -16   4   11.58    4.55   3
  -4 -16   4   16.23    5.31   2
  -3 -16   4    5.28    3.94   2
  -2 -16   4    2.87    3.21   2
  -1 -16   4   30.23    6.81   2
   0 -16   4   15.58    5.51   2
   1 -16   4   18.80    5.73   2
   2 -16   4    4.74    3.54   2
   3 -16   4    5.72    4.44   2
 -10 -15   4    9.01    5.12   2
  -9 -15   4    6.16    4.58   2
  -8 -15   4    8.24    4.64   2
  -7 -15   4   15.65    4.97   2
  -6 -15   4   21.69    5.96   2
  -5 -15   4   22.44    5.19   3
  -5 -15   4   24.54    5.92   2
  -4 -15   4    2.19    3.37   2
  -4 -15   4    0.17    2.41   3
  -3 -15   4    7.19    3.78   3
  -3 -15   4   11.53    4.52   2
  -2 -15   4   55.04    8.06   2
  -1 -15   4   19.59    5.77   2
   0 -15   4    6.57    4.49   2
   1 -15   4    8.96    4.13   2
   2 -15   4    0.64    3.25   2
   3 -15   4   21.35    6.30   2
   4 -15   4   14.53    5.32   2
 -10 -14   4   12.54    5.53   2
  -9 -14   4   39.61    7.72   2
  -8 -14   4   19.62    5.55   2
  -7 -14   4    0.67    3.46   2
  -6 -14   4    6.47    4.07   2
  -5 -14   4    7.75    4.06   2
  -4 -14   4   29.15    6.31   2
  -4 -14   4   34.26    5.70   3
  -3 -14   4   61.47    8.03   2
  -3 -14   4   60.31    6.83   3
  -2 -14   4   -2.05    2.84   2
  -2 -14   4    0.15    1.51   3
  -1 -14   4   65.24    8.29   2
   0 -14   4   53.90    8.05   2
   1 -14   4   52.61    8.37   2
   2 -14   4    0.78    3.23   2
   3 -14   4    0.29    3.22   2
   4 -14   4   33.88    7.65   2
   5 -14   4   26.44    7.43   2
 -11 -13   4   24.99    6.97   2
 -10 -13   4   22.78    6.08   2
  -9 -13   4    4.86    4.15   2
  -8 -13   4   12.18    5.19   2
  -7 -13   4    8.58    4.37   2
  -6 -13   4   12.28    4.65   2
  -5 -13   4   29.70    5.88   2
  -4 -13   4   -1.21    2.96   2
  -3 -13   4    6.89    3.13   3
  -3 -13   4    7.27    4.03   2
  -2 -13   4   63.79    7.81   2
  -2 -13   4   39.08    5.42   3
  -1 -13   4   14.04    4.62   2
   0 -13   4   10.17    4.36   2
   1 -13   4   23.91    5.90   2
   2 -13   4  114.77   10.43   2
   3 -13   4   22.79    6.22   2
   4 -13   4    2.89    3.63   2
   5 -13   4    6.84    4.42   2
   6 -13   4    8.17    4.85   2
 -11 -12   4   10.35    4.62   2
 -10 -12   4    1.36    3.67   2
  -9 -12   4   18.12    5.45   2
  -8 -12   4   71.38    8.31   2
  -7 -12   4   39.37    6.82   2
  -6 -12   4   -0.37    2.88   2
  -5 -12   4   70.25    7.61   2
  -4 -12   4  140.67    9.99   2
  -3 -12   4   39.90    6.27   2
  -2 -12   4    3.41    2.96   3
  -2 -12   4   10.63    4.11   2
  -1 -12   4    4.21    3.57   2
  -1 -12   4    4.81    2.78   3
   0 -12   4   33.70    6.27   2
   1 -12   4  129.45   10.59   2
   2 -12   4    6.51    3.96   2
   3 -12   4   16.81    5.28   2
   4 -12   4   13.32    5.08   2
  -4  12  -4    7.97    3.15   1
   5 -12   4    1.53    3.59   2
  -5  12  -4    3.30    2.86   1
  -6  12  -4    4.13    3.02   1
   6 -12   4    2.67    4.29   2
   7 -12   4    0.24    3.88   2
  -7  12  -4    2.18    3.49   1
 -11 -11   4   24.74    7.02   2
 -10 -11   4   19.21    5.97   2
  -9 -11   4    3.94    4.17   2
  -8 -11   4    0.44    3.51   2
  -7 -11   4   26.61    5.70   2
  -6 -11   4   73.99    8.05   2
  -5 -11   4    5.43    3.51   2
  -4 -11   4    0.77    3.21   2
  -3 -11   4   53.60    6.64   2
  -2 -11   4   75.03    7.51   2
  -1 -11   4   33.92    6.01   2
  -1 -11   4   41.82    5.01   3
   0 -11   4   84.09    8.10   2
   1 -11   4   30.62    5.94   2
   2 -11   4  131.40   10.39   2
  -4  11  -4   29.90    4.76   1
   4 -11   4   39.61    7.48   2
   5 -11   4   -5.64    2.89   2
  -5  11  -4   -0.86    2.32   1
  -6  11  -4   28.22    5.23   1
   6 -11   4   16.91    5.46   2
  -7  11  -4   14.51    4.24   1
   7 -11   4   12.08    5.26   2
  -8  11  -4   12.10    4.81   1
 -12 -10   4   12.62    6.22   2
 -11 -10   4    6.00    4.20   2
 -10 -10   4    4.12    4.26   2
  -9 -10   4   17.15    5.26   2
  -8 -10   4   55.92    7.61   2
  -7 -10   4   23.09    5.43   2
  -6 -10   4   53.21    6.56   2
  -5 -10   4   32.55    5.66   2
  -4 -10   4   36.19    5.51   2
  -3 -10   4    4.50    3.25   2
  -2 -10   4    6.54    3.39   2
  -1 -10   4    1.49    2.67   2
  -1 -10   4   -0.46    2.14   3
   0 -10   4   49.42    4.70   3
   0 -10   4   59.02    6.78   2
  -1  10  -4   61.56    4.44   1
   1 -10   4   53.40    6.89   2
   2 -10   4   11.15    4.12   2
  -2  10  -4    8.22    2.55   1
  -3  10  -4    7.90    2.75   1
   3 -10   4    7.41    3.78   2
  -4  10  -4   59.60    5.85   1
   4 -10   4   87.86    9.46   2
  -5  10  -4  150.83    9.17   1
   5 -10   4  150.53   12.10   2
  -6  10  -4   71.51    7.29   1
   6 -10   4   67.32    9.52   2
   7 -10   4   10.74    4.72   2
  -7  10  -4   14.58    4.32   1
  -8  10  -4   20.78    5.23   1
 -12  -9   4   42.01    8.72   2
 -11  -9   4   10.07    4.99   2
 -10  -9   4   13.65    5.56   2
  -9  -9   4   13.66    4.91   2
  -8  -9   4    5.69    3.53   2
  -7  -9   4  101.04    8.67   2
  -6  -9   4    3.56    3.30   2
  -5  -9   4   57.36    6.26   2
  -4  -9   4   82.00    7.05   2
  -3  -9   4    6.06    3.11   2
  -2  -9   4   88.37    7.10   2
  -1  -9   4   94.44    7.29   2
   0   9  -4   92.82    4.74   1
   0  -9   4   86.19    5.69   3
   0   9  -4   98.41    4.62   4
   0  -9   4   95.05    7.53   2
  -1   9  -4  115.36    5.57   4
  -1   9  -4  105.21    5.68   1
   1  -9   4   93.62    7.92   2
  -2   9  -4    4.38    1.83   4
  -2   9  -4    4.24    2.01   1
   2  -9   4   12.18    3.96   2
   3  -9   4   42.83    6.52   2
  -3   9  -4   44.70    4.73   1
  -3   9  -4   47.81    4.67   4
   4  -9   4   33.76    6.25   2
  -4   9  -4   26.08    4.38   1
  -4   9  -4   40.09    4.70   4
  -5   9  -4    2.52    2.55   1
   5  -9   4   -0.59    2.63   2
   6  -9   4   37.43    7.29   2
  -6   9  -4   28.61    5.06   1
  -7   9  -4   35.96    5.86   1
   7  -9   4   37.99    7.73   2
  -8   9  -4   -0.88    2.72   1
  -9   9  -4    0.15    2.33   1
 -12  -8   4    8.96    5.21   2
 -11  -8   4    5.71    4.63   2
 -10  -8   4   -3.80    2.99   2
  -9  -8   4    2.01    3.46   2
  -8  -8   4   67.20    7.88   2
  -7  -8   4    6.87    3.73   2
  -6  -8   4    9.54    3.91   2
  -5  -8   4   12.10    3.68   2
  -4  -8   4   16.84    3.80   2
  -3  -8   4   95.84    7.05   2
  -2  -8   4   15.58    3.59   2
   1   8  -4  147.57    5.03   4
  -1  -8   4  139.92    8.53   2
   1   8  -4  145.96    5.20   1
   0   8  -4  177.42    6.50   1
   0   8  -4  179.36    6.33   4
   0  -8   4  155.81    9.54   2
   1  -8   4   45.55    3.86   3
  -1   8  -4   50.48    3.72   1
  -1   8  -4   48.39    3.54   4
   1  -8   4   47.70    5.80   2
  -2   8  -4   -0.76    0.78   1
   2  -8   4    7.76    3.36   2
  -2   8  -4    2.30    1.12   4
   3  -8   4   15.26    4.19   2
  -3   8  -4    9.10    2.71   4
  -3   8  -4    4.87    2.36   1
   4  -8   4   41.51    6.40   2
  -4   8  -4   38.15    4.63   4
  -4   8  -4   51.08    5.36   1
   5  -8   4   57.69    7.82   2
  -5   8  -4   45.27    5.22   4
  -5   8  -4   47.94    5.62   1
  -6   8  -4  105.67    7.99   1
  -6   8  -4  112.09    7.68   4
   6  -8   4  109.94    9.85   2
  -7   8  -4    2.31    2.70   1
   7  -8   4    2.10    3.08   2
  -8   8  -4    0.99    2.80   1
  -9   8  -4    6.66    3.61   1
 -12  -7   4    4.54    5.28   2
 -11  -7   4   15.49    5.95   2
 -10  -7   4   46.45    8.11   2
  -9  -7   4   43.63    7.23   2
  -8  -7   4    0.10    3.09   2
  -7  -7   4  107.53    8.57   2
  -6  -7   4    7.23    3.25   2
  -5  -7   4   54.51    5.96   2
  -4  -7   4   39.22    4.83   2
  -3  -7   4   51.79    5.31   2
  -2  -7   4   33.01    4.30   2
  -1  -7   4    6.72    2.47   2
  -1  -7   4   10.89    1.38   1
   0  -7   4    4.98    2.55   2
   0  -7   4    3.77    1.23   1
   1  -7   4    6.04    1.77   3
   1  -7   4    3.37    1.48   1
   1  -7   4    4.08    2.41   2
  -2   7  -4    1.63    1.09   4
   2  -7   4   10.71    3.50   2
  -2   7  -4    0.49    1.17   1
  -3   7  -4  112.27    6.06   4
  -3   7  -4  103.70    6.21   1
   3  -7   4  111.14    8.21   2
  -4   7  -4    3.53    2.15   1
   4  -7   4    0.65    2.25   2
  -4   7  -4   -1.29    1.76   4
  -5   7  -4   42.51    4.99   4
   5  -7   4   37.86    6.39   2
  -5   7  -4   30.43    4.73   1
   6  -7   4    9.07    3.83   2
  -6   7  -4   10.77    3.56   1
  -6   7  -4    8.93    3.10   4
  -7   7  -4   49.50    6.37   1
  -7   7  -4   62.88    6.68   4
   7  -7   4   61.83    8.85   2
  -8   7  -4   37.33    6.14   1
  -9   7  -4   22.61    5.10   1
 -10   7  -4   -1.56    2.17   1
 -12  -6   4   19.86    7.14   2
 -11  -6   4   15.42    5.69   2
 -10  -6   4    1.33    3.55   2
  -9  -6   4  108.39    9.69   2
  -8  -6   4   54.41    7.13   2
  -7  -6   4   25.11    5.14   2
  -6  -6   4    3.71    2.78   2
  -5  -6   4   42.66    5.30   2
  -4  -6   4  166.55    8.99   2
  -4  -6   4  175.35    5.51   1
  -3  -6   4   14.23    3.02   2
  -2  -6   4    4.13    2.12   2
  -2  -6   4    2.67    0.59   1
  -1  -6   4    7.02    2.49   2
  -1  -6   4    4.50    0.97   1
   0  -6   4   48.59    4.74   2
   0  -6   4   40.73    2.84   1
   1  -6   4  197.88    7.92   1
   1  -6   4  209.49    9.99   2
   2  -6   4   19.07    3.90   2
   2  -6   4   23.83    3.14   1
   2  -6   4   21.79    2.12   3
   3  -6   4  161.43    8.12   1
   3  -6   4  161.93    9.55   2
   4  -6   4   77.10    7.07   2
  -4   6  -4   74.95    5.17   4
  -4   6  -4   80.16    5.77   1
  -5   6  -4   19.99    3.80   1
  -5   6  -4   20.18    3.68   4
   5  -6   4   26.90    5.41   2
  -6   6  -4    3.03    2.26   4
  -6   6  -4    3.84    2.67   1
   6  -6   4   -0.66    2.16   2
   7  -6   4    6.34    3.21   2
  -7   6  -4    0.72    2.53   1
  -7   6  -4    5.18    2.79   4
  -8   6  -4   -2.03    2.37   1
  -8   6  -4    2.19    2.39   4
  -9   6  -4   12.99    4.35   1
 -10   6  -4   -0.46    2.43   1
 -12  -5   4    7.89    5.89   2
 -11  -5   4   32.27    7.45   2
 -10  -5   4    7.53    4.81   2
  -9  -5   4   19.95    5.52   2
  -8  -5   4   22.35    5.38   2
  -7  -5   4   38.59    5.84   2
  -6  -5   4  185.30   10.37   2
  -6  -5   4  166.16    7.17   1
  -5  -5   4  137.04    8.51   2
  -5  -5   4  156.19    6.00   1
  -4  -5   4    6.81    2.52   2
  -4  -5   4    7.51    1.39   1
  -3  -5   4   62.92    2.79   1
  -3  -5   4   54.45    4.82   2
  -2  -5   4  170.70    8.20   2
  -2  -5   4  167.25    5.02   1
  -1  -5   4    8.37    2.39   2
  -1  -5   4    8.10    1.12   1
   0  -5   4   12.29    2.82   2
   0  -5   4   16.00    1.88   1
   1  -5   4  141.29    6.08   1
   1  -5   4  136.13    7.42   2
   2  -5   4  351.05   14.14   2
   2  -5   4  366.43   10.14   3
   2  -5   4  344.01   12.10   1
   3  -5   4   25.53    4.01   2
   3  -5   4   41.60    4.32   1
   4  -5   4    4.68    2.01   1
   4  -5   4    1.27    1.94   2
   5  -5   4   14.64    4.11   2
  -6   5  -4   81.42    6.50   1
  -6   5  -4   72.78    5.92   4
   6  -5   4   82.59    8.33   2
   7  -5   4   50.51    7.53   2
  -7   5  -4   55.89    6.25   1
  -7   5  -4   58.40    6.24   4
  -8   5  -4    3.78    2.90   4
  -8   5  -4    5.70    3.34   1
  -9   5  -4    1.57    3.09   1
  -9   5  -4   -0.92    2.42   4
 -10   5  -4   -0.17    2.96   1
 -11   5  -4    1.29    3.55   1
 -12  -4   4   26.90    7.94   2
 -11  -4   4    4.68    4.15   2
 -10  -4   4    7.25    4.31   2
  -9  -4   4   33.81    6.45   2
  -8  -4   4    1.52    2.69   2
  -8  -4   4    3.05    1.96   1
  -7  -4   4   65.70    6.99   2
  -7  -4   4   55.91    4.50   1
  -6  -4   4   -0.68    1.44   1
  -6  -4   4    1.47    2.41   2
  -5  -4   4  121.88    5.56   1
  -5  -4   4  119.91    7.66   2
  -4  -4   4  100.46    6.60   2
  -4  -4   4  105.47    4.54   1
  -3  -4   4  140.91    7.37   2
  -3  -4   4  136.44    4.94   1
  -2  -4   4  126.30    6.61   2
  -2  -4   4  128.71    4.38   1
  -1  -4   4   23.44    3.14   2
  -1  -4   4   19.14    1.61   1
   0  -4   4 1035.79   25.34   1
   0  -4   4 1037.60   29.50   2
   1  -4   4  664.70   17.80   1
   1  -4   4  634.15   20.33   2
   2  -4   4   42.97    4.37   2
   2  -4   4   37.82    3.53   1
   3  -4   4   72.53    5.78   2
   3  -4   4   85.28    5.40   1
   4  -4   4   61.87    5.11   1
   4  -4   4   57.36    5.85   2
   5  -4   4   97.14    7.64   2
   5  -4   4  106.73    7.15   1
   6  -4   4    4.25    2.92   2
  -7   4  -4    0.06    2.03   4
  -7   4  -4    4.91    2.79   1
  -8   4  -4   92.37    7.32   4
  -8   4  -4  107.06    8.11   1
  -9   4  -4    9.15    3.85   1
  -9   4  -4   14.21    4.24   4
 -10   4  -4   12.51    4.40   1
 -10   4  -4    6.22    3.47   4
 -11   4  -4    4.62    4.11   1
 -12  -3   4   11.38    6.32   2
  -9  -3   4   49.56    5.21   1
  -8  -3   4    1.39    1.91   1
  -7  -3   4    2.67    1.95   1
  -6  -3   4  144.88    8.94   2
  -6  -3   4  138.75    6.73   1
  -5  -3   4   -1.10    1.33   2
  -5  -3   4   -0.40    1.26   1
  -4  -3   4   30.82    2.70   1
  -4  -3   4   32.67    3.98   2
  -3  -3   4   55.45    4.42   2
  -3  -3   4   59.14    3.20   1
  -2  -3   4  222.74    9.06   2
  -2  -3   4  224.73    6.93   1
  -1  -3   4   42.19    2.35   1
  -1  -3   4   45.24    3.75   2
   0  -3   4   14.83    2.47   2
   0  -3   4   16.78    1.75   1
   1  -3   4  623.18   19.02   2
   1  -3   4  606.48   16.62   1
   2  -3   4  556.63   16.24   1
   2  -3   4  554.50   17.99   2
   3  -3   4  214.93    9.77   2
   3  -3   4  203.69    8.80   1
   4  -3   4   48.77    4.67   1
   4  -3   4   51.66    5.31   2
   5  -3   4   26.31    4.52   2
   5  -3   4   24.22    4.04   1
   6  -3   4  205.54   10.85   1
   6  -3   4  203.53   11.89   2
  -7   3  -4   86.27    6.86   1
  -7   3  -4   89.47    6.42   4
  -8   3  -4   14.09    4.06   1
  -8   3  -4   12.12    3.60   4
  -9   3  -4   28.76    5.59   4
  -9   3  -4   20.90    5.21   1
 -10   3  -4    9.56    4.26   1
 -10   3  -4    9.47    3.92   4
 -11   3  -4    7.28    3.84   4
 -11   3  -4    5.36    4.39   1
 -11  -2   4   -2.49    2.67   1
 -10  -2   4    2.67    2.85   1
  -9  -2   4   16.66    3.70   1
  -8  -2   4  121.36    7.42   1
  -7  -2   4   54.31    4.86   1
  -6  -2   4   94.23    5.64   1
  -5  -2   4   12.31    2.37   1
  -4  -2   4  296.01    9.67   1
  -4  -2   4  270.37   11.47   2
  -3  -2   4  130.17    6.87   2
  -3  -2   4  140.53    5.43   1
  -2  -2   4   38.31    3.44   2
  -2  -2   4   34.06    2.43   1
  -1  -2   4  238.24    8.96   2
  -1  -2   4  236.94    7.26   1
   0  -2   4 1080.26   29.20   2
   0  -2   4 1069.95   25.89   1
   1  -2   4   24.24    2.69   2
   1  -2   4   20.79    2.19   1
   2  -2   4  283.40    9.50   1
   2  -2   4  266.65   10.23   2
   3  -2   4   53.76    4.37   2
   3  -2   4   59.07    4.27   1
   4  -2   4   94.46    5.91   1
   4  -2   4   90.41    6.35   2
   5  -2   4   18.02    3.75   2
   5  -2   4   17.94    3.47   1
   6  -2   4   31.17    5.07   2
   6  -2   4   31.23    4.71   1
   7  -2   4   25.88    4.65   1
  -8   2  -4   26.27    4.54   4
  -8   2  -4   35.00    5.40   1
  -9   2  -4   36.92    5.76   4
  -9   2  -4   34.99    5.82   1
 -10   2  -4   52.99    7.48   1
 -10   2  -4   66.06    7.75   4
 -11   2  -4    5.57    3.90   1
 -11   2  -4    0.35    2.85   4
 -12   2  -4    4.89    4.26   1
 -12  -1   4    5.04    3.69   1
 -11  -1   4   22.50    5.17   1
 -10  -1   4    7.00    3.32   1
  -9  -1   4    3.08    2.63   1
  -8  -1   4   13.63    3.46   1
  -7  -1   4   72.84    5.68   1
  -6  -1   4    4.27    2.00   1
  -5  -1   4    5.72    1.95   1
  -4  -1   4   27.83    2.98   1
  -3  -1   4  111.49    4.98   1
  -2  -1   4  259.68    9.56   2
  -2  -1   4  257.34    8.16   1
  -1  -1   4  793.91   22.05   2
  -1  -1   4  782.10   19.79   1
   0  -1   4  672.17   18.92   2
   0  -1   4  667.85   17.08   1
   1  -1   4  417.15   11.82   1
   2  -1   4   27.09    2.75   2
   2  -1   4   22.52    2.44   1
   3  -1   4   66.12    4.59   2
   3  -1   4   67.62    4.42   1
  -4   1  -4   65.20    3.04   3
   4  -1   4   66.33    4.83   1
   4  -1   4   67.06    5.00   2
   5  -1   4   81.45    6.23   2
   5  -1   4   88.94    6.10   1
  -5   1  -4   81.70    3.75   3
   6  -1   4  131.06    8.23   1
   7  -1   4   87.08    7.19   1
  -9   1  -4   20.24    4.36   4
  -9   1  -4   14.24    4.12   1
 -10   1  -4   24.97    5.19   4
 -10   1  -4   11.39    4.17   1
 -11   1  -4   55.98    8.25   1
 -11   1  -4   70.40    8.28   4
 -12   1  -4   41.91    7.54   4
 -12   1  -4   48.80    8.08   1
 -11   0   4   -0.90    2.81   1
 -10   0   4   10.11    3.90   1
  -9   0   4   26.44    4.88   1
  -8   0   4   69.51    6.37   1
  -7   0   4    0.27    2.18   1
  -6   0   4   15.66    3.13   1
  -5   0   4    9.48    2.42   1
  -4   0   4  349.82   11.75   1
  -3   0   4   13.72    2.21   1
  -2   0   4   39.55    2.89   1
  -1   0   4  997.19   26.68   2
  -1   0   4  986.86   24.54   1
   0   0   4 1072.71   26.18   1
   1   0   4   20.93    2.02   2
   1   0   4   20.13    2.05   1
   2   0   4  101.36    4.83   1
   2   0   4  104.63    4.79   2
  -2   0  -4  108.46    4.59   3
  -3   0  -4   23.57    2.08   3
   3   0   4   26.87    2.90   1
  -4   0  -4  232.31    7.78   3
   4   0   4  247.37   10.04   2
   4   0   4  238.27    9.69   1
  -5   0  -4  190.93    7.01   3
   5   0   4  198.85    9.30   1
   6   0   4    4.15    2.13   1
   7   0   4  106.90    7.87   1
   8   0   4    2.36    1.97   1
  -9   0  -4   91.70    7.70   1
  -9   0  -4   99.77    7.42   4
 -10   0  -4    9.33    3.55   4
 -10   0  -4   14.72    4.25   1
 -11   0  -4    8.31    4.29   1
 -11   0  -4    3.86    3.33   4
 -12   0  -4   14.79    4.62   4
 -12   0  -4    8.51    4.91   1
 -11   1   4   27.16    5.71   1
 -10   1   4   14.63    4.12   1
  -9   1   4    2.89    2.78   1
  -8   1   4   26.72    4.61   1
  -7   1   4   83.11    6.46   1
  -6   1   4    2.37    2.04   1
  -5   1   4  400.22   13.85   1
  -4   1   4   15.41    2.76   1
  -3   1   4   64.01    4.21   1
  -2   1   4  111.13    5.08   1
  -1   1   4  151.09    5.86   1
   0   1   4   15.98    1.72   2
   0   1   4   13.93    1.96   1
   1   1   4  717.71   18.56   1
   1   1   4  707.75   18.65   2
  -1  -1  -4  721.72   20.34   3
  -2  -1  -4  728.98   20.32   3
   2   1   4  760.89   19.80   2
   2   1   4  712.32   19.23   1
   3   1   4  242.10    8.45   2
  -3  -1  -4  225.51    7.93   3
   4   1   4   65.90    4.56   1
  -4  -1  -4   70.52    3.83   3
  -5  -1  -4   31.32    2.86   3
   5   1   4   27.74    3.74   1
   6   1   4    1.16    1.58   1
   7   1   4   69.85    6.57   1
   8   1   4   21.94    4.54   1
 -10  -1  -4   12.07    4.15   1
 -10  -1  -4   16.46    4.41   4
 -11  -1  -4   17.11    4.81   4
 -11  -1  -4   19.77    5.19   1
 -12  -1  -4    4.70    4.08   1
 -12  -1  -4    3.31    3.08   4
 -11   2   4    4.89    3.93   1
 -10   2   4    6.36    3.76   1
  -9   2   4   91.29    7.86   1
  -8   2   4   35.33    5.22   1
  -7   2   4   18.41    3.94   1
  -6   2   4    4.30    2.46   1
  -5   2   4   55.93    5.00   1
  -4   2   4  122.53    6.53   1
  -3   2   4   43.97    3.73   1
  -2   2   4  169.09    6.80   1
  -1   2   4 1474.11   35.66   1
   0   2   4  370.35   10.73   1
   0  -2  -4  329.26   11.92   3
  -1  -2  -4 2305.47   59.07   3
   1   2   4 2293.66   53.62   1
   2   2   4  371.30   11.04   1
  -2  -2  -4  360.21   11.75   3
   3   2   4   43.48    3.25   1
  -3  -2  -4   43.00    3.26   3
   4   2   4   90.41    5.20   1
  -4  -2  -4   89.13    4.81   3
  -5  -2  -4  214.01    8.53   3
   5   2   4  225.08    9.60   1
   6   2   4    6.04    2.12   1
   7   2   4    6.65    2.79   1
   8   2   4  197.96   11.13   1
   9   2   4  195.61   11.53   1
 -10  -2  -4    3.74    3.18   1
 -10  -2  -4    4.66    2.98   4
 -11  -2  -4    0.00    3.05   4
 -11  -2  -4    3.84    3.63   1
 -12  -2  -4   -1.92    2.99   4
 -12  -2  -4   -2.58    3.36   1
 -13  -2  -4    6.03    4.52   1
 -13  -2  -4   10.92    4.64   4
 -11   3   4   84.09    9.75   1
 -10   3   4  132.33   10.35   1
  -9   3   4    1.08    3.05   1
  -8   3   4    3.19    3.00   1
  -7   3   4   53.90    5.83   1
  -6   3   4  131.92    8.01   1
  -5   3   4   32.31    4.26   1
  -4   3   4   84.73    5.71   1
  -3   3   4   30.03    3.46   1
  -2   3   4    2.11    1.36   1
  -1   3   4  389.64   11.93   1
   0   3   4   92.44    4.64   1
   0  -3  -4   97.65    5.73   3
  -1  -3  -4  128.02    6.35   3
   1   3   4  128.17    5.47   1
  -2  -3  -4  198.05    8.09   3
   2   3   4  205.93    7.31   1
  -3  -3  -4   42.28    3.51   3
   3   3   4   40.75    3.11   1
  -4  -3  -4   56.98    4.10   3
   4   3   4   53.28    3.86   1
   5   3   4   18.11    2.97   1
  -5  -3  -4   23.94    3.15   3
   6   3   4   34.17    4.19   1
  -6  -3  -4   32.12    3.70   3
   7   3   4   69.70    5.77   1
   8   3   4   20.02    4.06   1
   9   3   4   23.41    4.79   1
 -11  -3  -4  125.74    9.85   1
 -11  -3  -4  137.22    9.58   4
 -12  -3  -4   24.08    5.50   4
 -12  -3  -4   19.02    5.43   1
 -13  -3  -4    3.23    3.56   4
 -13  -3  -4   12.03    5.11   1
 -10   4   4   12.87    4.65   1
  -9   4   4   77.09    8.33   1
  -8   4   4   91.40    8.31   1
  -7   4   4   18.02    4.21   1
  -6   4   4   21.69    4.34   1
  -5   4   4   23.07    4.08   1
  -4   4   4  272.30   11.28   1
  -3   4   4    6.64    2.28   1
  -2   4   4    0.99    1.42   1
  -1   4   4   41.56    3.35   1
   1  -4  -4   46.15    4.51   3
   0  -4  -4  913.09   26.88   3
   0   4   4  925.10   23.78   1
   1   4   4 1223.98   30.35   1
  -1  -4  -4 1210.46   33.75   3
  -2  -4  -4   -1.26    1.46   3
   2   4   4    0.06    0.97   1
   3   4   4    8.36    1.79   1
  -3  -4  -4    7.85    2.31   3
  -3  -4  -4    8.63    1.12   2
   4   4   4  235.30    8.90   1
  -4  -4  -4  235.12    9.62   3
   5   4   4   86.08    5.26   1
  -5  -4  -4   70.09    5.17   3
   6   4   4  127.18    7.24   1
  -6  -4  -4  133.39    7.39   3
   7   4   4   -0.15    1.54   1
   8   4   4   63.73    6.32   1
   9   4   4   17.03    4.12   1
  10   4   4   24.85    5.01   1
 -11  -4  -4    6.60    3.76   1
 -11  -4  -4    4.13    3.15   4
 -12  -4  -4   14.53    4.99   1
 -12  -4  -4   17.34    5.14   4
 -13  -4  -4   23.13    5.55   4
 -13  -4  -4    7.57    5.12   1
 -10   5   4   22.85    6.16   1
  -9   5   4   56.39    7.72   1
  -8   5   4    7.71    4.01   1
  -7   5   4   32.84    5.52   1
  -6   5   4   95.87    7.36   1
  -5   5   4   11.30    3.34   1
  -4   5   4    5.62    2.71   1
  -3   5   4   89.38    5.91   1
  -2   5   4  149.54    7.08   1
   1  -5  -4   47.98    4.78   3
  -1   5   4   40.69    3.57   1
   0  -5  -4    0.82    1.09   2
   0   5   4    2.33    1.42   1
   0  -5  -4    5.85    2.31   3
   1   5   4   34.01    3.00   1
  -1  -5  -4   32.14    2.31   2
  -1  -5  -4   34.83    4.00   3
  -2  -5  -4   25.55    3.44   3
   2   5   4   23.75    2.58   1
  -2  -5  -4   22.84    1.73   2
   3   5   4   38.49    3.00   1
  -3  -5  -4   41.35    4.19   3
  -3  -5  -4   36.60    2.29   2
   4   5   4   42.51    3.37   1
  -4  -5  -4   42.18    2.76   2
  -4  -5  -4   42.08    4.37   3
  -5  -5  -4   10.30    1.90   2
  -5  -5  -4    6.88    2.56   3
   5   5   4    9.11    2.28   1
   6   5   4  581.08   18.60   1
  -6  -5  -4  585.49   19.91   3
  -7  -5  -4  168.53    9.30   3
   7   5   4  176.90    9.06   1
   8   5   4   28.93    4.60   1
   9   5   4    7.12    2.70   1
  10   5   4    2.84    2.62   1
 -11  -5  -4   31.01    5.76   1
 -11  -5  -4   49.32    6.47   4
 -12  -5  -4   64.85    8.30   1
 -12  -5  -4   58.44    7.75   4
 -10   6   4    6.49    4.23   1
  -9   6   4   43.55    7.21   1
  -8   6   4  135.26   10.08   1
  -7   6   4   72.97    7.60   1
  -6   6   4  100.71    7.83   1
  -5   6   4   16.98    4.04   1
  -4   6   4   85.87    6.43   1
  -3   6   4   62.95    5.37   1
  -2   6   4   76.57    5.21   1
  -1   6   4   77.74    4.91   1
   1  -6  -4   78.17    6.05   3
   1  -6  -4   73.66    5.03   2
   0  -6  -4  261.41    9.88   2
   0   6   4  271.05    9.60   1
   0  -6  -4  278.19   11.59   3
  -1  -6  -4   95.73    4.63   2
  -1  -6  -4   97.43    6.33   3
   1   6   4   88.37    4.85   1
   2   6   4    5.59    1.63   1
  -2  -6  -4    7.07    2.45   3
  -2  -6  -4    4.18    1.18   2
  -3  -6  -4   52.03    3.02   2
  -3  -6  -4   59.51    5.04   3
  -4  -6  -4  208.96   10.08   3
  -4  -6  -4  203.30    7.34   2
  -5  -6  -4   51.28    3.61   2
  -5  -6  -4   57.47    5.24   3
  -6  -6  -4   78.24    4.90   2
  -6  -6  -4   77.82    6.24   3
  -7  -6  -4   13.00    3.65   3
  -7  -6  -4   11.52    2.73   2
  -8  -6  -4    2.40    2.59   3
   8   6   4    3.77    2.19   1
   9   6   4    9.05    3.00   1
  10   6   4   30.83    5.32   1
  -9   7   4    0.39    3.45   1
  -8   7   4   22.27    5.51   1
  -7   7   4   27.01    5.53   1
  -6   7   4   50.89    6.44   1
  -5   7   4  145.58    9.11   1
  -4   7   4   -2.64    1.93   1
  -3   7   4   27.02    4.17   1
  -2   7   4   88.49    5.89   1
   2  -7  -4  101.20    7.56   3
   1  -7  -4   12.88    3.60   3
  -1   7   4    5.98    2.14   1
   1  -7  -4   13.67    2.78   2
   0   7   4   15.32    2.49   1
   0  -7  -4   17.94    2.75   2
   0  -7  -4   15.20    3.51   3
  -1  -7  -4   87.05    4.78   2
  -1  -7  -4   84.85    6.34   3
   1   7   4   86.02    4.93   1
  -2  -7  -4   29.94    4.22   3
  -2  -7  -4   30.88    2.72   2
   3   7   4    0.75    1.05   1
  -3  -7  -4    2.85    1.40   2
  -3  -7  -4    8.07    2.80   3
  -4  -7  -4  101.35    7.19   3
  -4  -7  -4  110.06    5.14   2
   4   7   4  110.91    5.48   1
  -5  -7  -4    5.65    2.77   3
  -5  -7  -4    6.65    1.88   2
   5   7   4    7.26    2.04   1
  -6  -7  -4  135.45    8.55   3
  -6  -7  -4  112.74    6.22   2
   6   7   4  127.73    6.81   1
  -7  -7  -4   20.47    4.48   3
  -7  -7  -4   21.39    3.39   2
   7   7   4   21.19    3.36   1
  -8  -7  -4   61.37    5.38   2
  -8  -7  -4   67.08    7.07   3
   8   7   4   54.58    5.58   1
  -9  -7  -4   -1.08    2.75   3
   9   7   4   -0.22    1.48   1
 -10  -7  -4   11.69    4.20   3
  10   7   4   -2.43    1.36   1
  -9   8   4   -0.97    2.29   1
  -8   8   4   21.10    5.29   1
  -7   8   4   -1.12    2.16   1
  -6   8   4   18.67    4.34   1
  -5   8   4    5.47    3.00   1
  -4   8   4   -0.31    2.21   1
  -3   8   4   58.98    5.79   1
  -2   8   4   17.37    3.41   1
   2  -8  -4   19.06    4.44   3
   2  -8  -4   15.01    3.41   2
   1  -8  -4   64.33    5.36   2
  -1   8   4   68.65    5.08   1
   1  -8  -4   67.42    6.59   3
   0  -8  -4   31.33    3.87   2
   0   8   4   43.18    3.86   1
   0  -8  -4   33.77    4.88   3
  -1  -8  -4  187.91    9.93   3
   1   8   4  182.65    7.85   1
  -1  -8  -4  179.92    8.07   2
  -2  -8  -4   14.36    3.54   3
   2   8   4    8.38    1.91   1
  -2  -8  -4   17.69    2.53   2
  -3  -8  -4   27.72    4.42   3
   3   8   4   30.22    3.07   1
  -3  -8  -4   23.50    2.73   2
   4   8   4  116.88    5.71   1
  -4  -8  -4  108.21    7.87   3
  -4  -8  -4  120.91    5.73   2
   5   8   4   13.13    2.46   1
  -5  -8  -4   15.86    4.00   3
  -5  -8  -4   21.64    2.76   2
  -6  -8  -4   -1.41    2.59   3
  -6  -8  -4   -2.15    1.48   2
   6   8   4    0.69    1.39   1
  -7  -8  -4   15.47    4.31   3
   7   8   4    9.33    2.71   1
  -8  -8  -4   11.98    4.08   3
   8   8   4    5.58    2.31   1
  -9  -8  -4   30.11    5.78   3
 -10  -8  -4   16.26    4.79   3
 -11  -8  -4    7.33    4.10   3
  -8   9   4   -0.99    1.82   1
  -7   9   4   28.91    5.88   1
  -6   9   4   66.32    7.62   1
  -5   9   4   89.41    8.17   1
  -4   9   4    3.55    2.60   1
  -3   9   4  105.29    7.33   1
  -2   9   4    0.90    2.10   1
   2  -9  -4    3.35    2.41   2
   2  -9  -4    5.03    3.50   3
   1  -9  -4    4.26    2.40   2
   1  -9  -4    2.98    3.30   3
  -1   9   4    1.82    1.86   1
   0  -9  -4    3.98    3.15   3
   0   9   4   -0.98    1.50   1
   0  -9  -4    2.52    1.88   2
  -1  -9  -4   73.18    6.92   3
  -1  -9  -4   78.58    5.44   2
  -2  -9  -4  243.84   12.43   3
  -2  -9  -4  277.72   10.64   2
   2   9   4  260.50    9.79   1
  -3  -9  -4   73.72    4.79   2
  -3  -9  -4   80.69    6.96   3
   3   9   4   68.04    4.56   1
   4   9   4    1.75    1.26   1
  -4  -9  -4   -1.24    1.44   2
  -4  -9  -4    0.68    2.60   3
  -5  -9  -4  187.71   11.15   3
   5   9   4  196.62    8.15   1
  -6  -9  -4   32.22    5.60   3
   6   9   4   40.87    4.04   1
  -7  -9  -4   44.19    6.38   3
  -8  -9  -4   44.36    6.56   3
  -9  -9  -4    2.98    3.59   3
 -10  -9  -4   11.63    4.66   3
 -11  -9  -4    8.01    4.80   3
  -8  10   4   -4.10    2.09   1
  -7  10   4    6.24    3.50   1
  -6  10   4   10.83    4.02   1
  -5  10   4   30.68    5.80   1
  -4  10   4   91.87    7.57   1
  -3  10   4    1.15    2.51   1
  -2  10   4   -0.21    2.08   1
   2 -10  -4    2.59    2.13   2
   2 -10  -4    7.61    3.83   3
   1 -10  -4   33.69    4.92   2
  -1  10   4   17.65    3.59   1
   1 -10  -4   23.80    5.05   3
   0  10   4    8.52    2.65   1
   0 -10  -4   10.29    3.03   2
   0 -10  -4    3.58    3.53   3
  -1 -10  -4   25.08    3.81   2
  -1 -10  -4   28.23    5.20   3
   2  10   4   24.65    3.33   1
  -2 -10  -4   21.01    4.84   3
  -2 -10  -4   24.22    3.47   2
  -3 -10  -4   10.96    2.64   2
  -3 -10  -4   11.31    4.07   3
   3  10   4    8.82    2.22   1
  -4 -10  -4   34.66    5.75   3
   4  10   4   43.83    3.75   1
  -5 -10  -4   90.47    7.88   3
   5  10   4   81.95    5.11   1
  -6 -10  -4    3.46    3.74   3
  -7 -10  -4   87.52    8.27   3
  -8 -10  -4  102.76    9.13   3
  -9 -10  -4   52.45    7.61   3
 -10 -10  -4   18.13    5.28   3
 -11 -10  -4   -4.28    3.03   3
 -12 -10  -4   -2.70    3.83   3
  -7  11   4   -0.16    1.97   1
  -6  11   4    9.59    4.16   1
  -5  11   4    6.30    3.55   1
  -4  11   4    0.13    2.58   1
  -3  11   4   23.98    4.46   1
   3 -11  -4   17.51    4.78   2
   2 -11  -4    5.07    3.08   3
  -2  11   4    0.08    2.02   1
   2 -11  -4    2.40    2.56   2
   1 -11  -4   -1.95    1.93   2
  -1  11   4    2.00    2.10   1
   1 -11  -4    0.31    2.96   3
   0 -11  -4   16.51    3.87   2
   0 -11  -4   18.49    4.87   3
   0  11   4   26.17    3.87   1
  -1 -11  -4   14.10    4.67   3
   1  11   4   24.09    3.52   1
  -1 -11  -4   15.57    3.66   2
   2  11   4   91.26    5.77   1
  -2 -11  -4   95.17    8.17   3
   3  11   4   22.65    3.12   1
  -3 -11  -4   29.03    5.57   3
  -4 -11  -4    0.97    2.93   3
  -5 -11  -4    8.51    4.33   3
  -6 -11  -4   29.50    6.24   3
  -7 -11  -4   67.97    8.01   3
  -8 -11  -4    2.92    3.74   3
  -9 -11  -4    1.19    3.61   3
 -10 -11  -4   42.65    7.67   3
 -11 -11  -4   12.63    4.93   3
 -12 -11  -4    6.68    4.68   3
  -6  12   4    6.87    3.70   1
  -5  12   4   19.22    4.62   1
  -4  12   4   10.85    3.54   1
   3 -12  -4    2.69    3.19   2
  -3  12   4    2.38    2.45   1
   2 -12  -4    1.01    2.57   2
  -2  12   4    1.63    2.18   1
   2 -12  -4   -0.48    3.21   3
  -1  12   4   10.95    3.15   1
   1 -12  -4   15.10    4.71   3
   1 -12  -4   10.98    3.86   2
   0 -12  -4    3.34    2.39   2
   0  12   4    3.90    2.11   1
   0 -12  -4    3.29    3.50   3
   1  12   4   36.31    4.35   1
  -1 -12  -4   36.32    6.34   3
  -2 -12  -4   44.09    6.61   3
   2  12   4   65.71    4.97   1
  -3 -12  -4   26.57    5.73   3
  -4 -12  -4   37.91    6.60   3
  -5 -12  -4  299.05   15.94   3
  -6 -12  -4    8.73    4.49   3
  -7 -12  -4   -0.22    3.49   3
  -8 -12  -4   62.31    8.36   3
  -9 -12  -4   67.78    8.99   3
 -10 -12  -4    9.20    4.70   3
 -11 -12  -4    1.93    4.41   3
 -12 -12  -4    7.77    5.32   3
  -6  13   4    3.22    3.93   1
  -5  13   4    5.69    3.32   1
  -4  13   4    3.04    3.11   1
   3 -13  -4   16.28    4.80   2
  -3  13   4   13.60    4.12   1
   2 -13  -4   30.37    5.86   3
   2 -13  -4   18.82    4.89   2
  -2  13   4   19.68    4.25   1
   1 -13  -4   34.05    6.25   3
  -1  13   4   37.34    4.99   1
   0 -13  -4   22.74    5.19   3
  -1 -13  -4   11.63    4.65   3
  -2 -13  -4   24.09    5.67   3
  -3 -13  -4    6.85    3.96   3
  -4 -13  -4   13.29    4.83   3
  -5 -13  -4   51.73    7.61   3
  -6 -13  -4   94.20    9.99   3
  -7 -13  -4   46.53    8.09   3
  -8 -13  -4   15.14    5.43   3
  -9 -13  -4   -1.39    3.81   3
 -10 -13  -4   38.23    7.78   3
 -11 -13  -4   36.65    7.75   3
 -12 -13  -4   36.83    8.31   3
  -5  14   4   -0.26    3.05   1
  -4  14   4   19.40    5.02   1
  -3  14   4   15.80    4.19   1
  -2  14   4    1.14    2.44   1
   1 -14  -4   23.43    5.83   3
   0 -14  -4   48.51    7.21   3
  -1 -14  -4    9.24    4.53   3
  -2 -14  -4   15.37    5.01   3
  -3 -14  -4   44.95    7.37   3
  -4 -14  -4   75.16    8.86   3
  -5 -14  -4   29.71    6.69   3
  -6 -14  -4   10.05    4.92   3
  -7 -14  -4    1.88    4.29   3
  -8 -14  -4   17.42    6.09   3
  -9 -14  -4   14.29    5.66   3
 -10 -14  -4   43.75    8.07   3
 -11 -14  -4   -1.89    4.17   3
  -4  15   4   -0.25    2.68   1
   0 -15  -4    2.42    3.85   3
  -1 -15  -4   37.32    7.02   3
  -2 -15  -4  103.26   10.41   3
  -3 -15  -4    9.62    4.48   3
  -4 -15  -4    0.01    3.59   3
  -5 -15  -4  112.98   10.55   3
  -6 -15  -4   25.63    6.53   3
  -7 -15  -4   61.64    9.30   3
  -8 -15  -4   10.81    5.44   3
  -9 -15  -4    1.57    4.72   3
 -10 -15  -4    3.71    4.68   3
 -11 -15  -4   24.69    6.91   3
   0 -16  -4    3.52    4.03   3
  -1 -16  -4    5.56    4.32   3
  -2 -16  -4    2.81    4.52   3
  -3 -16  -4   41.58    7.86   3
  -4 -16  -4  114.65   11.50   3
  -5 -16  -4   18.62    6.03   3
  -6 -16  -4    0.57    3.63   3
  -7 -16  -4   21.86    6.44   3
  -8 -16  -4   28.43    7.43   3
  -9 -16  -4   32.65    7.96   3
 -10 -16  -4   50.48   10.12   3
  -1 -17  -4   11.11    4.93   3
  -2 -17  -4   24.07    6.74   3
  -3 -17  -4   18.16    5.63   3
  -4 -17  -4   11.78    5.21   3
  -5 -17  -4    2.37    4.56   3
  -6 -17  -4   33.42    7.43   3
  -7 -17  -4   58.02    9.31   3
  -8 -17  -4   -1.84    3.46   3
  -9 -17  -4   11.35    5.91   3
  -2 -18  -4   -4.12    3.94   3
  -3 -18  -4    4.77    4.39   3
  -4 -18  -4    1.64    4.86   3
  -5 -18  -4   31.55    7.82   3
  -6 -18  -4    8.89    5.76   3
  -7 -18  -4   -1.83    2.77   3
  -8 -18  -4   -0.27    2.97   3
  -3 -19  -4   12.32    6.14   3
  -4 -19  -4    1.35    4.19   3
  -5 -19  -4   -0.25    4.29   3
  -6 -19  -4   -0.20    3.25   3
  -7 -19  -4   -1.06    3.25   3
  -6 -18   5   -2.28    3.01   3
  -6 -18   5   12.94    5.44   2
  -5 -18   5    2.68    3.95   2
  -4 -18   5   -0.49    3.28   2
  -3 -18   5    9.22    5.02   2
  -2 -18   5   10.08    5.02   2
  -1 -18   5   24.90    7.07   2
   0 -18   5    1.01    4.31   2
  -8 -17   5   21.47    6.33   2
  -7 -17   5   11.33    4.23   3
  -7 -17   5   11.62    5.41   2
  -6 -17   5    6.33    3.62   3
  -6 -17   5    9.80    4.55   2
  -5 -17   5   -1.03    3.68   2
  -5 -17   5    5.84    3.67   3
  -4 -17   5    9.26    4.79   2
  -3 -17   5    7.16    4.38   2
  -2 -17   5   -2.66    3.40   2
  -1 -17   5    1.36    3.90   2
   0 -17   5   12.08    5.44   2
   1 -17   5   23.04    6.76   2
   2 -17   5    8.49    4.43   2
  -9 -16   5   22.35    6.94   2
  -8 -16   5    7.98    4.63   2
  -7 -16   5   -0.27    3.71   2
  -6 -16   5   16.83    4.50   3
  -6 -16   5    6.71    4.53   2
  -5 -16   5    3.03    3.78   2
  -5 -16   5    6.25    3.27   3
  -4 -16   5   43.60    7.97   2
  -4 -16   5   49.47    7.08   3
  -3 -16   5   63.93    9.20   2
  -2 -16   5   32.59    7.00   2
  -1 -16   5   34.59    7.42   2
   0 -16   5    9.60    4.26   2
   1 -16   5    4.46    3.81   2
   2 -16   5   81.93   11.15   2
   3 -16   5   28.03    6.98   2
  -9 -15   5   -1.97    3.29   2
  -8 -15   5   14.32    5.46   2
  -7 -15   5   29.92    6.68   2
  -6 -15   5   13.99    5.15   2
  -5 -15   5    1.20    3.55   2
  -4 -15   5   16.87    4.37   3
  -4 -15   5   18.95    5.41   2
  -3 -15   5    3.00    3.51   2
  -2 -15   5   64.63    8.63   2
  -1 -15   5   48.50    8.02   2
   0 -15   5   57.04    8.87   2
   1 -15   5    9.77    4.45   2
   2 -15   5    5.20    3.87   2
   3 -15   5    4.28    3.62   2
   4 -15   5   39.70    8.38   2
 -10 -14   5    9.89    5.51   2
  -9 -14   5    2.57    4.28   2
  -8 -14   5   -2.84    3.39   2
  -7 -14   5    7.96    4.52   2
  -6 -14   5   50.29    7.71   2
  -5 -14   5    9.46    4.51   2
  -4 -14   5    4.00    3.67   2
  -3 -14   5   -0.79    3.28   2
  -3 -14   5    3.77    2.78   3
  -2 -14   5   63.29    8.46   2
  -1 -14   5    5.57    3.81   2
   0 -14   5    0.95    3.77   2
   1 -14   5   14.89    5.24   2
   2 -14   5    4.92    4.07   2
   3 -14   5   10.06    4.97   2
   4 -14   5   11.52    5.25   2
   5 -14   5   10.82    5.10   2
 -10 -13   5    5.58    4.66   2
  -9 -13   5   25.46    6.51   2
  -8 -13   5   42.60    7.63   2
  -7 -13   5   -1.42    3.06   2
  -6 -13   5    2.25    3.69   2
  -5 -13   5   16.66    4.91   2
  -4 -13   5    3.68    3.39   2
  -3 -13   5   27.50    5.95   2
  -2 -13   5   -0.85    3.06   2
  -2 -13   5    2.15    1.39   3
  -1 -13   5   81.67    8.91   2
   0 -13   5  183.05   12.74   2
   1 -13   5   79.62    9.53   2
   2 -13   5    2.36    3.65   2
   3 -13   5    3.13    3.57   2
   4 -13   5    4.07    3.37   2
   5 -13   5   10.76    4.77   2
   6 -13   5   46.87    9.13   2
 -11 -12   5   21.92    6.67   2
 -10 -12   5    3.98    4.26   2
  -9 -12   5   -2.68    3.18   2
  -8 -12   5   -4.13    3.54   2
  -7 -12   5   90.86    9.53   2
  -6 -12   5   10.06    4.36   2
  -5 -12   5    3.60    3.44   2
  -4 -12   5    4.29    3.41   2
  -3 -12   5    4.32    3.57   2
  -2 -12   5   27.52    5.70   2
  -1 -12   5   -0.64    2.76   2
   0 -12   5    2.48    3.11   2
   1 -12   5  193.41   12.95   2
   2 -12   5  117.93   10.40   2
   3 -12   5  140.84   11.57   2
   4 -12   5    8.09    4.51   2
  -5  12  -5    3.86    2.88   1
   5 -12   5    4.02    3.60   2
  -6  12  -5   15.40    4.37   1
   6 -12   5   12.76    5.12   2
  -7  12  -5   21.72    5.32   1
   7 -12   5   38.49    8.03   2
 -11 -11   5    3.43    4.58   2
 -10 -11   5    9.65    4.78   2
  -9 -11   5   40.00    7.49   2
  -8 -11   5   76.48    8.92   2
  -7 -11   5    7.12    3.95   2
  -6 -11   5    0.34    3.01   2
  -5 -11   5   19.90    5.09   2
  -4 -11   5    5.63    3.44   2
  -3 -11   5   14.61    4.55   2
  -2 -11   5   10.39    4.22   2
  -1 -11   5   35.45    4.59   3
  -1 -11   5   42.24    6.49   2
   0 -11   5   31.14    5.82   2
   1 -11   5  141.70   10.55   2
   2 -11   5   11.70    4.30   2
  -3  11  -5   12.88    2.91   1
   3 -11   5   14.19    4.94   2
   4 -11   5   52.15    8.26   2
  -4  11  -5   51.38    5.59   1
   5 -11   5   40.20    7.90   2
  -5  11  -5   40.19    5.61   1
   6 -11   5   -2.13    3.14   2
  -6  11  -5    1.00    2.56   1
  -7  11  -5    2.35    3.17   1
   7 -11   5    0.03    2.71   2
   8 -11   5    4.11    3.61   2
  -8  11  -5    2.16    4.18   1
 -11 -10   5   19.51    5.96   2
 -10 -10   5   10.97    4.96   2
  -9 -10   5    4.91    4.36   2
  -8 -10   5    5.05    3.73   2
  -7 -10   5   77.69    8.39   2
  -6 -10   5   63.26    7.24   2
  -5 -10   5  158.64   10.56   2
  -4 -10   5    3.44    3.24   2
  -3 -10   5  198.58   11.34   2
  -2 -10   5   48.55    6.28   2
  -1 -10   5   19.16    4.93   2
   0 -10   5    3.03    2.93   2
   0 -10   5    1.84    2.25   3
   1 -10   5   27.93    5.59   2
  -2  10  -5   50.59    4.67   1
  -2  10  -5   53.12    4.58   4
   2 -10   5   48.99    7.14   2
   3 -10   5  185.24   12.41   2
  -4  10  -5   56.33    5.87   1
  -4  10  -5   60.87    5.71   4
   4 -10   5   63.43    8.45   2
   5 -10   5    5.09    3.45   2
  -5  10  -5   -1.46    2.28   1
  -6  10  -5   32.18    5.53   1
   6 -10   5   32.81    7.00   2
  -7  10  -5   24.77    5.33   1
   7 -10   5   22.66    6.16   2
  -8  10  -5    2.75    3.28   1
   8 -10   5    1.92    2.85   2
 -11  -9   5   -1.88    4.10   2
 -10  -9   5    9.15    4.84   2
  -9  -9   5   41.33    7.32   2
  -8  -9   5   28.47    6.16   2
  -7  -9   5    3.59    3.65   2
  -6  -9   5   14.53    4.46   2
  -5  -9   5   43.90    5.93   2
  -4  -9   5  309.23   14.57   2
  -3  -9   5  109.60    8.15   2
  -2  -9   5   17.10    4.22   2
  -1  -9   5   18.12    4.42   2
   0  -9   5   72.06    7.36   2
  -1   9  -5  108.71    5.42   4
   1  -9   5   89.57    7.88   2
  -1   9  -5  100.36    5.49   1
   2  -9   5   14.52    4.45   2
  -2   9  -5   15.00    2.91   4
  -2   9  -5   15.47    2.93   1
  -3   9  -5   23.53    3.82   1
   3  -9   5   32.17    5.99   2
  -3   9  -5   26.47    3.92   4
  -4   9  -5  139.39    8.37   1
   4  -9   5  140.13   10.73   2
  -4   9  -5  144.86    8.04   4
  -5   9  -5  178.66   10.04   1
   5  -9   5  182.28   12.73   2
  -5   9  -5  183.53    9.59   4
  -6   9  -5   36.15    5.66   1
   6  -9   5   42.51    7.67   2
  -6   9  -5   44.53    5.72   4
   7  -9   5    7.72    3.88   2
  -7   9  -5    8.68    3.45   1
  -8   9  -5   30.96    6.08   1
   8  -9   5   34.21    7.53   2
  -9   9  -5    0.86    2.52   1
 -12  -8   5   14.00    6.12   2
 -11  -8   5   20.37    6.27   2
 -10  -8   5    6.13    4.27   2
  -9  -8   5   11.07    4.63   2
  -8  -8   5    7.11    4.10   2
  -7  -8   5   11.68    4.06   2
  -6  -8   5  245.51   13.26   2
  -5  -8   5   95.11    7.71   2
  -4  -8   5   24.90    4.60   2
  -3  -8   5    1.32    2.41   2
  -2  -8   5   60.51    6.07   2
  -1  -8   5  119.12    8.13   2
   0  -8   5   27.05    2.78   1
   0  -8   5   25.91    4.69   2
   1  -8   5  176.74    7.59   3
   1  -8   5  176.41   10.15   2
   1  -8   5  177.95    7.78   1
   2  -8   5  170.86   10.69   2
   3  -8   5   29.60    5.47   2
  -3   8  -5   37.08    4.27   1
  -3   8  -5   39.88    4.20   4
  -4   8  -5   31.23    4.39   1
   4  -8   5   31.27    5.81   2
  -4   8  -5   36.02    4.46   4
  -5   8  -5   21.75    4.31   1
   5  -8   5   11.58    4.11   2
  -5   8  -5    9.89    2.96   4
  -6   8  -5   25.94    4.65   4
   6  -8   5   36.56    6.74   2
  -6   8  -5   37.75    5.64   1
   7  -8   5  110.59   11.33   2
  -7   8  -5  103.33    7.95   4
  -7   8  -5  102.95    8.53   1
   8  -8   5   47.13    8.39   2
  -8   8  -5   51.24    7.18   1
  -9   8  -5   -1.32    2.63   1
 -12  -7   5   14.06    6.43   2
 -11  -7   5    8.28    4.93   2
 -10  -7   5   27.87    6.97   2
  -9  -7   5   62.82    8.47   2
  -8  -7   5   94.12    8.71   2
  -7  -7   5    2.16    2.88   2
  -6  -7   5   26.57    5.19   2
  -5  -7   5   30.40    5.12   2
  -4  -7   5  153.45    9.07   2
  -3  -7   5  136.07    8.51   2
  -2  -7   5   58.26    5.45   2
  -1  -7   5   63.94    3.34   1
  -1  -7   5   60.35    5.59   2
   0  -7   5  234.94   11.59   2
   0  -7   5  247.59    8.52   1
   1  -7   5  134.99    6.57   1
   1  -7   5  144.48    8.81   2
   2  -7   5   86.20    5.64   1
   2  -7   5   86.45    7.24   2
   3  -7   5   53.49    5.03   1
   3  -7   5   61.46    6.86   2
  -4   7  -5   27.62    3.84   4
  -4   7  -5   40.68    4.69   1
   4  -7   5   37.16    5.90   2
  -5   7  -5   41.56    4.90   4
   5  -7   5   41.74    6.59   2
  -5   7  -5   47.72    5.33   1
   6  -7   5  142.66   10.90   2
  -6   7  -5  140.81    8.88   1
  -6   7  -5  127.46    8.23   4
  -7   7  -5   23.34    5.08   1
  -7   7  -5   19.48    4.41   4
   7  -7   5   23.57    6.04   2
  -8   7  -5    3.90    2.62   4
   8  -7   5    5.11    3.57   2
  -8   7  -5    4.39    3.26   1
  -9   7  -5    9.18    4.11   1
 -10   7  -5   -0.72    2.21   1
 -12  -6   5   24.26    7.35   2
 -11  -6   5   14.77    6.03   2
 -10  -6   5    0.76    3.46   2
  -9  -6   5    6.53    4.06   2
  -8  -6   5   11.78    4.40   2
  -7  -6   5   79.52    8.05   2
  -6  -6   5  164.44   10.22   2
  -5  -6   5    2.90    2.52   2
  -4  -6   5   10.16    3.10   2
  -3  -6   5   12.18    1.22   1
  -3  -6   5    8.89    2.87   2
  -2  -6   5  131.59    4.47   1
  -2  -6   5  120.98    7.38   2
  -1  -6   5  139.00    5.15   1
  -1  -6   5  140.77    7.97   2
   0  -6   5  103.01    4.82   1
   0  -6   5  104.23    6.90   2
   1  -6   5   93.08    6.69   2
   1  -6   5  100.41    5.24   1
   2  -6   5  264.51    8.30   3
   2  -6   5  244.92   12.03   2
   2  -6   5  261.55   10.25   1
   3  -6   5  267.49   13.14   2
   3  -6   5  269.77   11.43   1
   4  -6   5   40.33    5.82   2
   4  -6   5   37.52    4.70   1
   5  -6   5    6.16    3.06   2
   6  -6   5   32.73    6.00   2
  -6   6  -5   45.79    5.57   1
  -6   6  -5   37.51    4.96   4
   7  -6   5   33.94    6.75   2
  -7   6  -5   23.70    4.85   1
  -7   6  -5   41.51    5.67   4
  -8   6  -5   74.21    8.03   1
  -8   6  -5   87.77    8.19   4
  -9   6  -5   44.50    6.67   4
  -9   6  -5   53.33    7.43   1
 -10   6  -5    0.02    2.21   1
 -12  -5   5   20.88    6.89   2
 -11  -5   5   10.73    5.67   2
 -10  -5   5   -1.35    3.54   2
  -9  -5   5   16.70    5.18   2
  -8  -5   5   61.01    7.72   2
  -7  -5   5   -1.63    2.77   2
  -6  -5   5   -0.62    2.28   2
  -5  -5   5  135.35    8.56   2
  -5  -5   5  127.39    5.73   1
  -4  -5   5   61.22    5.27   2
  -4  -5   5   55.63    3.31   1
  -3  -5   5  194.85    6.38   1
  -3  -5   5  192.06    9.52   2
  -2  -5   5    3.18    2.06   2
  -2  -5   5    1.02    0.65   1
  -1  -5   5   28.06    2.07   1
  -1  -5   5   23.79    3.49   2
   0  -5   5    2.17    2.07   2
   0  -5   5    3.88    1.15   1
   1  -5   5    2.30    2.15   2
   1  -5   5    4.75    1.50   1
   2  -5   5   37.12    2.24   3
   2  -5   5   37.17    3.71   1
   2  -5   5   36.51    4.56   2
   3  -5   5    3.95    2.39   2
   3  -5   5    2.50    1.54   1
   4  -5   5   43.89    4.93   1
   4  -5   5   44.87    5.77   2
   5  -5   5   62.23    6.97   2
   5  -5   5   69.67    6.47   1
   6  -5   5   16.80    4.41   2
  -7   5  -5   36.91    5.43   1
   7  -5   5   58.10    7.92   2
  -7   5  -5   40.58    5.35   4
  -8   5  -5    6.92    3.30   1
  -8   5  -5    4.94    2.97   4
  -9   5  -5    7.91    3.85   1
  -9   5  -5    5.56    3.45   4
 -10   5  -5   12.89    4.51   1
 -10   5  -5   19.34    4.86   4
 -11   5  -5    2.18    2.47   1
 -12  -4   5   10.53    5.71   2
 -11  -4   5  119.35   12.93   2
 -10  -4   5   79.14   10.13   2
  -9  -4   5   39.52    7.18   2
  -8  -4   5    9.31    3.81   2
  -7  -4   5  138.91    7.43   1
  -7  -4   5  157.24   10.38   2
  -6  -4   5   22.12    4.46   2
  -6  -4   5   17.36    2.71   1
  -5  -4   5   11.78    2.18   1
  -5  -4   5    9.15    3.21   2
  -4  -4   5    8.56    1.69   1
  -4  -4   5    8.05    2.72   2
  -3  -4   5  101.13    6.54   2
  -3  -4   5  113.96    4.71   1
  -2  -4   5  297.33    8.79   1
  -2  -4   5  297.41   11.67   2
  -1  -4   5   38.46    3.97   2
  -1  -4   5   29.96    2.22   1
   0  -4   5  166.08    6.14   1
   0  -4   5  165.60    8.01   2
   1  -4   5  113.06    6.63   2
   1  -4   5  117.43    5.36   1
   2  -4   5    1.34    1.85   2
   2  -4   5    0.30    1.05   1
   3  -4   5  127.94    6.95   1
   3  -4   5  126.05    7.77   2
   4  -4   5   65.69    5.20   1
   4  -4   5   55.38    5.85   2
   5  -4   5    9.10    2.75   1
   5  -4   5    7.28    3.08   2
   6  -4   5   35.99    5.90   2
   6  -4   5   47.17    5.86   1
   7  -4   5    3.50    2.98   2
  -8   4  -5   -1.70    2.01   4
  -8   4  -5   -2.01    2.25   1
  -9   4  -5    5.57    3.07   4
  -9   4  -5    0.18    2.78   1
 -10   4  -5    7.78    4.42   1
 -10   4  -5    6.94    3.66   4
 -11   4  -5    0.03    3.73   1
 -11   4  -5   -0.09    3.58   4
 -12  -3   5    2.41    4.70   2
 -11  -3   5    6.28    4.97   2
 -10  -3   5    6.03    4.36   2
  -9  -3   5   73.55    9.01   2
  -9  -3   5   72.75    6.64   1
  -8  -3   5   77.86    8.38   2
  -8  -3   5   94.23    6.58   1
  -7  -3   5    6.54    3.33   2
  -7  -3   5   12.48    2.93   1
  -6  -3   5    9.26    2.57   1
  -6  -3   5    6.56    3.02   2
  -5  -3   5  107.59    5.62   1
  -5  -3   5  103.77    7.38   2
  -4  -3   5  357.87   14.24   2
  -4  -3   5  369.64   11.42   1
  -3  -3   5  283.78    8.99   1
  -3  -3   5  271.86   11.34   2
  -2  -3   5   80.69    5.36   2
  -2  -3   5   84.13    3.98   1
  -1  -3   5   17.89    2.78   2
  -1  -3   5   20.25    1.94   1
   0  -3   5    9.94    2.35   2
   0  -3   5   15.09    1.84   1
   1  -3   5    4.45    1.93   2
   1  -3   5    4.52    1.33   1
   2  -3   5  423.20   14.74   2
   2  -3   5  402.17   13.08   1
   3  -3   5   65.93    4.76   1
   3  -3   5   71.65    5.49   2
   4  -3   5  183.61    9.79   2
   4  -3   5  194.23    9.20   1
   5  -3   5  273.72   13.21   2
   5  -3   5  273.98   12.04   1
   6  -3   5  174.67   10.10   1
   6  -3   5  148.86    9.99   2
   7  -3   5   10.37    3.40   1
  -8   3  -5    4.32    2.75   4
  -8   3  -5    7.65    3.32   1
  -9   3  -5   34.19    6.01   1
  -9   3  -5   38.83    6.03   4
 -10   3  -5   15.60    4.74   1
 -10   3  -5   21.57    5.39   4
 -11   3  -5   -1.97    2.93   4
 -11   3  -5   -1.40    3.49   1
 -10  -2   5   45.57    6.30   1
  -9  -2   5   29.61    4.97   1
  -8  -2   5   13.68    3.55   1
  -7  -2   5   34.63    4.32   1
  -6  -2   5   12.36    2.91   1
  -5  -2   5  267.42    9.98   1
  -5  -2   5  251.71   11.94   2
  -4  -2   5    4.76    1.66   1
  -4  -2   5    4.06    2.11   2
  -3  -2   5  219.04    7.79   1
  -3  -2   5  217.97    9.60   2
  -2  -2   5  158.66    7.42   2
  -2  -2   5  165.85    6.16   1
  -1  -2   5   62.82    4.28   2
  -1  -2   5   63.89    3.42   1
   0  -2   5   35.52    3.36   2
   0  -2   5   32.17    2.50   1
   1  -2   5   35.27    3.28   2
   1  -2   5   37.87    2.84   1
   2  -2   5  174.41    7.78   2
   2  -2   5  167.37    7.05   1
   3  -2   5   72.60    5.17   2
   3  -2   5   79.85    5.05   1
   4  -2   5   73.33    5.28   1
   4  -2   5   71.01    5.70   2
   5  -2   5   92.68    6.43   1
   5  -2   5   97.93    7.06   2
   6  -2   5   63.85    6.78   2
   6  -2   5   50.52    5.82   1
   7  -2   5  108.75    8.38   1
   8  -2   5    5.12    2.68   1
  -9   2  -5    6.91    3.30   4
  -9   2  -5   14.00    4.15   1
 -10   2  -5   57.76    7.39   4
 -10   2  -5   37.32    6.36   1
 -11   2  -5   40.24    6.87   4
 -11   2  -5   44.34    7.69   1
 -12   2  -5    6.75    4.16   4
 -12   2  -5    5.33    4.64   1
 -11  -1   5    1.57    3.53   1
 -10  -1   5    4.35    3.37   1
  -9  -1   5   66.55    6.79   1
  -8  -1   5   58.16    6.01   1
  -7  -1   5  227.36   10.67   1
  -6  -1   5   23.37    3.64   1
  -5  -1   5   16.13    2.92   1
  -4  -1   5  202.30    8.08   1
  -3  -1   5   65.06    4.80   2
  -3  -1   5   63.89    3.95   1
  -2  -1   5   70.83    3.96   1
  -2  -1   5   77.30    4.85   2
  -1  -1   5  322.66   11.02   2
  -1  -1   5  324.79    9.99   1
   0  -1   5  712.44   18.18   1
   0  -1   5  665.48   19.75   2
   2  -1   5   14.45    2.26   1
   3  -1   5   13.37    2.45   2
   3  -1   5   14.94    2.51   1
  -3   1  -5   11.40    1.54   3
   4  -1   5  104.13    6.19   1
   4  -1   5  108.65    6.56   2
  -4   1  -5   99.06    4.09   3
   5  -1   5    4.63    2.12   2
   5  -1   5   14.20    3.00   1
   6  -1   5    4.42    2.38   1
   7  -1   5   21.92    4.28   1
   8  -1   5    1.23    2.21   1
 -10   1  -5   -0.62    3.05   1
 -10   1  -5    3.05    3.07   4
 -11   1  -5   49.58    7.45   4
 -11   1  -5   41.55    7.39   1
 -12   1  -5   46.01    7.61   4
 -12   1  -5   46.30    8.17   1
 -11   0   5    8.63    4.13   1
 -10   0   5   19.46    4.93   1
  -9   0   5    3.00    2.89   1
  -8   0   5    5.68    2.81   1
  -7   0   5   11.87    3.35   1
  -6   0   5  114.09    6.99   1
  -5   0   5  183.29    8.57   1
  -4   0   5   -1.97    1.13   1
  -3   0   5   57.40    3.93   1
  -2   0   5   30.16    2.77   1
  -2   0   5   30.41    3.11   2
  -1   0   5  239.81    8.83   2
  -1   0   5  253.01    8.48   1
   0   0   5   62.04    3.47   2
   0   0   5   60.85    3.62   1
   1   0   5  555.98   15.29   1
   1   0   5  546.25   15.68   2
  -2   0  -5  797.66   21.97   3
   2   0   5  793.04   22.09   2
   2   0   5  797.62   21.20   1
   3   0   5   40.40    3.37   2
  -3   0  -5   40.32    2.95   3
   3   0   5   45.98    3.57   1
   4   0   5    3.87    1.78   1
  -4   0  -5    7.22    1.62   3
   5   0   5   53.59    4.78   2
  -5   0  -5   44.16    3.17   3
   5   0   5   50.35    4.91   1
   6   0   5  329.04   13.79   1
   7   0   5  392.79   16.12   1
   8   0   5    0.69    2.25   1
   9   0   5   12.54    3.96   1
 -10   0  -5    3.87    3.31   1
 -10   0  -5    0.46    2.70   4
 -11   0  -5   21.17    5.56   1
 -11   0  -5    9.17    4.10   4
 -12   0  -5   26.35    6.66   1
 -12   0  -5   23.78    6.08   4
 -11   1   5    0.24    3.22   1
 -10   1   5    7.98    3.91   1
  -9   1   5   47.83    6.57   1
  -8   1   5   57.31    6.42   1
  -7   1   5   38.78    5.18   1
  -6   1   5   15.24    3.49   1
  -5   1   5    1.52    1.95   1
  -4   1   5   44.56    4.21   1
  -3   1   5   66.01    4.39   1
  -2   1   5   28.64    2.88   1
  -1   1   5    0.67    1.11   1
  -1   1   5    0.13    0.41   2
   0   1   5  374.96   11.73   1
   0   1   5  396.27   11.57   2
   1   1   5  677.00   18.37   1
   1   1   5  697.16   18.32   2
  -1  -1  -5  672.62   20.06   3
   2   1   5   37.67    3.01   1
   2   1   5   42.91    2.76   2
  -2  -1  -5   34.41    3.20   3
   3   1   5    6.64    1.62   2
  -3  -1  -5    4.43    1.64   3
   3   1   5    5.20    1.67   1
  -4  -1  -5  214.21    8.00   3
   4   1   5  224.83    9.13   1
   4   1   5  219.58    8.95   2
  -5  -1  -5   65.08    4.04   3
   5   1   5   53.68    5.03   1
  -6  -1  -5    1.76    1.73   3
   6   1   5    7.84    2.42   1
   7   1   5  244.40   11.97   1
   8   1   5  133.51    9.17   1
   9   1   5   98.59    8.38   1
 -11  -1  -5   12.00    4.68   1
 -11  -1  -5    4.69    3.42   4
 -12  -1  -5   10.89    4.46   4
 -12  -1  -5    6.84    4.76   1
 -11   2   5   29.65    6.42   1
 -10   2   5   32.33    6.34   1
  -9   2   5   -0.62    2.73   1
  -8   2   5    4.00    3.18   1
  -7   2   5  125.51    8.47   1
  -6   2   5  128.97    8.09   1
  -5   2   5   56.75    5.33   1
  -4   2   5   17.26    3.21   1
  -3   2   5    6.77    2.03   1
  -2   2   5   48.03    3.64   1
   0   2   5  140.76    5.21   2
   0   2   5  141.86    6.10   1
  -1  -2  -5  389.96   13.45   3
   1   2   5  402.98   10.94   2
  -2  -2  -5  119.48    5.92   3
   2   2   5  104.29    5.17   1
   3   2   5   82.74    4.78   1
   3   2   5  100.88    4.29   2
  -3  -2  -5   90.11    5.01   3
  -4  -2  -5  239.18    8.86   3
   4   2   5  210.65    8.90   1
   5   2   5    5.36    1.96   1
  -5  -2  -5    3.69    1.86   3
  -6  -2  -5  241.20    9.63   3
   6   2   5  239.23   10.93   1
  -7  -2  -5  215.49    9.28   3
   7   2   5  205.91   10.81   1
   8   2   5    3.79    2.33   1
   9   2   5    2.55    2.37   1
  10   2   5   33.10    5.98   1
 -11  -2  -5   13.19    4.59   1
 -11  -2  -5   12.46    4.21   4
 -12  -2  -5    3.33    3.58   4
 -12  -2  -5   15.17    4.98   1
 -13  -2  -5    0.16    4.49   1
 -13  -2  -5    1.45    3.92   4
 -10   3   5    2.55    3.46   1
  -9   3   5    8.80    3.99   1
  -8   3   5  110.54    8.75   1
  -7   3   5    3.70    2.86   1
  -6   3   5    0.15    2.34   1
  -5   3   5   18.98    3.85   1
  -4   3   5  110.01    6.79   1
  -3   3   5   14.73    2.74   1
  -2   3   5  174.90    7.49   1
  -1   3   5   33.44    3.19   1
   0   3   5   65.09    4.10   1
   0  -3  -5   62.77    4.84   3
   1   3   5    1.51    1.17   1
  -1  -3  -5    2.69    2.05   3
  -2  -3  -5   45.01    4.00   3
   2   3   5   39.21    3.22   1
  -3  -3  -5   31.68    3.42   3
   3   3   5   25.76    2.82   1
   4   3   5  576.49   17.27   1
  -4  -3  -5  554.84   17.65   3
  -5  -3  -5  488.00   16.26   3
   5   3   5  483.82   16.06   1
   6   3   5  115.43    7.14   1
  -6  -3  -5  118.17    6.53   3
  -7  -3  -5   34.33    4.12   3
   7   3   5   38.22    4.92   1
   8   3   5    6.15    2.97   1
   9   3   5  103.80    8.38   1
  10   3   5   42.94    6.65   1
 -11  -3  -5   -1.93    2.55   4
 -11  -3  -5    2.07    3.47   1
 -12  -3  -5    0.78    3.35   4
 -12  -3  -5   12.23    4.82   1
 -13  -3  -5    3.66    4.88   1
 -13  -3  -5   -3.81    3.66   4
 -10   4   5   63.66    8.57   1
  -9   4   5   40.05    6.83   1
  -8   4   5    2.95    3.13   1
  -7   4   5   14.87    4.18   1
  -6   4   5   69.57    6.66   1
  -5   4   5  137.73    8.38   1
  -4   4   5    3.86    2.30   1
  -3   4   5  106.95    6.24   1
  -2   4   5  119.77    6.25   1
  -1   4   5  218.25    8.48   1
   0   4   5  118.22    5.90   1
   0  -4  -5  124.43    7.18   3
   1   4   5  220.19    8.30   1
  -1  -4  -5  211.05    9.42   3
  -2  -4  -5   94.28    5.74   3
   2   4   5   99.60    5.14   1
   3   4   5  128.67    6.04   1
  -3  -4  -5  135.90    6.99   3
   4   4   5  178.70    7.71   1
  -4  -4  -5  175.73    8.36   3
  -5  -4  -5   23.67    3.54   3
   5   4   5   19.54    3.10   1
   6   4   5   33.98    4.10   1
  -6  -4  -5   33.10    4.19   3
   7   4   5  103.13    7.12   1
  -7  -4  -5  110.27    7.14   3
   8   4   5  147.93    9.06   1
  -8  -4  -5  134.32    8.18   3
   9   4   5    4.16    2.28   1
  10   4   5   43.71    6.60   1
 -12  -4  -5   19.81    5.62   1
 -12  -4  -5   20.56    5.34   4
 -13  -4  -5    1.25    3.76   4
 -13  -4  -5    3.06    4.66   1
 -10   5   5    0.26    3.42   1
  -9   5   5   28.53    6.19   1
  -8   5   5   89.29    8.71   1
  -7   5   5    0.70    2.57   1
  -6   5   5   21.93    4.51   1
  -5   5   5   87.09    7.01   1
  -4   5   5   64.46    5.95   1
  -3   5   5  123.74    7.01   1
  -2   5   5   37.47    3.91   1
  -1   5   5  158.46    7.26   1
   1  -5  -5  170.26    9.01   3
   0  -5  -5   67.77    5.42   3
   0   5   5   74.05    4.57   1
  -1  -5  -5    4.94    2.51   3
   1   5   5    7.25    1.95   1
   2   5   5    3.32    1.44   1
  -2  -5  -5    1.82    2.11   3
  -3  -5  -5  123.76    7.07   3
   3   5   5  130.16    6.14   1
   4   5   5  222.71    8.86   1
  -4  -5  -5  218.16    7.14   2
  -4  -5  -5  229.27   10.10   3
  -5  -5  -5  210.25   10.19   3
   5   5   5  210.07    8.96   1
  -6  -5  -5   34.15    4.48   3
   6   5   5   34.49    3.99   1
   7   5   5   -0.30    1.37   1
  -7  -5  -5    1.40    2.50   3
   8   5   5   10.82    3.19   1
  -8  -5  -5   14.55    4.04   3
   9   5   5  100.35    7.72   1
  -9  -5  -5  107.76    7.81   3
  10   5   5   47.99    6.90   1
  11   5   5   -2.47    2.36   1
 -12  -5  -5    8.19    4.20   1
 -12  -5  -5   11.15    4.02   4
  -9   6   5   -0.79    3.36   1
  -8   6   5    3.07    3.36   1
  -7   6   5    1.18    2.74   1
  -6   6   5   25.12    5.07   1
  -5   6   5  132.99    8.74   1
  -4   6   5    2.50    2.40   1
  -3   6   5   64.94    5.46   1
  -2   6   5   15.30    3.01   1
  -1   6   5   47.59    4.07   1
   1  -6  -5   41.94    5.20   3
   0   6   5  160.99    7.23   1
   0  -6  -5  150.59    8.55   3
   1   6   5   76.29    4.77   1
  -1  -6  -5   74.90    5.97   3
  -1  -6  -5   72.45    3.70   2
  -2  -6  -5   17.72    3.44   3
   2   6   5   21.66    2.81   1
  -2  -6  -5   18.41    1.53   2
  -3  -6  -5   13.29    3.26   3
   3   6   5    8.20    2.06   1
  -4  -6  -5   18.73    1.77   2
   4   6   5   21.04    2.85   1
  -4  -6  -5   16.91    3.63   3
  -5  -6  -5    6.14    1.51   2
   5   6   5    3.45    1.72   1
  -5  -6  -5    8.28    2.99   3
  -6  -6  -5   59.25    5.82   3
  -6  -6  -5   50.95    3.84   2
   6   6   5   55.20    4.63   1
  -7  -6  -5  134.74    8.72   3
   7   6   5  138.99    8.15   1
  -8  -6  -5   39.27    5.51   3
   8   6   5   49.16    5.50   1
   9   6   5    4.23    2.50   1
  -9  -6  -5    4.41    3.16   3
  10   6   5   -2.08    2.09   1
  11   6   5   30.44    5.78   1
  -9   7   5   15.71    5.08   1
  -8   7   5    3.86    3.67   1
  -7   7   5   14.24    4.71   1
  -6   7   5    0.86    2.70   1
  -5   7   5    7.58    3.29   1
  -4   7   5   10.19    3.25   1
  -3   7   5   58.29    5.55   1
  -2   7   5   22.10    3.64   1
  -1   7   5    3.37    1.90   1
   1  -7  -5    6.29    3.27   3
   0  -7  -5  167.92    9.45   3
   0  -7  -5  169.25    7.64   2
   0   7   5  169.79    7.77   1
  -1  -7  -5  295.28    9.97   2
   1   7   5  273.65   10.38   1
  -1  -7  -5  274.11   12.34   3
  -2  -7  -5   62.01    5.50   3
  -2  -7  -5   66.16    3.48   2
   2   7   5   67.22    4.51   1
  -3  -7  -5   13.32    1.58   2
   3   7   5   14.34    2.51   1
  -3  -7  -5   11.76    3.33   3
  -4  -7  -5   65.78    3.56   2
  -4  -7  -5   74.56    6.13   3
  -5  -7  -5   48.72    5.79   3
  -6  -7  -5   63.17    6.50   3
  -7  -7  -5    7.55    3.39   3
  -8  -7  -5   79.83    7.70   3
  -9  -7  -5   42.55    6.17   3
   9   7   5   45.44    5.72   1
  10   7   5   39.06    5.87   1
 -10  -7  -5   42.93    6.34   3
  -8   8   5   -0.80    2.64   1
  -7   8   5   31.15    6.09   1
  -6   8   5   31.37    5.78   1
  -5   8   5   27.13    5.21   1
  -4   8   5    3.53    2.56   1
  -3   8   5   26.13    4.26   1
  -2   8   5    3.17    2.33   1
  -1   8   5   79.91    5.64   1
   1  -8  -5   81.95    5.86   2
   1  -8  -5   78.92    7.37   3
   0  -8  -5   32.93    3.65   2
   0   8   5   32.42    3.74   1
   0  -8  -5   36.17    5.24   3
  -1  -8  -5   83.05    4.87   2
   1   8   5   68.84    4.91   1
  -1  -8  -5   81.21    6.76   3
  -2  -8  -5  241.44    8.82   2
  -2  -8  -5  245.23   11.87   3
   2   8   5  245.29    9.66   1
  -3  -8  -5   15.47    3.89   3
   4   8   5   53.52    4.03   1
  -4  -8  -5   45.58    5.62   3
   5   8   5    6.04    2.00   1
  -5  -8  -5    4.32    3.01   3
   6   8   5  373.38   13.54   1
  -6  -8  -5  394.49   16.88   3
  -7  -8  -5  114.76    8.85   3
   7   8   5  112.27    6.90   1
  -8  -8  -5    7.50    3.75   3
   8   8   5   12.69    3.02   1
  -9  -8  -5   26.00    5.69   3
   9   8   5   31.80    4.82   1
 -10  -8  -5    4.37    3.69   3
  -8   9   5   -0.04    2.39   1
  -7   9   5    4.55    3.58   1
  -6   9   5   36.46    6.22   1
  -5   9   5   50.32    6.48   1
  -4   9   5  118.30    8.32   1
  -3   9   5   15.56    3.74   1
  -2   9   5    2.45    2.34   1
   2  -9  -5    2.45    3.42   3
   1  -9  -5    0.04    3.08   3
  -1   9   5   -0.31    1.77   1
   1  -9  -5    3.47    2.01   2
   0  -9  -5   79.08    7.45   3
   0   9   5   69.10    5.26   1
   0  -9  -5   66.94    5.30   2
   1   9   5   -0.18    1.62   1
  -1  -9  -5    0.84    3.06   3
  -1  -9  -5    0.41    1.33   2
   2   9   5    2.32    1.19   1
  -2  -9  -5    2.49    3.24   3
   3   9   5    0.63    1.47   1
  -3  -9  -5    2.86    3.02   3
   4   9   5   40.82    3.91   1
  -4  -9  -5   46.44    6.13   3
   5   9   5   16.57    2.84   1
  -5  -9  -5   19.88    5.03   3
  -6  -9  -5    0.39    3.33   3
   6   9   5   -0.46    1.34   1
  -7  -9  -5  134.75    9.69   3
   7   9   5  125.75    7.38   1
  -8  -9  -5   58.64    7.31   3
  -9  -9  -5   22.53    5.46   3
 -10  -9  -5   84.61    9.14   3
 -11  -9  -5    8.98    4.79   3
  -7  10   5    0.85    2.85   1
  -6  10   5   15.09    4.43   1
  -5  10   5    4.81    3.21   1
  -4  10   5   44.82    6.02   1
  -3  10   5   50.02    5.77   1
   2 -10  -5  160.57   10.83   3
  -2  10   5  168.50    9.26   1
   1 -10  -5   17.59    3.78   2
  -1  10   5   17.06    3.60   1
   1 -10  -5   19.28    4.92   3
   0  10   5    4.21    2.38   1
   0 -10  -5    7.14    3.84   3
   0 -10  -5    6.64    2.25   2
  -1 -10  -5    9.17    4.17   3
   1  10   5    6.40    2.35   1
  -2 -10  -5  162.18   10.47   3
  -3 -10  -5   29.66    5.61   3
   3  10   5   27.89    3.53   1
  -4 -10  -5   81.43    7.92   3
   4  10   5   67.74    4.86   1
  -5 -10  -5   23.91    5.33   3
   5  10   5   18.74    3.06   1
  -6 -10  -5  167.35   11.49   3
  -7 -10  -5   13.05    4.64   3
  -8 -10  -5    7.44    4.29   3
  -9 -10  -5    0.82    3.51   3
 -10 -10  -5   45.79    7.74   3
 -11 -10  -5    2.05    4.27   3
  -7  11   5   -1.25    2.24   1
  -6  11   5    4.12    2.84   1
  -5  11   5   20.60    4.76   1
  -4  11   5   62.31    7.11   1
  -3  11   5   20.53    4.54   1
   2 -11  -5   -0.04    2.65   3
  -2  11   5   -2.63    1.78   1
   1 -11  -5   66.80    7.57   3
  -1  11   5   68.94    5.81   1
   1 -11  -5   76.28    6.62   2
   0 -11  -5   15.36    4.78   3
   0  11   5   11.71    3.20   1
   1  11   5    4.67    2.16   1
  -1 -11  -5    0.01    3.37   3
  -2 -11  -5   30.29    5.95   3
   2  11   5   33.85    4.02   1
   3  11   5   55.33    4.81   1
  -3 -11  -5   70.79    7.81   3
   4  11   5  116.71    6.57   1
  -4 -11  -5  131.86    9.94   3
  -5 -11  -5  204.41   12.52   3
  -6 -11  -5    0.10    3.78   3
  -7 -11  -5   18.79    5.60   3
  -8 -11  -5   28.79    6.32   3
  -9 -11  -5   74.44    8.92   3
 -10 -11  -5   51.20    8.22   3
 -11 -11  -5    1.57    4.16   3
 -12 -11  -5   -4.04    3.92   3
  -6  12   5    9.99    3.68   1
  -5  12   5   16.57    4.92   1
  -4  12   5    8.36    3.55   1
  -3  12   5   96.49    7.86   1
   2 -12  -5   93.71    8.73   3
  -2  12   5   90.77    7.26   1
   2 -12  -5   89.62    8.22   2
  -1  12   5   34.75    4.76   1
   1 -12  -5   23.15    5.49   3
   0  12   5   33.27    4.41   1
   0 -12  -5   29.81    5.93   3
  -1 -12  -5   20.14    5.29   3
   2  12   5   43.17    4.59   1
  -2 -12  -5   39.58    6.70   3
  -3 -12  -5    9.44    4.39   3
  -4 -12  -5   -0.80    3.42   3
  -5 -12  -5  139.28   10.76   3
  -6 -12  -5    7.54    4.48   3
  -7 -12  -5   81.78    9.40   3
  -8 -12  -5   41.69    7.74   3
  -9 -12  -5   17.26    5.61   3
 -10 -12  -5   69.30    9.32   3
 -11 -12  -5   42.25    8.06   3
 -12 -12  -5    4.87    4.91   3
  -5  13   5    5.12    3.52   1
  -4  13   5   12.76    4.12   1
  -3  13   5   13.68    4.01   1
   2 -13  -5    7.20    4.07   3
  -2  13   5    1.15    2.35   1
  -1  13   5   31.44    4.89   1
   1 -13  -5   29.95    6.08   3
   0  13   5  134.95    8.23   1
   0 -13  -5  131.23   10.28   3
  -1 -13  -5  131.43   10.48   3
   1  13   5  138.22    7.83   1
  -2 -13  -5   -0.45    3.72   3
  -3 -13  -5   18.80    5.51   3
  -4 -13  -5   21.44    5.70   3
  -5 -13  -5   52.38    7.69   3
  -6 -13  -5    0.02    3.84   3
  -7 -13  -5    2.34    4.17   3
  -8 -13  -5   27.49    6.81   3
  -9 -13  -5   51.44    8.95   3
 -10 -13  -5   12.90    5.65   3
 -11 -13  -5    1.14    4.22   3
 -12 -13  -5    8.08    5.58   3
  -5  14   5   29.74    6.25   1
  -4  14   5    2.06    3.11   1
  -3  14   5   36.01    5.97   1
  -2  14   5   -0.09    2.36   1
   1 -14  -5   31.32    6.31   3
  -1  14   5   21.79    4.49   1
   0 -14  -5    7.68    4.40   3
  -1 -14  -5   14.49    5.21   3
  -2 -14  -5   61.17    8.67   3
  -3 -14  -5   71.14    8.87   3
  -4 -14  -5    0.92    3.87   3
  -5 -14  -5    6.30    4.32   3
  -6 -14  -5    1.43    4.14   3
  -7 -14  -5  106.32   11.05   3
  -8 -14  -5    5.56    5.05   3
  -9 -14  -5    3.35    4.62   3
 -10 -14  -5    0.20    4.36   3
 -11 -14  -5   44.52    9.12   3
  -4  15   5   -0.30    2.96   1
  -3  15   5    2.25    3.03   1
   1 -15  -5    5.51    3.92   3
   0 -15  -5   49.04    7.88   3
  -1 -15  -5   58.83    8.43   3
  -2 -15  -5   11.97    5.45   3
  -3 -15  -5    4.48    4.86   3
  -4 -15  -5    9.63    4.95   3
  -5 -15  -5   17.02    5.64   3
  -6 -15  -5   -1.23    4.07   3
  -7 -15  -5   32.29    7.15   3
  -8 -15  -5   23.04    6.79   3
  -9 -15  -5   30.73    7.75   3
 -10 -15  -5   19.24    6.89   3
 -11 -15  -5    4.46    5.60   3
   0 -16  -5    3.00    4.23   3
  -1 -16  -5    7.39    4.48   3
  -2 -16  -5    6.97    4.88   3
  -3 -16  -5   10.98    5.38   3
  -4 -16  -5   25.73    6.82   3
  -5 -16  -5    0.77    3.61   3
  -6 -16  -5   16.89    6.02   3
  -7 -16  -5   22.74    6.39   3
  -8 -16  -5    1.62    4.58   3
  -9 -16  -5    3.94    4.84   3
 -10 -16  -5   13.41    6.36   3
  -1 -17  -5    7.62    4.66   3
  -2 -17  -5    4.35    4.54   3
  -3 -17  -5    0.99    4.60   3
  -4 -17  -5   27.13    7.16   3
  -5 -17  -5   23.65    7.21   3
  -6 -17  -5    8.19    4.94   3
  -7 -17  -5    3.21    5.00   3
  -8 -17  -5    0.67    3.03   3
  -9 -17  -5   11.14    5.47   3
  -2 -18  -5   23.82    6.78   3
  -3 -18  -5   19.18    6.70   3
  -4 -18  -5   -0.82    4.84   3
  -5 -18  -5   -0.02    4.32   3
  -6 -18  -5   -2.55    3.68   3
  -7 -18  -5    0.33    3.27   3
  -8 -18  -5   -0.27    2.73   3
  -2 -19  -5    3.79    4.92   3
  -3 -19  -5    5.06    4.36   3
  -4 -19  -5   45.14    9.69   3
  -5 -19  -5    2.92    5.21   3
  -6 -19  -5   -6.15    2.81   3
  -5 -18   6   15.09    5.63   2
  -4 -18   6   31.56    7.51   2
  -3 -18   6   40.00    8.20   2
  -2 -18   6    3.87    4.84   2
  -1 -18   6   11.76    6.25   2
  -7 -17   6   18.05    6.02   2
  -6 -17   6    5.39    4.36   2
  -6 -17   6   15.72    4.69   3
  -5 -17   6    6.93    3.63   3
  -5 -17   6    3.22    4.06   2
  -4 -17   6    2.54    3.95   2
  -3 -17   6   15.13    5.55   2
  -2 -17   6   12.81    4.83   2
  -1 -17   6   15.51    5.34   2
   0 -17   6    9.89    5.47   2
   1 -17   6   22.55    6.55   2
  -8 -16   6   18.21    6.24   2
  -7 -16   6   16.74    5.80   2
  -6 -16   6    2.52    3.97   2
  -5 -16   6   20.85    6.12   2
  -5 -16   6   26.73    5.13   3
  -4 -16   6   14.56    5.61   2
  -3 -16   6    0.88    3.61   2
  -2 -16   6   10.82    4.83   2
  -1 -16   6   -0.14    3.31   2
   0 -16   6   12.91    5.18   2
   1 -16   6   20.37    6.44   2
   2 -16   6    3.89    4.18   2
   3 -16   6    4.26    4.31   2
  -9 -15   6   -1.22    3.89   2
  -8 -15   6   -1.24    3.82   2
  -7 -15   6   57.72    8.62   2
  -6 -15   6   26.65    6.48   2
  -5 -15   6   68.18    9.00   2
  -4 -15   6    3.99    2.99   3
  -4 -15   6    2.96    3.68   2
  -3 -15   6   10.85    4.73   2
  -2 -15   6   24.30    6.45   2
  -1 -15   6   29.35    6.65   2
   0 -15   6    7.36    4.31   2
   1 -15   6    9.64    4.65   2
   2 -15   6   11.26    4.82   2
   3 -15   6   35.64    7.47   2
   4 -15   6   23.00    6.84   2
  -9 -14   6   30.23    7.15   2
  -8 -14   6   -1.50    3.59   2
  -7 -14   6    4.85    3.84   2
  -6 -14   6    2.04    3.78   2
  -5 -14   6   21.71    5.98   2
  -4 -14   6   56.09    8.33   2
  -3 -14   6   42.36    7.35   2
  -2 -14   6    4.38    3.75   2
  -1 -14   6  108.88   10.08   2
   0 -14   6   45.55    8.02   2
   1 -14   6   23.00    6.21   2
   2 -14   6   10.52    5.20   2
   3 -14   6    1.83    3.58   2
   4 -14   6   17.90    5.92   2
   5 -14   6   58.83    9.80   2
 -10 -13   6   15.67    6.00   2
  -9 -13   6    6.66    4.77   2
  -8 -13   6    4.39    3.89   2
  -7 -13   6   10.81    4.68   2
  -6 -13   6    8.97    4.54   2
  -5 -13   6    9.66    4.63   2
  -4 -13   6    7.30    4.19   2
  -3 -13   6    3.30    3.95   2
  -2 -13   6  110.20    9.75   2
  -1 -13   6   53.97    7.87   2
   0 -13   6    0.49    3.03   2
   1 -13   6   13.95    5.24   2
   2 -13   6   67.08    9.53   2
   3 -13   6    7.80    4.33   2
   4 -13   6    5.78    4.03   2
   5 -13   6    9.18    4.24   2
   6 -13   6    9.17    4.93   2
 -10 -12   6    3.85    4.20   2
  -9 -12   6   43.75    8.02   2
  -8 -12   6   42.43    7.59   2
  -7 -12   6   12.87    4.84   2
  -6 -12   6   26.39    6.03   2
  -5 -12   6   25.13    5.74   2
  -4 -12   6   52.70    7.33   2
  -3 -12   6  143.13   10.51   2
  -2 -12   6   14.70    4.72   2
  -1 -12   6    4.97    3.81   2
   0 -12   6   25.26    5.71   2
   1 -12   6   79.94    9.28   2
   2 -12   6   11.70    4.70   2
   3 -12   6   13.22    4.50   2
   4 -12   6   22.46    6.10   2
   5 -12   6   23.89    6.67   2
   6 -12   6    1.08    2.86   2
  -6  12  -6    5.78    3.36   1
   7 -12   6    1.01    3.37   2
  -7  12  -6    3.16    3.58   1
 -11 -11   6   16.30    6.38   2
 -10 -11   6   -0.94    3.55   2
  -9 -11   6    4.26    3.72   2
  -8 -11   6   14.03    5.17   2
  -7 -11   6   30.08    6.37   2
  -6 -11   6  112.34    9.67   2
  -5 -11   6   10.04    4.08   2
  -4 -11   6    2.67    3.16   2
  -3 -11   6   62.98    7.46   2
  -2 -11   6   37.83    6.25   2
  -1 -11   6   38.04    6.43   2
   0 -11   6  101.86    9.00   2
   1 -11   6   25.98    5.77   2
   2 -11   6  147.04   11.38   2
   3 -11   6  137.55   11.30   2
   4 -11   6    7.29    3.87   2
  -4  11  -6    3.48    2.48   4
  -4  11  -6    3.79    2.62   1
  -5  11  -6   -0.41    2.48   1
   5 -11   6   -3.47    2.34   2
  -6  11  -6   15.46    4.00   1
   6 -11   6    4.99    3.55   2
  -7  11  -6   31.07    5.69   1
   7 -11   6    2.09    3.03   2
 -11 -10   6    5.47    4.81   2
 -10 -10   6    2.89    4.69   2
  -9 -10   6   23.02    6.59   2
  -8 -10   6   81.05    9.25   2
  -7 -10   6    3.77    3.64   2
  -6 -10   6    3.35    3.04   2
  -5 -10   6   11.56    4.33   2
  -4 -10   6   52.08    6.66   2
  -3 -10   6    9.82    4.29   2
  -2 -10   6   21.89    4.97   2
  -1 -10   6    4.10    3.38   2
   0 -10   6   28.50    5.69   2
   1 -10   6    0.30    3.13   2
   2 -10   6   47.54    7.23   2
  -3  10  -6    2.14    1.50   1
   3 -10   6   17.85    5.07   2
  -3  10  -6    1.33    1.20   4
  -4  10  -6   85.32    6.40   4
  -4  10  -6   85.93    6.85   1
   4 -10   6   89.17    9.71   2
  -5  10  -6   48.14    6.07   1
  -5  10  -6   53.06    5.93   4
   5 -10   6   48.78    8.09   2
  -6  10  -6   23.68    4.58   4
  -6  10  -6   24.27    4.94   1
   6 -10   6   26.93    6.57   2
  -7  10  -6    3.14    3.12   1
   7 -10   6    3.73    3.53   2
  -8  10  -6    8.95    4.00   1
   8 -10   6   -1.95    2.68   2
 -11  -9   6   14.14    5.70   2
 -10  -9   6    0.11    3.91   2
  -9  -9   6   -0.75    3.32   2
  -8  -9   6   -1.59    3.20   2
  -7  -9   6    6.26    3.74   2
  -6  -9   6   98.17    8.47   2
  -5  -9   6   15.82    4.49   2
  -4  -9   6    0.24    2.88   2
  -3  -9   6   95.86    7.95   2
  -2  -9   6  108.75    8.21   2
  -1  -9   6   85.07    7.52   2
   0  -9   6   64.95    7.21   2
   1  -9   6   10.45    3.77   2
  -2   9  -6    9.33    2.62   1
   2  -9   6    1.35    2.95   2
  -2   9  -6    6.23    2.11   4
   3  -9   6   12.44    4.34   2
  -3   9  -6    7.32    2.64   1
  -3   9  -6   12.63    2.95   4
  -4   9  -6   37.55    4.84   1
  -4   9  -6   40.63    4.75   4
   4  -9   6   40.45    6.80   2
  -5   9  -6   14.74    3.54   4
   5  -9   6   14.46    4.68   2
  -5   9  -6    5.91    3.08   1
   6  -9   6   32.89    6.82   2
  -6   9  -6   37.12    5.58   4
  -6   9  -6   37.86    5.89   1
   7  -9   6   25.31    6.16   2
  -7   9  -6   29.94    5.45   4
  -7   9  -6   20.33    5.10   1
   8  -9   6    0.87    3.16   2
  -8   9  -6   -0.51    3.25   1
  -9   9  -6   -2.16    3.52   1
 -11  -8   6   16.55    6.06   2
 -10  -8   6    3.49    3.77   2
  -9  -8   6   26.04    6.52   2
  -8  -8   6   55.97    7.81   2
  -7  -8   6    3.57    3.42   2
  -6  -8   6    0.59    2.82   2
  -5  -8   6    7.30    3.58   2
  -4  -8   6   93.01    7.69   2
  -3  -8   6   48.55    5.88   2
  -2  -8   6    5.85    2.99   2
  -1  -8   6  205.72   11.21   2
   0  -8   6  277.51    9.83   1
   0  -8   6  280.26   13.58   2
   1  -8   6   49.93    4.11   1
   1  -8   6   61.36    6.66   2
   2  -8   6   27.27    3.66   1
   2  -8   6   19.00    4.64   2
   3  -8   6   43.03    4.83   1
   3  -8   6   32.97    5.81   2
  -4   8  -6    5.20    2.25   4
  -4   8  -6    1.37    2.33   1
   4  -8   6    0.96    2.48   2
  -5   8  -6   52.07    5.59   4
   5  -8   6   58.10    7.93   2
  -5   8  -6   64.58    6.26   1
  -6   8  -6   86.07    7.67   1
  -6   8  -6   84.15    6.90   4
   6  -8   6   80.40    9.77   2
  -7   8  -6    1.62    2.77   4
  -7   8  -6    1.97    2.99   1
   7  -8   6    0.06    2.82   2
  -8   8  -6   12.48    4.69   1
   8  -8   6   23.50    6.17   2
  -8   8  -6   11.55    4.29   4
  -9   8  -6   -3.04    2.49   1
 -11  -7   6   -0.10    4.23   2
 -10  -7   6    0.17    3.76   2
  -9  -7   6    4.07    3.95   2
  -8  -7   6   27.68    6.06   2
  -7  -7   6   62.64    7.74   2
  -6  -7   6   68.92    7.47   2
  -5  -7   6    0.58    2.86   2
  -4  -7   6   13.87    3.76   2
  -3  -7   6   12.30    3.69   2
  -2  -7   6   96.54    7.20   2
  -1  -7   6  133.19    8.47   2
  -1  -7   6  134.64    5.45   1
   0  -7   6    7.47    3.03   2
   0  -7   6    5.99    1.62   1
   1  -7   6   85.06    7.02   2
   1  -7   6   86.21    5.18   1
   2  -7   6   37.76    4.11   1
   2  -7   6   36.17    5.56   2
   3  -7   6    2.12    2.67   2
   3  -7   6    6.20    2.27   1
   4  -7   6   16.87    4.33   2
   4  -7   6   14.24    3.27   1
   5  -7   6   63.84    7.87   2
  -6   7  -6   85.64    7.16   1
  -6   7  -6   97.95    7.06   4
   6  -7   6   90.54    9.77   2
   7  -7   6   70.29    9.07   2
  -7   7  -6   67.68    7.14   1
  -7   7  -6   54.76    6.42   4
  -8   7  -6   26.09    5.22   4
  -8   7  -6   34.56    6.17   1
   8  -7   6   29.10    6.47   2
  -9   7  -6    0.71    3.40   1
  -9   7  -6   -2.50    2.42   4
 -10   7  -6   -1.33    2.22   1
 -11  -6   6    9.56    5.28   2
 -10  -6   6    3.43    3.93   2
  -9  -6   6   43.15    7.58   2
  -8  -6   6    9.98    4.10   2
  -7  -6   6   -0.85    2.58   2
  -6  -6   6   14.14    4.22   2
  -5  -6   6   86.71    7.31   2
  -4  -6   6  170.96    9.94   2
  -3  -6   6  202.09   10.22   2
  -2  -6   6    0.57    2.26   2
  -2  -6   6    2.29    0.90   1
  -1  -6   6    9.01    2.97   2
  -1  -6   6    9.17    1.53   1
   0  -6   6  111.86    7.38   2
   0  -6   6  116.32    5.36   1
   1  -6   6  413.55   13.46   1
   1  -6   6  422.94   16.68   2
   2  -6   6   63.83    4.77   1
   2  -6   6   67.37    6.24   2
   3  -6   6   63.45    6.71   2
   3  -6   6   55.16    5.07   1
   4  -6   6   42.58    6.01   2
   4  -6   6   50.09    5.45   1
   5  -6   6    3.29    2.21   1
   5  -6   6    3.86    2.84   2
   6  -6   6   23.68    5.13   2
  -7   6  -6   -0.13    2.37   1
  -7   6  -6   -1.02    2.08   4
   7  -6   6    0.97    2.85   2
  -8   6  -6   15.01    4.24   4
  -8   6  -6    7.99    3.71   1
   8  -6   6    4.08    3.34   2
  -9   6  -6   17.00    5.18   1
  -9   6  -6   10.83    4.12   4
 -10   6  -6   -0.57    2.03   1
 -10   6  -6   -1.95    1.64   4
 -11  -5   6   34.83    8.08   2
 -10  -5   6   21.97    6.33   2
  -9  -5   6    6.46    3.89   2
  -8  -5   6   38.92    6.78   2
  -7  -5   6   85.68    8.04   2
  -6  -5   6   23.61    4.98   2
  -5  -5   6    4.67    3.03   2
  -4  -5   6   12.83    2.08   1
  -4  -5   6   12.16    3.50   2
  -3  -5   6  111.52    4.72   1
  -3  -5   6  105.77    7.12   2
  -2  -5   6   23.63    2.07   1
  -2  -5   6   29.56    4.18   2
  -1  -5   6   68.73    5.56   2
  -1  -5   6   66.68    3.54   1
   0  -5   6    3.95    2.40   2
   0  -5   6    6.21    1.45   1
   1  -5   6   43.42    4.82   2
   1  -5   6   36.41    3.38   1
   2  -5   6  578.14   20.18   2
   2  -5   6  555.73   17.47   1
   3  -5   6  622.77   19.60   1
   3  -5   6  599.42   21.97   2
   4  -5   6   73.38    6.75   2
   4  -5   6   87.98    6.28   1
   5  -5   6    6.34    2.99   2
   5  -5   6    4.95    2.54   1
   6  -5   6   99.19    8.51   2
   6  -5   6   91.36    7.57   1
   7  -5   6   59.35    7.96   2
  -8   5  -6   16.18    4.01   4
  -8   5  -6    5.78    3.30   1
   8  -5   6   12.84    4.66   2
  -9   5  -6    5.91    3.18   4
  -9   5  -6   10.02    4.01   1
 -10   5  -6   -2.65    3.13   1
 -10   5  -6   -2.25    2.67   4
 -11  -4   6   -0.47    3.59   2
 -10  -4   6    9.56    4.84   2
  -9  -4   6   36.90    7.29   2
  -8  -4   6   44.75    7.10   2
  -7  -4   6   13.95    4.32   2
  -6  -4   6   31.36    5.33   2
  -6  -4   6   30.68    3.54   1
  -5  -4   6   58.83    4.21   1
  -5  -4   6   55.79    6.21   2
  -4  -4   6  224.29    8.11   1
  -4  -4   6  208.20   10.65   2
  -3  -4   6   74.73    5.86   2
  -3  -4   6   78.59    4.21   1
  -2  -4   6  132.05    7.51   2
  -2  -4   6  143.23    5.58   1
  -1  -4   6    0.52    1.83   2
  -1  -4   6    1.57    0.88   1
   0  -4   6   53.72    3.36   1
   0  -4   6   50.99    4.79   2
   1  -4   6   63.80    4.05   1
   1  -4   6   73.15    5.55   2
   2  -4   6    7.79    1.99   1
   2  -4   6    5.57    2.40   2
   3  -4   6    8.62    2.84   2
   3  -4   6    8.58    2.38   1
   4  -4   6  275.17   12.87   2
   4  -4   6  262.19   11.55   1
   5  -4   6  193.10   10.13   1
   5  -4   6  199.51   11.42   2
   6  -4   6  104.67    8.04   1
   6  -4   6   97.52    8.32   2
   7  -4   6   20.93    4.75   1
   7  -4   6   33.37    6.19   2
  -8   4  -6  116.75    8.76   1
  -8   4  -6  129.28    8.50   4
  -9   4  -6   58.74    7.40   1
  -9   4  -6   47.03    6.55   4
 -10   4  -6   27.57    5.85   1
 -10   4  -6   37.31    6.16   4
 -11   4  -6    8.68    4.45   4
 -11   4  -6    7.41    4.73   1
 -11  -3   6   12.43    5.46   2
 -10  -3   6   17.56    5.80   2
  -9  -3   6   22.85    5.72   2
  -8  -3   6   17.76    3.75   1
  -8  -3   6   23.49    5.49   2
  -7  -3   6   66.89    7.41   2
  -7  -3   6   56.47    5.15   1
  -6  -3   6  116.29    6.54   1
  -6  -3   6  120.61    8.70   2
  -5  -3   6   37.06    3.72   1
  -5  -3   6   40.71    5.30   2
  -4  -3   6  128.88    6.06   1
  -4  -3   6  134.27    8.11   2
  -3  -3   6  243.73    8.58   1
  -3  -3   6  243.14   10.81   2
  -2  -3   6  416.34   14.97   2
  -2  -3   6  409.87   12.27   1
  -1  -3   6  282.18    9.18   1
  -1  -3   6  294.67   11.38   2
   0  -3   6   27.73    2.63   1
   0  -3   6   31.20    3.57   2
   1  -3   6   26.91    3.41   2
   1  -3   6   22.68    2.65   1
   2  -3   6  115.59    6.74   2
   2  -3   6  118.28    5.97   1
   3  -3   6   52.56    5.06   2
   3  -3   6   42.44    4.27   1
   4  -3   6   42.95    4.63   1
   4  -3   6   40.55    4.92   2
   5  -3   6   65.12    6.05   1
   5  -3   6   62.56    6.50   2
   6  -3   6   62.24    6.52   1
   6  -3   6   79.32    7.21   2
   7  -3   6  121.78    9.14   1
   7  -3   6  122.00    9.44   2
   8  -3   6   16.60    4.39   1
  -9   3  -6   12.58    4.23   1
  -9   3  -6   13.58    3.87   4
 -10   3  -6   76.89    8.50   4
 -10   3  -6   84.66    8.94   1
 -11   3  -6    9.20    5.22   1
 -11   3  -6    9.38    4.43   4
 -11  -2   6    3.07    2.52   2
 -10  -2   6    5.74    3.72   2
  -9  -2   6   35.49    5.46   1
  -8  -2   6  123.08    8.12   1
  -7  -2   6   31.91    5.71   2
  -7  -2   6   23.00    3.94   1
  -6  -2   6    6.32    2.44   1
  -6  -2   6    3.36    2.74   2
  -5  -2   6   60.58    4.72   1
  -5  -2   6   64.13    5.98   2
  -4  -2   6  154.64    6.93   1
  -4  -2   6  157.91    8.70   2
  -3  -2   6   17.34    2.47   1
  -3  -2   6   18.81    3.39   2
  -2  -2   6   30.96    3.69   2
  -2  -2   6   35.09    3.06   1
  -1  -2   6  422.49   14.29   2
  -1  -2   6  420.38   12.47   1
   0  -2   6  807.17   21.38   1
   0  -2   6  836.60   24.00   2
   1  -2   6  371.91   13.04   2
   1  -2   6  388.44   11.97   1
   2  -2   6    2.29    1.72   2
   2  -2   6    0.43    1.08   1
   3  -2   6    8.16    2.40   2
   3  -2   6    6.15    1.86   1
   4  -2   6   42.68    4.72   2
   4  -2   6   39.63    4.34   1
   5  -2   6  178.08    9.23   1
   5  -2   6  161.99    9.54   2
   6  -2   6  221.11   11.32   1
   6  -2   6  220.23   11.91   2
   7  -2   6   -1.05    1.92   1
   8  -2   6    1.67    2.38   1
   9  -2   6   67.82    8.10   1
 -10   2  -6   15.24    4.48   4
 -10   2  -6   18.36    5.04   1
 -11   2  -6    5.42    3.85   4
 -11   2  -6    0.10    3.59   1
 -12   2  -6   -0.54    3.40   4
 -12   2  -6    3.01    4.38   1
 -10  -1   6   15.78    4.45   1
  -9  -1   6    3.40    3.14   1
  -8  -1   6    1.03    2.44   1
  -7  -1   6   55.22    5.71   1
  -6  -1   6  168.98    8.59   1
  -5  -1   6  200.36    8.87   1
  -4  -1   6   45.83    3.92   1
  -4  -1   6   51.49    5.10   2
  -3  -1   6  187.08    9.12   2
  -3  -1   6  201.94    7.89   1
  -2  -1   6  553.21   17.82   2
  -2  -1   6  540.60   15.76   1
  -1  -1   6  116.04    5.46   1
  -1  -1   6  119.00    6.12   2
   0  -1   6    5.75    1.49   1
   0  -1   6    2.23    1.31   2
   1  -1   6  237.18    8.49   1
   2  -1   6  593.09   17.25   1
   4  -1   6    6.11    2.07   1
   4  -1   6    5.71    2.15   2
  -4   1  -6    6.19    1.42   3
   5  -1   6   35.55    4.48   1
   5  -1   6   46.31    5.07   2
   6  -1   6   35.89    4.96   1
   6  -1   6   35.61    5.05   2
   7  -1   6  126.61    8.69   1
   8  -1   6  112.89    8.90   1
   9  -1   6   80.82    8.66   1
 -10   1  -6    2.24    2.84   4
 -10   1  -6    2.54    3.46   1
 -11   1  -6   52.55    7.63   4
 -11   1  -6   53.28    7.97   1
 -12   1  -6   41.10    7.98   1
 -12   1  -6   32.56    6.91   4
 -11   0   6    7.53    4.15   1
 -10   0   6   -0.43    2.96   1
  -9   0   6   74.12    7.61   1
  -8   0   6   69.65    6.96   1
  -7   0   6    0.01    2.21   1
  -6   0   6    2.75    2.43   1
  -5   0   6   29.48    3.86   1
  -4   0   6   30.76    3.58   1
  -3   0   6  187.59    7.82   1
  -2   0   6   24.19    2.81   1
  -2   0   6   18.43    2.83   2
  -1   0   6  347.65   11.33   1
   0   0   6  437.59   13.43   2
   0   0   6  424.55   13.03   1
   1   0   6  949.81   24.86   1
   1   0   6  959.21   25.98   2
   2   0   6   37.02    3.33   1
   2   0   6   30.99    2.87   2
  -3   0  -6   14.94    2.30   3
   3   0   6   24.25    3.13   1
   3   0   6   18.81    2.59   2
   4   0   6  176.46    8.45   1
  -4   0  -6  196.66    7.29   3
   4   0   6  186.81    8.64   2
  -5   0  -6  145.04    6.08   3
   5   0   6  145.42    8.08   1
   6   0   6   -1.91    1.29   1
   7   0   6   14.76    3.66   1
   8   0   6   29.10    5.22   1
   9   0   6   52.68    7.41   1
  10   0   6   64.34    8.20   1
 -11   0  -6   29.81    5.99   4
 -11   0  -6   29.14    6.33   1
 -12   0  -6   10.73    4.89   4
 -12   0  -6    7.54    4.98   1
 -11   1   6   18.01    5.45   1
 -10   1   6   22.23    5.47   1
  -9   1   6    8.06    3.80   1
  -8   1   6   -0.44    2.64   1
  -7   1   6   44.76    5.70   1
  -6   1   6    6.28    2.91   1
  -5   1   6  171.47    8.67   1
  -4   1   6  129.46    6.95   1
  -3   1   6   54.75    4.25   1
  -2   1   6   81.97    4.90   1
  -1   1   6   27.55    2.96   1
  -1   1   6   21.71    2.40   2
   0   1   6  129.18    5.55   2
   0   1   6  134.68    6.12   1
   1   1   6  215.42    7.29   2
   1   1   6  204.81    7.97   1
   2   1   6  472.07   13.68   2
  -2  -1  -6  476.79   15.17   3
   2   1   6  451.88   14.17   1
   3   1   6  788.55   22.33   2
  -3  -1  -6  779.06   22.62   3
   3   1   6  802.36   22.21   1
  -4  -1  -6  184.07    7.58   3
   4   1   6  186.88    8.02   2
   4   1   6  179.17    8.31   1
  -5  -1  -6    5.92    2.00   3
   5   1   6    7.46    2.30   1
   6   1   6   28.25    4.25   1
   7   1   6   70.48    6.78   1
   8   1   6    4.35    2.61   1
   9   1   6    1.66    2.37   1
  10   1   6    1.64    2.51   1
 -11  -1  -6   16.62    4.81   4
 -11  -1  -6   18.91    5.59   1
 -12  -1  -6    7.58    4.40   1
 -12  -1  -6    5.65    3.72   4
 -10   2   6    2.95    3.61   1
  -9   2   6    2.67    3.47   1
  -8   2   6   12.24    3.98   1
  -7   2   6    0.97    2.49   1
  -6   2   6   26.30    4.63   1
  -5   2   6  185.56    9.36   1
  -4   2   6   95.30    6.11   1
  -3   2   6  161.31    7.60   1
  -2   2   6   55.66    4.12   1
  -1   2   6  124.94    6.20   1
   0   2   6  165.62    6.21   2
   0   2   6  157.30    6.97   1
   1   2   6  601.65   17.38   1
  -1  -2  -6  584.55   19.18   3
   1   2   6  613.01   16.37   2
  -2  -2  -6  221.01    9.09   3
   2   2   6  216.32    8.37   1
   2   2   6  209.09    6.75   2
   3   2   6    5.23    1.70   1
  -3  -2  -6    6.17    2.16   3
   3   2   6    6.39    1.30   2
  -4  -2  -6  216.56    8.71   3
   4   2   6  213.06    9.17   1
  -5  -2  -6  385.29   13.26   3
   5   2   6  394.47   14.25   1
   6   2   6  220.58   10.69   1
  -6  -2  -6  227.44    9.52   3
   7   2   6   28.35    4.64   1
   8   2   6   16.82    3.94   1
   9   2   6   54.02    7.02   1
  10   2   6   44.93    7.11   1
 -12  -2  -6    3.33    3.96   1
 -12  -2  -6    1.54    2.87   4
 -10   3   6    6.43    3.78   1
  -9   3   6    9.93    3.97   1
  -8   3   6    1.96    3.07   1
  -7   3   6   -1.72    2.27   1
  -6   3   6    8.38    3.35   1
  -5   3   6   38.97    4.89   1
  -4   3   6   26.91    3.85   1
  -3   3   6   80.56    5.47   1
  -2   3   6   33.77    3.57   1
  -1   3   6  100.72    5.55   1
   0   3   6  185.27    7.81   1
   0  -3  -6  195.08    9.39   3
   1   3   6  319.66   11.05   1
   1   3   6  328.22    9.28   2
  -1  -3  -6  325.70   12.59   3
  -2  -3  -6  321.68   12.14   3
   2   3   6  311.49   10.98   1
  -3  -3  -6  543.26   17.73   3
   3   3   6  561.00   16.80   1
   4   3   6   39.05    3.88   1
  -4  -3  -6   46.37    4.20   3
   5   3   6   77.57    5.48   1
  -5  -3  -6   85.67    5.51   3
   6   3   6   58.98    5.52   1
  -6  -3  -6   72.16    5.32   3
  -7  -3  -6  158.94    8.25   3
   7   3   6  147.31    8.91   1
   8   3   6   94.40    7.55   1
   9   3   6   15.61    4.06   1
  10   3   6   35.39    6.52   1
  11   3   6   13.81    4.41   1
 -12  -3  -6   45.57    7.71   1
 -12  -3  -6   25.05    5.44   4
 -13  -3  -6   19.81    6.06   1
 -13  -3  -6   16.92    5.65   4
 -10   4   6   26.48    6.37   1
  -9   4   6    2.27    3.10   1
  -8   4   6   19.90    5.26   1
  -7   4   6   18.23    4.63   1
  -6   4   6    4.07    2.77   1
  -5   4   6   64.19    6.14   1
  -4   4   6  139.00    7.99   1
  -3   4   6   57.47    5.08   1
  -2   4   6    1.53    1.71   1
  -1   4   6    6.03    2.12   1
   0  -4  -6    7.85    3.05   3
   0   4   6    6.79    2.06   1
   1   4   6  249.65    7.19   2
  -1  -4  -6  245.99   10.72   3
   1   4   6  233.19    9.32   1
   2   4   6   34.93    3.51   1
  -2  -4  -6   35.72    4.17   3
   3   4   6    3.32    1.49   1
  -3  -4  -6    4.52    2.33   3
  -4  -4  -6   87.44    5.81   3
   4   4   6   88.76    5.42   1
   5   4   6  249.11   10.32   1
  -5  -4  -6  238.07   10.44   3
  -6  -4  -6  156.50    8.39   3
   6   4   6  151.84    8.33   1
   7   4   6    0.67    1.79   1
  -7  -4  -6    3.17    2.64   3
  -8  -4  -6   22.02    4.02   3
   8   4   6   21.22    4.21   1
   9   4   6  131.00    9.25   1
  10   4   6   20.51    4.74   1
  11   4   6    2.51    2.81   1
 -12  -4  -6   20.03    5.67   1
 -12  -4  -6   14.77    4.39   4
 -13  -4  -6   12.17    4.87   1
 -13  -4  -6   13.66    4.59   4
 -10   5   6   -0.06    3.85   1
  -9   5   6    4.65    4.38   1
  -8   5   6   43.52    6.94   1
  -7   5   6   18.39    4.71   1
  -6   5   6   11.25    3.82   1
  -5   5   6    1.81    2.48   1
  -4   5   6   54.09    5.58   1
  -3   5   6  194.44    9.36   1
  -2   5   6  295.30   11.53   1
  -1   5   6   91.34    5.63   1
   0  -5  -6  137.65    8.17   3
   0   5   6  149.78    7.14   1
   1   5   6  154.42    7.25   1
  -1  -5  -6  156.88    8.56   3
   2   5   6   23.64    3.08   1
  -2  -5  -6   32.04    4.24   3
  -3  -5  -6   47.54    4.82   3
   3   5   6   43.26    3.99   1
   4   5   6   17.36    2.89   1
  -4  -5  -6   17.73    1.55   2
  -4  -5  -6   29.59    4.10   3
   5   5   6   67.82    5.06   1
  -5  -5  -6   59.30    5.27   3
   6   5   6   41.66    4.64   1
  -6  -5  -6   35.91    4.80   3
   7   5   6   77.89    6.32   1
  -7  -5  -6   91.73    6.94   3
   8   5   6   49.56    5.83   1
  -8  -5  -6   48.94    5.54   3
   9   5   6    3.80    2.41   1
  10   5   6    2.79    2.60   1
  11   5   6   17.02    4.73   1
 -13  -5  -6   -0.75    4.20   1
 -13  -5  -6    7.83    4.64   4
  -9   6   6    9.24    4.57   1
  -8   6   6   19.59    5.14   1
  -7   6   6   17.42    4.89   1
  -6   6   6   15.17    4.18   1
  -5   6   6    1.21    2.66   1
  -4   6   6   18.52    3.97   1
  -3   6   6   13.82    3.41   1
  -2   6   6   33.34    4.21   1
   1  -6  -6  528.64   19.91   3
  -1   6   6  532.15   17.01   1
   0  -6  -6  728.86   24.16   3
   0   6   6  688.62   20.82   1
   1   6   6   18.19    2.95   1
  -1  -6  -6   22.48    4.14   3
  -2  -6  -6   16.63    3.73   3
   2   6   6   23.62    3.08   1
  -3  -6  -6   29.68    4.35   3
   3   6   6   28.84    3.43   1
  -4  -6  -6  224.11   10.83   3
   4   6   6  237.75    9.63   1
  -5  -6  -6  133.55    8.16   3
   5   6   6  132.20    7.10   1
   6   6   6   47.04    4.77   1
  -6  -6  -6   45.51    5.54   3
  -7  -6  -6    3.40    3.38   3
   7   6   6    4.95    2.25   1
  -8  -6  -6   18.04    4.33   3
   8   6   6   15.40    3.82   1
  -9  -6  -6    8.11    3.77   3
   9   6   6    8.63    3.12   1
  10   6   6   14.96    3.88   1
  11   6   6   11.37    3.84   1
  12   6   6   18.08    4.57   1
  -9   7   6    0.98    3.60   1
  -8   7   6   45.22    7.37   1
  -7   7   6   63.71    7.82   1
  -6   7   6   33.29    5.65   1
  -5   7   6    4.58    2.84   1
  -4   7   6   29.52    4.80   1
  -3   7   6   37.18    4.83   1
  -2   7   6   83.18    6.18   1
   1  -7  -6  171.54   10.28   3
  -1   7   6  156.21    8.07   1
   0   7   6   42.40    4.28   1
   0  -7  -6   36.45    5.38   3
   1   7   6   11.65    2.65   1
  -1  -7  -6   10.77    3.69   3
  -2  -7  -6  295.93   13.39   3
   2   7   6  324.32   11.71   1
   3   7   6   44.15    4.20   1
  -3  -7  -6   44.06    5.22   3
   4   7   6   42.46    4.10   1
  -4  -7  -6   36.42    5.10   3
   5   7   6  124.92    6.78   1
  -5  -7  -6  108.15    7.89   3
   6   7   6  168.45    8.60   1
  -6  -7  -6  186.04   10.68   3
   7   7   6   87.72    6.39   1
  -7  -7  -6   85.09    7.51   3
  -8  -7  -6   10.82    4.12   3
   8   7   6    7.43    2.69   1
  -9  -7  -6   12.87    4.21   3
   9   7   6   22.63    4.33   1
  10   7   6    0.88    2.21   1
  11   7   6   10.80    3.95   1
  -8   8   6    7.75    3.83   1
  -7   8   6   11.17    3.76   1
  -6   8   6   61.25    7.32   1
  -5   8   6  145.82    9.75   1
  -4   8   6  182.36   10.35   1
  -3   8   6   66.00    6.31   1
  -2   8   6   -0.31    1.87   1
   1  -8  -6   25.96    5.33   3
  -1   8   6   28.62    4.01   1
   0  -8  -6   98.46    8.12   3
   0   8   6  127.12    6.97   1
   1   8   6  303.63   11.71   1
  -1  -8  -6  307.79   14.17   3
   2   8   6   43.67    4.20   1
  -2  -8  -6   40.80    5.77   3
  -3  -8  -6   57.17    6.31   3
   3   8   6   61.16    4.72   1
   4   8   6  160.22    7.75   1
  -4  -8  -6  156.98    9.75   3
   6   8   6    0.15    1.06   1
  -6  -8  -6    4.06    3.72   3
   7   8   6   -1.71    0.93   1
  -7  -8  -6    3.37    3.46   3
  -8  -8  -6   38.24    6.25   3
   9   8   6   -1.14    1.32   1
  -9  -8  -6    3.83    3.55   3
 -10  -8  -6   88.20    9.04   3
  -8   9   6    0.79    2.27   1
  -7   9   6   -0.67    2.76   1
  -6   9   6   47.47    6.87   1
  -5   9   6    0.27    2.46   1
  -4   9   6   17.94    4.26   1
  -3   9   6  264.34   12.48   1
  -2   9   6  136.78    8.34   1
   1  -9  -6   28.09    5.52   3
  -1   9   6   28.28    4.20   1
   0   9   6    2.54    2.20   1
   0  -9  -6    3.65    3.90   3
   1   9   6    2.40    1.95   1
  -1  -9  -6   -3.32    2.95   3
  -2  -9  -6  220.63   12.21   3
   2   9   6  218.64    9.67   1
   3   9   6  196.02    9.01   1
  -3  -9  -6  207.44   11.57   3
  -5  -9  -6    5.75    3.75   3
   5   9   6   -0.05    1.29   1
   6   9   6  141.33    7.74   1
  -6  -9  -6  147.47   10.26   3
  -7  -9  -6   94.49    8.65   3
   7   9   6   85.89    6.20   1
  -8  -9  -6   22.89    5.73   3
   8   9   6   13.03    3.47   1
  -9  -9  -6   15.93    4.90   3
 -10  -9  -6   25.57    5.84   3
 -11  -9  -6   16.90    5.55   3
  -7  10   6   -0.27    1.95   1
  -6  10   6    3.78    3.06   1
  -5  10   6   54.80    7.05   1
  -4  10   6   55.53    6.72   1
  -3  10   6   25.64    4.81   1
  -2  10   6   14.77    3.68   1
  -1  10   6   27.33    4.27   1
   1 -10  -6   28.57    5.64   3
   0 -10  -6   86.72    8.01   3
   0  10   6   82.22    6.17   1
   1  10   6  143.48    7.88   1
  -1 -10  -6  130.07    9.79   3
  -2 -10  -6   -0.53    3.49   3
   2  10   6    2.20    2.08   1
  -3 -10  -6   13.02    4.48   3
   4  10   6   34.61    4.01   1
  -4 -10  -6   31.95    5.96   3
  -5 -10  -6  324.39   16.03   3
   5  10   6  329.78   12.59   1
   6  10   6   85.27    5.94   1
  -6 -10  -6   68.23    8.03   3
  -7 -10  -6    3.63    3.75   3
  -8 -10  -6   36.22    6.70   3
  -9 -10  -6   42.99    7.44   3
 -10 -10  -6   17.01    5.68   3
 -11 -10  -6    0.29    3.79   3
  -7  11   6    0.30    2.22   1
  -6  11   6    8.29    3.77   1
  -5  11   6    9.41    3.81   1
  -4  11   6    0.36    2.62   1
  -3  11   6  132.95    9.21   1
  -2  11   6  103.49    7.62   1
  -1  11   6  193.20   10.17   1
   1 -11  -6  195.18   12.40   3
   0 -11  -6    6.55    3.87   3
   0  11   6   11.46    3.08   1
   1  11   6   53.00    5.29   1
  -1 -11  -6   49.12    7.02   3
   2  11   6    3.38    1.91   1
  -2 -11  -6    3.15    3.95   3
   3  11   6   12.62    2.90   1
  -3 -11  -6    9.17    4.59   3
  -4 -11  -6   21.33    5.46   3
   4  11   6   21.75    3.53   1
   5  11   6   24.85    3.61   1
  -5 -11  -6   13.83    5.03   3
  -6 -11  -6   29.38    6.18   3
  -7 -11  -6   46.02    7.47   3
  -8 -11  -6   36.96    7.17   3
  -9 -11  -6    3.63    4.42   3
 -10 -11  -6   35.86    7.53   3
 -11 -11  -6   13.02    5.24   3
 -12 -11  -6    4.51    4.64   3
  -6  12   6    1.31    2.63   1
  -5  12   6   25.92    5.76   1
  -4  12   6    4.14    3.44   1
  -3  12   6   11.37    3.81   1
  -2  12   6    1.78    2.68   1
  -1  12   6   54.72    5.93   1
   1 -12  -6   53.03    7.45   3
   0 -12  -6  330.93   16.82   3
   0  12   6  329.09   13.73   1
  -1 -12  -6  318.67   16.24   3
   1  12   6  310.45   13.01   1
  -2 -12  -6   23.43    5.86   3
  -3 -12  -6   11.73    4.85   3
   3  12   6   15.79    3.28   1
  -4 -12  -6    5.06    4.24   3
  -5 -12  -6   23.97    6.11   3
  -6 -12  -6   13.92    5.30   3
  -7 -12  -6    3.07    3.94   3
  -8 -12  -6    2.48    4.27   3
  -9 -12  -6   37.24    7.68   3
 -10 -12  -6   17.64    6.11   3
 -11 -12  -6    0.99    4.70   3
 -12 -12  -6    6.09    5.52   3
  -5  13   6   13.61    4.38   1
  -4  13   6    7.58    3.69   1
  -3  13   6    1.67    2.89   1
  -2  13   6   43.42    5.91   1
  -1  13   6   62.61    6.56   1
   1 -13  -6   64.52    8.19   3
   0  13   6    2.04    2.42   1
   0 -13  -6    0.40    3.53   3
  -1 -13  -6   41.32    7.14   3
   1  13   6   27.20    4.36   1
   2  13   6   66.41    5.90   1
  -2 -13  -6   62.80    8.31   3
  -3 -13  -6   50.85    7.68   3
  -4 -13  -6    3.23    3.92   3
  -5 -13  -6   32.52    6.69   3
  -6 -13  -6   20.34    5.89   3
  -7 -13  -6   17.95    5.93   3
  -8 -13  -6   39.17    7.90   3
  -9 -13  -6   13.18    5.47   3
 -10 -13  -6    0.67    4.49   3
 -11 -13  -6   16.63    6.41   3
 -12 -13  -6   26.83    8.03   3
  -4  14   6   32.34    6.18   1
  -3  14   6    6.17    3.29   1
  -2  14   6    5.56    3.12   1
  -1  14   6   12.18    3.67   1
   1 -14  -6   13.99    5.23   3
   0 -14  -6   31.67    6.80   3
   0  14   6   27.26    4.91   1
  -1 -14  -6   66.83    8.77   3
  -2 -14  -6   54.99    8.31   3
  -3 -14  -6   29.42    6.79   3
  -4 -14  -6   36.47    7.26   3
  -5 -14  -6    1.74    4.10   3
  -6 -14  -6    3.20    4.41   3
  -7 -14  -6   38.45    7.99   3
  -8 -14  -6    9.11    5.15   3
  -9 -14  -6    1.69    4.64   3
 -10 -14  -6   -1.47    4.22   3
 -11 -14  -6    9.70    5.77   3
  -3  15   6   -0.45    2.74   1
  -2  15   6   44.53    6.35   1
   1 -15  -6    3.21    3.59   3
   0 -15  -6    1.16    3.99   3
  -1 -15  -6   10.26    5.05   3
  -2 -15  -6   96.90   10.77   3
  -3 -15  -6  121.11   12.14   3
  -4 -15  -6  153.76   12.53   3
  -5 -15  -6    3.29    4.50   3
  -6 -15  -6    0.87    4.00   3
  -7 -15  -6   22.33    6.89   3
  -8 -15  -6    5.58    4.88   3
  -9 -15  -6   -0.14    4.09   3
 -10 -15  -6    1.56    4.86   3
 -11 -15  -6    3.45    6.61   3
   0 -16  -6   19.71    5.56   3
  -1 -16  -6   11.37    5.13   3
  -2 -16  -6   -0.11    4.08   3
  -3 -16  -6    6.33    4.82   3
  -4 -16  -6    7.96    4.98   3
  -5 -16  -6   17.06    5.87   3
  -6 -16  -6   40.05    7.99   3
  -7 -16  -6    3.70    4.38   3
  -8 -16  -6   39.01    8.64   3
  -9 -16  -6   19.00    6.85   3
 -10 -16  -6    7.36    5.66   3
   0 -17  -6    8.70    4.78   3
  -1 -17  -6    7.61    4.80   3
  -2 -17  -6   26.75    6.71   3
  -3 -17  -6   26.54    7.11   3
  -4 -17  -6   22.71    6.84   3
  -5 -17  -6   11.61    6.35   3
  -6 -17  -6   11.73    5.45   3
  -7 -17  -6   -3.16    3.55   3
  -8 -17  -6    3.50    5.05   3
  -9 -17  -6    2.80    4.87   3
  -1 -18  -6   16.30    6.21   3
  -2 -18  -6    8.75    4.90   3
  -3 -18  -6   22.33    6.85   3
  -4 -18  -6    6.97    5.94   3
  -5 -18  -6    5.64    4.64   3
  -6 -18  -6    1.88    2.97   3
  -7 -18  -6   -3.14    3.01   3
  -8 -18  -6   -3.62    2.97   3
  -3 -19  -6   20.66    7.16   3
  -4 -19  -6    0.40    5.00   3
  -5 -19  -6    0.50    3.07   3
  -3 -18   7   12.49    5.29   2
  -6 -17   7   -2.25    4.37   2
  -5 -17   7    6.82    4.65   2
  -4 -17   7   35.35    7.68   2
  -3 -17   7   20.32    6.03   2
  -2 -17   7   10.31    4.45   2
  -1 -17   7   11.00    5.43   2
   0 -17   7   20.15    5.99   2
   1 -17   7   21.84    6.20   2
  -7 -16   7   14.98    6.24   2
  -6 -16   7   44.42    8.24   2
  -5 -16   7   14.88    5.93   2
  -4 -16   7    7.07    4.30   2
  -3 -16   7   43.11    8.14   2
  -2 -16   7   43.78    8.19   2
  -1 -16   7   50.28    8.63   2
   0 -16   7    5.52    4.50   2
   1 -16   7    7.06    4.77   2
   2 -16   7   29.60    7.39   2
  -8 -15   7   -4.74    3.47   2
  -7 -15   7    6.13    4.50   2
  -6 -15   7   -1.67    4.00   2
  -5 -15   7   21.96    6.40   2
  -4 -15   7   37.52    7.40   2
  -3 -15   7   10.89    4.71   2
  -2 -15   7   -0.17    3.47   2
  -1 -15   7    3.04    3.53   2
   0 -15   7   13.38    5.63   2
   1 -15   7   30.36    7.04   2
   2 -15   7    7.81    4.52   2
   3 -15   7    4.56    4.36   2
  -9 -14   7   18.07    6.41   2
  -8 -14   7    7.53    4.86   2
  -7 -14   7   18.48    5.94   2
  -6 -14   7   19.57    5.97   2
  -5 -14   7   17.28    5.41   2
  -4 -14   7   22.95    6.18   2
  -3 -14   7   -2.57    3.22   2
  -2 -14   7   36.63    7.12   2
  -1 -14   7   35.88    7.27   2
   0 -14   7    7.89    4.21   2
   1 -14   7   -1.33    3.18   2
   2 -14   7    6.20    4.10   2
   3 -14   7   28.23    7.50   2
   4 -14   7   19.92    6.16   2
   5 -14   7   -0.83    4.20   2
 -10 -13   7    4.90    4.68   2
  -9 -13   7    5.68    4.89   2
  -8 -13   7   -0.26    4.00   2
  -7 -13   7    0.09    3.54   2
  -6 -13   7   28.70    6.65   2
  -5 -13   7   34.57    6.77   2
  -4 -13   7   12.09    4.75   2
  -3 -13   7   47.56    7.58   2
  -2 -13   7   15.25    5.12   2
  -1 -13   7   23.18    6.00   2
   0 -13   7   74.29    9.18   2
   1 -13   7   60.59    8.99   2
   2 -13   7    9.46    4.81   2
   3 -13   7   -0.23    3.46   2
   4 -13   7   24.08    6.59   2
   5 -13   7   -0.31    2.40   2
   6 -13   7   -1.57    3.33   2
 -10 -12   7    5.42    4.74   2
  -9 -12   7    2.65    4.20   2
  -8 -12   7   -1.49    3.31   2
  -7 -12   7   41.10    7.64   2
  -6 -12   7    1.84    3.46   2
  -5 -12   7    3.41    4.10   2
  -4 -12   7   10.46    4.26   2
  -3 -12   7   37.79    6.74   2
  -2 -12   7   18.89    5.21   2
  -1 -12   7   33.57    6.70   2
   0 -12   7    4.24    3.54   2
   1 -12   7   12.43    4.75   2
   2 -12   7   41.61    7.72   2
   3 -12   7   15.96    5.39   2
   4 -12   7    6.18    3.39   2
   5 -12   7    5.88    3.32   2
   6 -12   7    3.12    2.82   2
 -10 -11   7   -2.03    3.96   2
  -9 -11   7    1.90    4.21   2
  -8 -11   7   40.56    7.49   2
  -7 -11   7    1.82    3.78   2
  -6 -11   7   11.74    4.93   2
  -5 -11   7   83.82    8.80   2
  -4 -11   7   49.71    6.99   2
  -3 -11   7   33.91    6.24   2
  -2 -11   7   -0.68    2.99   2
  -1 -11   7   -1.41    2.75   2
   0 -11   7    4.22    3.35   2
   1 -11   7   17.19    5.13   2
   2 -11   7   42.03    7.38   2
   3 -11   7    7.02    3.75   2
   4 -11   7    8.72    4.13   2
  -5  11  -7   12.09    3.39   4
  -5  11  -7   15.25    4.30   1
   5 -11   7    9.57    4.31   2
  -6  11  -7   -1.46    2.60   1
   6 -11   7    1.82    3.31   2
  -6  11  -7    5.75    2.87   4
   7 -11   7    1.79    2.76   2
  -7  11  -7    5.45    3.65   1
 -11 -10   7    9.55    5.68   2
 -10 -10   7    6.27    4.53   2
  -9 -10   7   11.60    5.26   2
  -8 -10   7    6.41    4.14   2
  -7 -10   7   15.48    5.36   2
  -6 -10   7   38.50    6.63   2
  -5 -10   7    2.42    3.48   2
  -4 -10   7   46.72    6.68   2
  -3 -10   7  177.08   11.27   2
  -2 -10   7  191.68   11.86   2
  -1 -10   7   51.85    6.96   2
   0 -10   7   20.96    5.39   2
   1 -10   7    6.50    3.71   2
   2 -10   7   42.36    6.94   2
   3 -10   7   12.70    4.38   2
  -3  10  -7   16.01    3.04   4
  -3  10  -7   18.15    3.32   1
  -4  10  -7   31.41    4.81   1
   4 -10   7   18.69    5.45   2
  -4  10  -7   30.64    4.61   4
  -5  10  -7   -2.01    2.19   4
   5 -10   7   -1.88    2.38   2
  -5  10  -7    4.19    3.01   1
  -6  10  -7   38.65    6.25   1
   6 -10   7   32.82    7.07   2
  -6  10  -7   36.52    5.59   4
  -7  10  -7   12.13    4.15   1
  -7  10  -7   13.10    3.99   4
   7 -10   7   16.38    5.52   2
  -8  10  -7   33.11    6.16   1
 -11  -9   7   -5.40    3.76   2
 -10  -9   7    1.77    4.06   2
  -9  -9   7    6.91    4.87   2
  -8  -9   7    2.27    3.99   2
  -7  -9   7   -1.16    3.19   2
  -6  -9   7    1.61    3.24   2
  -5  -9   7    0.62    2.97   2
  -4  -9   7   38.21    6.08   2
  -3  -9   7   50.79    6.61   2
  -2  -9   7   32.79    5.64   2
  -1  -9   7  129.16    9.34   2
   0  -9   7  215.44   12.52   2
   1  -9   7    9.05    3.77   2
   2  -9   7   19.41    3.44   1
   2  -9   7   21.12    5.18   2
   3  -9   7   19.75    4.96   2
  -4   9  -7   33.75    4.76   1
  -4   9  -7   38.85    4.64   4
   4  -9   7   45.00    7.24   2
  -5   9  -7   62.79    6.14   4
  -5   9  -7   56.18    6.22   1
   5  -9   7   60.65    8.64   2
  -6   9  -7   12.96    3.89   4
  -6   9  -7   16.09    4.56   1
   6  -9   7   16.56    5.02   2
  -7   9  -7    3.32    3.45   1
   7  -9   7    3.06    3.18   2
  -7   9  -7    0.41    2.70   4
  -8   9  -7   13.25    3.95   4
   8  -9   7    7.54    4.44   2
  -8   9  -7    9.12    4.30   1
 -11  -8   7    0.77    5.00   2
 -10  -8   7   -1.02    3.81   2
  -9  -8   7    0.23    3.33   2
  -8  -8   7   18.28    5.29   2
  -7  -8   7    0.89    3.50   2
  -6  -8   7   88.46    8.72   2
  -5  -8   7    6.33    3.52   2
  -4  -8   7    5.21    3.49   2
  -3  -8   7   67.49    6.98   2
  -2  -8   7  105.16    8.04   2
  -1  -8   7   55.97    6.48   2
   0  -8   7   24.11    5.08   2
   1  -8   7  118.20    6.41   1
   1  -8   7  116.00    8.84   2
   2  -8   7   66.95    7.58   2
   2  -8   7   61.54    5.04   1
   3  -8   7    4.91    2.30   1
   3  -8   7    5.18    3.28   2
   4  -8   7    2.79    2.82   2
   4  -8   7    2.89    2.07   1
   5  -8   7    2.20    2.83   2
  -6   8  -7   18.29    4.09   4
  -6   8  -7   17.78    4.21   1
   6  -8   7   20.99    5.75   2
  -7   8  -7   69.89    7.53   1
  -7   8  -7   61.91    6.98   4
   7  -8   7   39.74    7.36   2
   8  -8   7    8.75    4.50   2
  -8   8  -7   18.49    4.75   4
  -8   8  -7   16.04    5.05   1
  -9   8  -7   -2.44    2.13   4
  -9   8  -7   -1.12    2.37   1
 -11  -7   7    0.11    4.39   2
 -10  -7   7    0.29    3.84   2
  -9  -7   7   -2.89    2.81   2
  -8  -7   7    3.47    3.94   2
  -7  -7   7   -1.52    2.66   2
  -6  -7   7   89.02    8.78   2
  -5  -7   7    9.80    3.76   2
  -4  -7   7   87.56    7.35   2
  -3  -7   7   21.18    4.67   2
  -2  -7   7   18.00    4.16   2
  -1  -7   7  165.64    9.87   2
   0  -7   7  560.53   20.96   2
   0  -7   7  571.00   16.65   1
   1  -7   7  304.11   11.17   1
   1  -7   7  304.34   14.43   2
   2  -7   7  136.63    9.46   2
   2  -7   7  135.26    7.33   1
   3  -7   7   12.66    3.04   1
   3  -7   7   20.90    4.96   2
   4  -7   7   12.31    3.36   1
   4  -7   7   10.34    3.79   2
   5  -7   7   12.31    3.72   1
   5  -7   7    5.94    3.44   2
   6  -7   7   18.89    5.43   2
   7  -7   7    5.02    3.65   2
  -7   7  -7    0.18    2.55   4
  -7   7  -7    3.58    3.19   1
   8  -7   7   12.24    4.86   2
  -8   7  -7   14.99    4.53   1
  -8   7  -7   15.46    4.09   4
  -9   7  -7   35.40    6.45   4
  -9   7  -7   54.07    7.87   1
 -10   7  -7   -0.13    2.48   4
 -10   7  -7    1.85    2.77   1
 -11  -6   7   37.06    8.71   2
 -10  -6   7   20.54    6.11   2
  -9  -6   7   -1.33    3.18   2
  -8  -6   7    4.09    3.96   2
  -7  -6   7   10.31    3.95   2
  -6  -6   7   45.08    6.60   2
  -5  -6   7    1.62    2.87   2
  -4  -6   7   32.94    5.14   2
  -3  -6   7  155.91    9.24   2
  -2  -6   7   35.52    4.93   2
  -2  -6   7   32.86    2.50   1
  -1  -6   7   69.41    3.87   1
  -1  -6   7   67.27    6.24   2
   0  -6   7    9.72    1.91   1
   0  -6   7    3.60    2.79   2
   1  -6   7   94.45    5.55   1
   1  -6   7  113.13    8.00   2
   2  -6   7  363.58   15.80   2
   2  -6   7  370.70   13.32   1
   3  -6   7  557.51   18.44   1
   3  -6   7  522.38   20.97   2
   4  -6   7   54.69    6.67   2
   4  -6   7   54.42    5.62   1
   5  -6   7    9.80    3.22   1
   5  -6   7    8.81    3.43   2
   6  -6   7   32.04    6.03   2
   6  -6   7   29.55    5.22   1
   7  -6   7   47.54    7.78   2
  -8   6  -7    0.77    2.99   1
  -8   6  -7    0.73    2.37   4
   8  -6   7   -0.58    2.94   2
  -9   6  -7    9.84    4.28   1
  -9   6  -7   12.76    4.10   4
 -10   6  -7    1.44    2.57   1
 -10   6  -7   -0.60    2.09   4
 -11  -5   7   -6.28    4.28   2
 -10  -5   7    3.49    4.14   2
  -9  -5   7   16.67    5.59   2
  -8  -5   7   36.69    6.89   2
  -7  -5   7    4.58    3.21   2
  -6  -5   7   98.31    8.34   2
  -5  -5   7   76.56    7.13   2
  -4  -5   7  180.77   10.39   2
  -4  -5   7  187.00    7.50   1
  -3  -5   7    3.30    2.66   2
  -3  -5   7    7.04    1.70   1
  -2  -5   7    1.65    1.04   1
  -2  -5   7   -0.30    2.30   2
  -1  -5   7   88.42    4.48   1
  -1  -5   7   92.93    6.70   2
   0  -5   7   91.98    4.86   1
   0  -5   7  101.96    6.91   2
   1  -5   7  244.88   11.36   2
   1  -5   7  224.97    8.99   1
   2  -5   7   42.26    4.23   1
   2  -5   7   55.20    5.62   2
   3  -5   7   50.30    4.85   1
   3  -5   7   49.23    5.85   2
   4  -5   7  237.86   12.49   2
   4  -5   7  219.83   10.71   1
   5  -5   7  258.71   14.02   2
   5  -5   7  278.05   12.85   1
   6  -5   7   15.89    4.36   2
   6  -5   7   16.21    4.22   1
   7  -5   7    5.79    3.72   2
   7  -5   7    5.68    3.12   1
   8  -5   7   41.96    7.52   2
  -9   5  -7   42.79    6.57   4
  -9   5  -7   52.38    7.34   1
 -10   5  -7    1.26    2.79   4
 -10   5  -7    1.22    3.16   1
 -11  -4   7   13.98    6.19   2
 -10  -4   7   32.13    7.00   2
  -9  -4   7   21.53    5.64   2
  -8  -4   7    0.34    2.91   2
  -7  -4   7    2.80    3.18   2
  -6  -4   7    5.07    2.26   1
  -6  -4   7    5.04    3.19   2
  -5  -4   7    3.50    1.89   1
  -5  -4   7    0.11    2.46   2
  -4  -4   7    4.69    2.81   2
  -4  -4   7    5.53    1.82   1
  -3  -4   7  264.40    9.25   1
  -3  -4   7  249.74   11.87   2
  -2  -4   7  341.36   13.53   2
  -2  -4   7  336.57   10.74   1
  -1  -4   7  242.15   10.99   2
  -1  -4   7  251.18    8.56   1
   0  -4   7    7.42    1.68   1
   0  -4   7    8.86    2.79   2
   1  -4   7   17.31    2.49   1
   1  -4   7   14.57    3.37   2
   2  -4   7  460.82   17.02   2
   2  -4   7  477.33   15.31   1
   3  -4   7  244.84   11.73   2
   3  -4   7  235.99   10.32   1
   4  -4   7  160.88    8.67   1
   4  -4   7  145.77    9.31   2
   5  -4   7   17.14    3.81   1
   5  -4   7   21.77    4.64   2
   6  -4   7   66.19    6.97   1
   6  -4   7   75.55    7.93   2
   7  -4   7   70.23    7.91   1
   7  -4   7   86.12    8.86   2
   8  -4   7    2.56    2.59   1
   8  -4   7    4.35    3.24   2
  -9   4  -7    1.89    2.56   4
  -9   4  -7    7.70    3.39   1
 -10   4  -7   18.55    5.12   1
 -10   4  -7   20.28    4.84   4
 -11   4  -7   -1.18    2.33   4
 -11   4  -7    0.54    2.55   1
 -11  -3   7    4.53    2.95   2
 -10  -3   7    0.15    2.93   2
  -9  -3   7   52.07    8.27   2
  -8  -3   7   78.38    8.91   2
  -7  -3   7   51.06    6.99   2
  -7  -3   7   42.64    4.75   1
  -6  -3   7   26.48    5.16   2
  -6  -3   7   25.44    3.79   1
  -5  -3   7  100.70    5.85   1
  -5  -3   7  100.65    7.89   2
  -4  -3   7   87.67    6.84   2
  -4  -3   7   90.71    5.28   1
  -3  -3   7  114.04    5.73   1
  -3  -3   7  104.97    7.06   2
  -2  -3   7   26.12    2.82   1
  -2  -3   7   30.73    4.02   2
  -1  -3   7  407.88   12.60   1
  -1  -3   7  418.29   15.14   2
   0  -3   7  444.62   13.35   1
   0  -3   7  427.31   15.32   2
   1  -3   7  401.38   12.99   1
   1  -3   7  412.04   14.79   2
   2  -3   7   94.73    6.25   2
   2  -3   7   97.77    5.61   1
   3  -3   7    0.39    1.19   1
   3  -3   7    1.35    1.94   2
   4  -3   7   97.06    7.12   2
   4  -3   7  105.22    6.72   1
   5  -3   7  425.48   16.39   1
   5  -3   7  420.27   17.62   2
   6  -3   7  157.74   10.53   2
   6  -3   7  178.77   10.28   1
   7  -3   7  144.23    9.83   1
   7  -3   7  146.09   10.52   2
   8  -3   7   21.46    5.11   1
   9  -3   7   33.99    6.32   1
 -10   3  -7    8.44    4.25   1
 -10   3  -7    5.29    3.60   4
 -11   3  -7    2.61    3.54   4
 -11   3  -7    5.28    4.24   1
 -11  -2   7    4.11    3.05   2
 -10  -2   7    6.64    4.21   2
  -9  -2   7    0.39    3.04   2
  -9  -2   7   -0.66    2.48   1
  -8  -2   7   -1.12    2.20   1
  -8  -2   7    3.13    2.98   2
  -7  -2   7    3.74    2.47   1
  -7  -2   7    7.60    3.36   2
  -6  -2   7    7.03    2.58   1
  -6  -2   7    5.09    2.87   2
  -5  -2   7   -1.32    2.02   2
  -5  -2   7    0.48    1.84   1
  -4  -2   7   11.07    2.52   1
  -4  -2   7   11.80    3.21   2
  -3  -2   7  561.95   16.89   1
  -3  -2   7  571.77   19.64   2
  -2  -2   7  221.14    9.81   2
  -2  -2   7  208.64    8.25   1
  -1  -2   7  336.33   12.51   2
  -1  -2   7  327.65   10.97   1
   0  -2   7   13.10    2.18   1
   0  -2   7   10.82    2.61   2
   1  -2   7  311.43   11.82   2
   1  -2   7  311.34   10.73   1
   2  -2   7  384.63   12.99   1
   2  -2   7  377.28   13.68   2
   3  -2   7  289.18   12.07   2
   3  -2   7  305.09   11.48   1
   4  -2   7   27.25    3.89   1
   4  -2   7   30.44    4.23   2
   5  -2   7   14.08    3.56   2
   5  -2   7   21.77    3.87   1
   6  -2   7   42.10    5.59   1
   6  -2   7   52.40    6.23   2
   7  -2   7  176.55   11.16   2
   7  -2   7  163.76   10.37   1
   8  -2   7  247.38   13.82   1
   9  -2   7   26.11    5.51   1
 -11   2  -7   64.21    8.32   4
 -11   2  -7   54.75    8.31   1
 -11  -1   7    2.07    3.06   2
 -10  -1   7   10.92    3.70   1
 -10  -1   7    7.56    4.43   2
  -9  -1   7   28.20    5.14   1
  -8  -1   7   15.94    4.06   1
  -7  -1   7   11.86    3.22   1
  -6  -1   7    6.59    2.81   1
  -6  -1   7    5.87    3.22   2
  -5  -1   7   27.60    4.64   2
  -5  -1   7   33.59    4.06   1
  -4  -1   7   53.07    4.36   1
  -4  -1   7   59.14    5.74   2
  -3  -1   7  107.00    5.91   1
  -3  -1   7  111.59    6.91   2
  -2  -1   7  160.87    7.95   2
  -2  -1   7  158.32    7.10   1
  -1  -1   7   45.11    4.18   2
  -1  -1   7   49.45    3.84   1
   1  -1   7  311.52   10.69   1
   1  -1   7  308.32   11.07   2
   2  -1   7  138.58    6.67   2
   2  -1   7  140.69    6.72   1
   3  -1   7    6.72    2.07   1
   3  -1   7   10.97    2.43   2
   5  -1   7  102.20    7.01   2
   5  -1   7  113.83    7.31   1
   6  -1   7  142.27    8.88   1
   6  -1   7  162.33    9.66   2
   7  -1   7    7.26    2.98   1
   8  -1   7    6.09    2.95   1
   9  -1   7   11.81    4.30   1
  10  -1   7   60.18    8.30   1
 -11   1  -7   18.42    5.43   1
 -11   1  -7   26.42    5.51   4
 -12   1  -7   23.33    5.83   4
 -12   1  -7   23.13    6.21   1
 -11   0   7   24.96    5.54   1
 -10   0   7    3.84    3.26   1
  -9   0   7    5.39    3.49   1
  -8   0   7   70.20    6.92   1
  -7   0   7  129.44    8.30   1
  -6   0   7   17.90    3.73   1
  -5   0   7   43.26    4.67   1
  -4   0   7    3.34    2.23   2
  -4   0   7    1.39    1.81   1
  -3   0   7  169.01    7.71   1
  -3   0   7  162.30    8.44   2
  -2   0   7  365.08   12.42   1
  -2   0   7  367.32   13.39   2
   0   0   7   80.05    4.66   2
   0   0   7   76.15    4.77   1
   1   0   7    5.04    1.75   1
   1   0   7   15.69    2.33   2
   2   0   7  364.60   12.13   1
   2   0   7  335.96   11.52   2
  -3   0  -7 1158.76   31.82   3
   3   0   7 1158.87   31.09   1
   3   0   7 1167.62   32.37   2
  -4   0  -7    7.20    2.07   3
   4   0   7    7.84    2.25   2
   4   0   7    7.69    2.23   1
   5   0   7   30.17    4.23   1
   5   0   7   29.77    4.02   2
   6   0   7   16.68    3.64   1
   7   0   7   13.15    3.40   1
   8   0   7   79.67    7.87   1
   9   0   7   40.87    6.76   1
  10   0   7    9.92    4.16   1
 -12   0  -7   14.85    5.08   4
 -12   0  -7   16.91    5.99   1
 -10   1   7   15.16    4.78   1
  -9   1   7   32.58    5.81   1
  -8   1   7   22.86    4.90   1
  -7   1   7   14.86    3.91   1
  -6   1   7   25.49    4.36   1
  -5   1   7   70.25    5.81   1
  -4   1   7   40.86    4.40   1
  -3   1   7   41.32    4.09   1
  -2   1   7   45.72    3.92   1
  -2   1   7   43.48    4.07   2
  -1   1   7  377.16   12.77   2
  -1   1   7  373.39   12.65   1
   0   1   7  859.64   23.97   1
   0   1   7  898.48   24.65   2
   1   1   7  574.13   17.09   1
   1   1   7  570.03   16.55   2
   2   1   7   26.67    2.52   2
   2   1   7   26.71    3.17   1
  -2  -1  -7   31.54    3.62   3
  -3  -1  -7   32.15    3.51   3
   3   1   7   35.83    2.99   2
   3   1   7   36.59    3.73   1
   4   1   7  111.62    6.08   2
  -4  -1  -7  123.32    6.22   3
   4   1   7  127.10    6.93   1
   5   1   7  286.27   12.22   1
   5   1   7  301.84   12.02   2
  -5  -1  -7  313.00   11.11   3
   6   1   7  291.24   12.97   1
   7   1   7   39.05    5.38   1
   8   1   7   18.56    4.26   1
   9   1   7   15.03    4.23   1
  10   1   7   25.26    5.93   1
  11   1   7   29.60    6.40   1
 -12  -1  -7    8.62    5.00   1
 -12  -1  -7   15.14    4.98   4
 -10   2   7   39.37    6.69   1
  -9   2   7   32.99    5.95   1
  -8   2   7    4.25    3.26   1
  -7   2   7   95.51    7.61   1
  -6   2   7   92.27    7.11   1
  -5   2   7    9.47    3.13   1
  -4   2   7   81.39    5.97   1
  -3   2   7   48.65    4.56   1
  -2   2   7  187.34    8.37   1
  -1   2   7   47.42    3.72   2
  -1   2   7   51.55    4.13   1
   0   2   7  131.96    5.71   2
   0   2   7  127.30    6.53   1
   1   2   7  190.65    6.76   2
   1   2   7  187.92    8.10   1
  -2  -2  -7  929.08   27.53   3
   2   2   7  942.36   25.39   1
   2   2   7  910.98   24.30   2
   3   2   7  140.11    6.99   1
  -3  -2  -7  143.69    7.30   3
   3   2   7  139.19    5.64   2
   4   2   7  140.28    7.34   1
   4   2   7  135.25    6.11   2
  -4  -2  -7  130.06    6.80   3
   5   2   7    9.96    2.64   1
  -5  -2  -7    7.77    2.58   3
  -6  -2  -7   36.72    3.94   3
   6   2   7   31.10    4.52   1
   7   2   7   36.49    5.09   1
   8   2   7   29.29    5.16   1
   9   2   7    0.57    2.37   1
  10   2   7    2.77    2.82   1
  11   2   7   16.33    5.15   1
 -12  -2  -7   17.51    4.93   4
 -12  -2  -7    9.73    5.24   1
 -10   3   7   11.57    4.65   1
  -9   3   7   20.86    5.07   1
  -8   3   7  118.44    9.26   1
  -7   3   7   32.49    5.47   1
  -6   3   7    7.55    3.07   1
  -5   3   7   99.03    7.19   1
  -4   3   7  256.68   11.21   1
  -3   3   7   31.53    4.01   1
  -2   3   7    2.75    1.85   1
  -1   3   7   72.58    5.03   1
   0   3   7 1057.81   28.11   2
   0   3   7 1036.18   28.28   1
   1   3   7  576.82   17.77   1
  -1  -3  -7  596.23   20.24   3
   1   3   7  606.21   16.24   2
   2   3   7   20.01    3.04   1
  -2  -3  -7   16.78    3.39   3
  -3  -3  -7   19.08    3.47   3
   3   3   7   13.07    2.63   1
  -4  -3  -7   76.78    5.53   3
   4   3   7   64.62    4.96   1
   5   3   7  225.28   10.05   1
  -5  -3  -7  219.08    9.72   3
   6   3   7  147.14    8.48   1
  -6  -3  -7  148.19    7.78   3
   7   3   7    0.33    1.74   1
   8   3   7    6.40    2.60   1
   9   3   7   38.10    6.07   1
  10   3   7   15.88    4.45   1
  11   3   7    4.66    3.71   1
 -10   4   7   -1.76    3.05   1
  -9   4   7    6.84    3.98   1
  -8   4   7    4.85    3.47   1
  -7   4   7   29.02    5.51   1
  -6   4   7   72.93    7.12   1
  -5   4   7   17.29    4.05   1
  -4   4   7    8.26    2.96   1
  -3   4   7  650.30   20.65   1
  -2   4   7  478.44   16.01   1
  -1   4   7   86.36    5.62   1
   0  -4  -7  216.27   10.83   3
   0   4   7  212.73    9.11   1
   1   4   7   14.24    2.75   1
   1   4   7   13.70    1.46   2
  -1  -4  -7   13.14    3.46   3
   2   4   7   80.37    5.34   1
  -2  -4  -7   89.95    6.39   3
   3   4   7  467.23   15.17   1
  -3  -4  -7  443.42   16.15   3
  -4  -4  -7  341.81   13.42   3
   4   4   7  343.80   12.66   1
   5   4   7   34.09    4.30   1
  -5  -4  -7   37.08    4.41   3
   6   4   7   85.94    6.22   1
  -6  -4  -7   78.06    6.09   3
   7   4   7  170.86    9.45   1
  -7  -4  -7  140.41    8.29   3
   8   4   7   66.30    6.87   1
   9   4   7    5.16    2.76   1
  10   4   7    9.56    3.79   1
  11   4   7   19.84    5.37   1
  12   4   7    2.71    3.22   1
 -13  -4  -7    8.36    5.44   1
 -13  -4  -7    1.49    4.35   4
  -9   5   7   10.43    4.62   1
  -8   5   7   -0.87    2.84   1
  -7   5   7    0.76    2.92   1
  -6   5   7    5.33    3.04   1
  -5   5   7    2.11    2.60   1
  -4   5   7   74.38    6.31   1
  -3   5   7   79.34    6.26   1
  -2   5   7    1.12    1.98   1
  -1   5   7  127.64    7.08   1
   0   5   7 1216.19   33.15   1
   0  -5  -7 1283.88   37.96   3
  -1  -5  -7   55.64    5.80   3
   1   5   7   56.65    4.61   1
  -2  -5  -7  122.36    7.79   3
   2   5   7  128.82    6.88   1
  -3  -5  -7    8.49    3.07   3
   3   5   7    2.78    1.67   1
   4   5   7  163.00    8.07   1
  -4  -5  -7  166.71    8.99   3
   5   5   7  262.67   11.07   1
  -5  -5  -7  258.68   11.71   3
   6   5   7   44.00    4.92   1
  -6  -5  -7   48.79    5.48   3
  -7  -5  -7   -0.13    2.80   3
   7   5   7    1.67    1.92   1
   8   5   7    1.82    2.18   1
  -8  -5  -7    4.43    3.30   3
   9   5   7    9.68    3.09   1
  10   5   7   55.03    7.16   1
  11   5   7   -0.37    2.33   1
  12   5   7   30.71    6.39   1
 -13  -5  -7   -2.92    3.53   4
 -13  -5  -7    4.29    5.02   1
  -9   6   7    2.71    3.70   1
  -8   6   7   92.55    9.47   1
  -7   6   7   53.18    7.28   1
  -6   6   7   39.09    5.84   1
  -5   6   7   87.38    7.42   1
  -4   6   7   93.07    7.15   1
  -3   6   7    8.53    3.05   1
  -2   6   7   63.07    5.54   1
  -1   6   7  205.00    9.47   1
   0   6   7   -0.45    1.57   1
   0  -6  -7    2.61    2.90   3
  -1  -6  -7   63.16    6.24   3
   1   6   7   55.30    4.71   1
  -2  -6  -7  145.28    8.91   3
   2   6   7  155.15    7.66   1
  -3  -6  -7  242.19   11.54   3
   3   6   7  232.30    9.94   1
   4   6   7    1.32    1.67   1
  -4  -6  -7    8.66    3.31   3
   5   6   7  115.16    6.96   1
  -5  -6  -7  127.19    8.29   3
   6   6   7   45.88    5.02   1
  -6  -6  -7   43.20    5.60   3
   7   6   7  104.59    7.36   1
  -7  -6  -7  109.75    8.07   3
   8   6   7   85.74    7.05   1
  -8  -6  -7   84.16    7.43   3
   9   6   7   10.43    3.43   1
  10   6   7    1.08    2.56   1
  11   6   7    5.62    3.47   1
  12   6   7   10.47    3.96   1
  -8   7   7    5.48    3.89   1
  -7   7   7   -2.19    2.71   1
  -6   7   7   62.17    7.33   1
  -5   7   7  147.48    9.62   1
  -4   7   7   20.28    4.18   1
  -3   7   7   76.26    6.75   1
  -2   7   7   -1.29    1.85   1
   1  -7  -7    1.03    3.08   3
  -1   7   7    1.13    1.93   1
   0  -7  -7  281.84   14.04   3
   0   7   7  320.28   12.20   1
  -1  -7  -7  243.08   12.40   3
   1   7   7  256.15   10.68   1
   2   7   7  349.82   12.67   1
  -2  -7  -7  312.28   14.26   3
   3   7   7   30.56    3.81   1
  -3  -7  -7   30.75    4.96   3
   4   7   7   16.93    3.18   1
  -4  -7  -7   12.18    3.94   3
   5   7   7   74.07    5.59   1
  -5  -7  -7   81.71    7.05   3
   6   7   7   59.19    5.61   1
  -6  -7  -7   57.98    6.59   3
  -7  -7  -7   19.13    4.72   3
   7   7   7   18.06    3.63   1
   8   7   7   -1.00    1.73   1
  -8  -7  -7    5.36    3.23   3
   9   7   7   32.85    5.37   1
  -9  -7  -7   23.96    5.39   3
  10   7   7   13.55    3.69   1
  11   7   7    5.75    2.94   1
  -8   8   7   12.83    5.22   1
  -7   8   7    3.03    3.40   1
  -6   8   7   29.37    5.51   1
  -5   8   7    2.47    2.78   1
  -4   8   7   43.25    5.88   1
  -3   8   7   16.75    4.04   1
  -2   8   7   12.22    3.35   1
   1  -8  -7    3.63    3.24   3
  -1   8   7   -0.08    1.90   1
   0  -8  -7   -1.79    3.04   3
   0   8   7    0.52    1.93   1
   1   8   7   95.14    6.33   1
  -1  -8  -7   85.62    7.87   3
  -2  -8  -7  534.79   20.52   3
   2   8   7  524.68   17.49   1
   3   8   7  405.16   14.33   1
  -3  -8  -7  372.99   16.51   3
  -4  -8  -7   72.25    7.22   3
   4   8   7   70.08    5.32   1
   5   8   7   65.37    5.24   1
  -5  -8  -7   50.77    6.47   3
   6   8   7   29.15    4.22   1
  -6  -8  -7   30.63    5.61   3
   7   8   7    2.18    1.93   1
  -7  -8  -7    1.12    3.47   3
   8   8   7   14.34    3.38   1
  -8  -8  -7   18.44    5.05   3
   9   8   7    3.48    2.53   1
  -9  -8  -7   -2.90    3.36   3
  10   8   7   18.55    4.35   1
 -10  -8  -7   25.91    5.91   3
  -7   9   7    1.44    2.35   1
  -6   9   7    1.82    3.03   1
  -5   9   7   59.87    7.29   1
  -4   9   7   82.71    7.80   1
  -3   9   7   29.33    4.94   1
  -2   9   7   14.66    3.66   1
   1  -9  -7    6.75    3.77   3
  -1   9   7    0.31    2.12   1
   0   9   7   -2.75    1.70   1
   0  -9  -7    2.28    3.63   3
  -1  -9  -7  108.72    8.89   3
   1   9   7  107.98    6.95   1
  -2  -9  -7   24.03    5.35   3
   2   9   7   17.41    3.42   1
   3   9   7    1.49    1.79   1
  -3  -9  -7   -2.98    3.15   3
  -4  -9  -7   15.69    4.62   3
   4   9   7   10.97    2.81   1
  -5  -9  -7  199.04   11.90   3
   5   9   7  197.43    9.51   1
  -6  -9  -7   17.40    5.05   3
  -7  -9  -7   39.77    6.36   3
  -8  -9  -7   24.87    5.75   3
   9   9   7    1.37    1.60   1
  -9  -9  -7    1.75    3.71   3
 -10  -9  -7    5.53    4.48   3
  -7  10   7   -1.15    2.34   1
  -6  10   7    9.17    4.07   1
  -5  10   7   13.13    4.28   1
  -4  10   7   -0.79    2.43   1
  -3  10   7  134.28    9.03   1
  -2  10   7  223.22   11.32   1
   1 -10  -7   54.27    7.39   3
  -1  10   7   55.09    5.81   1
   0  10   7    8.39    3.05   1
   0 -10  -7    7.69    4.09   3
  -1 -10  -7   55.90    7.26   3
   1  10   7   66.41    5.89   1
   2  10   7   75.75    5.91   1
  -2 -10  -7   69.88    7.74   3
  -3 -10  -7   95.80    8.68   3
   3  10   7   99.88    6.67   1
   4  10   7   36.82    4.22   1
   5  10   7    0.75    1.17   1
  -5 -10  -7   -4.55    3.24   3
  -6 -10  -7    9.94    4.41   3
   6  10   7   16.08    3.24   1
   7  10   7   70.01    6.24   1
  -7 -10  -7   60.39    7.88   3
  -8 -10  -7    1.49    3.72   3
  -9 -10  -7   15.66    5.56   3
 -10 -10  -7    8.88    4.96   3
 -11 -10  -7    5.29    4.75   3
  -6  11   7    0.16    1.78   1
  -5  11   7   15.77    4.53   1
  -4  11   7   45.63    6.65   1
  -3  11   7   10.81    4.09   1
  -2  11   7    2.77    2.41   1
   1 -11  -7  125.24   10.15   3
  -1  11   7  112.62    7.93   1
   0 -11  -7   76.31    8.52   3
   0  11   7   81.53    6.59   1
  -1 -11  -7   30.65    6.31   3
   1  11   7   49.13    5.28   1
  -2 -11  -7  120.72    9.88   3
   2  11   7  129.22    7.84   1
  -3 -11  -7   14.63    5.07   3
   3  11   7   12.00    2.98   1
   4  11   7   36.62    4.36   1
  -5 -11  -7  214.68   13.41   3
   5  11   7  210.92   10.02   1
  -6 -11  -7  109.58    9.68   3
  -7 -11  -7    5.88    4.28   3
  -8 -11  -7    9.01    4.65   3
  -9 -11  -7   72.85    9.31   3
 -10 -11  -7   21.86    6.14   3
 -11 -11  -7    7.52    5.01   3
  -6  12   7   -0.76    2.20   1
  -5  12   7    3.21    3.36   1
  -4  12   7    1.34    2.81   1
  -3  12   7   16.98    4.47   1
  -2  12   7   17.31    4.37   1
   1 -12  -7   73.14    8.84   3
  -1  12   7   73.57    7.01   1
   0  12   7   10.43    3.07   1
   0 -12  -7    9.61    4.59   3
  -1 -12  -7   40.14    7.05   3
   1  12   7   39.40    5.12   1
   2  12   7   56.17    5.61   1
  -2 -12  -7   51.50    7.76   3
  -3 -12  -7   17.27    5.46   3
   4  12   7    8.50    2.81   1
  -4 -12  -7   11.99    5.02   3
  -5 -12  -7    2.66    4.11   3
  -6 -12  -7   15.13    5.25   3
  -7 -12  -7   36.37    7.40   3
  -8 -12  -7    0.91    4.16   3
  -9 -12  -7   18.47    6.10   3
 -10 -12  -7   26.98    7.11   3
 -11 -12  -7   10.15    5.50   3
 -12 -12  -7    4.49    5.09   3
  -5  13   7   20.89    5.73   1
  -4  13   7   35.15    6.32   1
  -3  13   7    4.72    3.12   1
  -2  13   7   -2.21    1.96   1
  -1  13   7   18.20    4.15   1
   1 -13  -7    8.97    4.52   3
   0  13   7   82.87    6.80   1
   0 -13  -7   79.95    9.41   3
   1  13   7  142.81    8.75   1
  -1 -13  -7  145.10   11.48   3
  -2 -13  -7   25.25    6.30   3
  -3 -13  -7   36.96    7.38   3
  -4 -13  -7  167.48   12.42   3
  -5 -13  -7   50.59    8.34   3
  -6 -13  -7   69.80    9.19   3
  -7 -13  -7   32.88    7.26   3
  -8 -13  -7    0.33    4.15   3
  -9 -13  -7   16.68    6.12   3
 -10 -13  -7   -1.10    4.42   3
 -11 -13  -7   -1.64    3.84   3
  -4  14   7    8.32    3.67   1
  -3  14   7   39.69    6.70   1
  -2  14   7   13.32    4.07   1
  -1  14   7    3.59    2.79   1
   1 -14  -7    7.22    4.21   3
   0  14   7    0.56    2.38   1
   0 -14  -7    2.06    4.08   3
   1  14   7   21.20    4.14   1
  -1 -14  -7   20.56    5.88   3
  -2 -14  -7   70.12    9.28   3
  -3 -14  -7  118.42   10.95   3
  -4 -14  -7   26.59    6.62   3
  -5 -14  -7   49.79    8.39   3
  -6 -14  -7  134.45   11.83   3
  -7 -14  -7   33.44    7.51   3
  -8 -14  -7   43.45    8.46   3
  -9 -14  -7    2.83    4.55   3
 -10 -14  -7   -4.29    4.04   3
 -11 -14  -7    2.52    5.63   3
  -3  15   7   22.22    5.15   1
  -2  15   7    2.47    2.78   1
   1 -15  -7    4.04    4.04   3
  -1  15   7    5.09    3.18   1
   0 -15  -7   26.56    6.46   3
  -1 -15  -7   13.82    5.55   3
  -2 -15  -7   10.34    5.12   3
  -3 -15  -7    4.63    4.42   3
  -4 -15  -7   14.81    5.96   3
  -5 -15  -7   15.33    5.84   3
  -6 -15  -7   25.85    6.90   3
  -7 -15  -7   19.40    6.49   3
  -8 -15  -7   24.08    7.17   3
  -9 -15  -7   -0.59    4.53   3
 -10 -15  -7    8.05    6.01   3
   1 -16  -7   55.36    9.05   3
   0 -16  -7    8.03    4.78   3
  -1 -16  -7   11.98    4.77   3
  -2 -16  -7   14.34    5.69   3
  -3 -16  -7   30.09    7.32   3
  -4 -16  -7   25.94    7.63   3
  -5 -16  -7   12.32    5.84   3
  -6 -16  -7   14.72    6.11   3
  -7 -16  -7   48.89    8.93   3
  -8 -16  -7   55.93    9.85   3
  -9 -16  -7    1.57    5.32   3
 -10 -16  -7   -5.70    4.11   3
   0 -17  -7   54.10    9.29   3
  -1 -17  -7   26.68    7.18   3
  -2 -17  -7    2.49    4.57   3
  -3 -17  -7    8.85    5.51   3
  -4 -17  -7   34.65    8.25   3
  -5 -17  -7   30.68    7.64   3
  -6 -17  -7   10.45    5.56   3
  -7 -17  -7   -0.88    3.22   3
  -8 -17  -7   17.09    6.89   3
  -9 -17  -7   28.22    8.35   3
  -1 -18  -7   -1.36    3.75   3
  -2 -18  -7   19.69    6.41   3
  -3 -18  -7   17.75    6.18   3
  -4 -18  -7    1.19    3.96   3
  -5 -18  -7    0.78    3.08   3
  -6 -18  -7   -1.46    2.70   3
  -7 -18  -7    0.10    3.18   3
  -5 -17   8    3.82    4.56   2
  -4 -17   8    3.71    4.55   2
  -3 -17   8   -1.06    3.62   2
  -2 -17   8   20.46    6.55   2
  -1 -17   8    9.09    4.74   2
   0 -17   8   10.86    5.03   2
  -7 -16   8   18.79    6.18   2
  -6 -16   8    8.72    5.22   2
  -5 -16   8   -0.81    4.17   2
  -4 -16   8   13.89    5.72   2
  -3 -16   8    6.32    4.46   2
  -2 -16   8    6.03    4.09   2
  -1 -16   8   23.00    6.31   2
   0 -16   8   17.05    5.79   2
   1 -16   8    9.99    5.28   2
   2 -16   8    0.29    4.24   2
  -8 -15   8    0.50    5.02   2
  -7 -15   8   -1.31    4.09   2
  -6 -15   8    8.15    4.82   2
  -5 -15   8   22.47    6.38   2
  -4 -15   8   -2.41    3.40   2
  -3 -15   8   18.49    5.76   2
  -2 -15   8   22.89    6.47   2
  -1 -15   8   12.90    5.21   2
   0 -15   8    4.66    4.16   2
   1 -15   8    1.69    4.08   2
   2 -15   8   87.50   11.75   2
   3 -15   8    7.14    4.66   2
  -8 -14   8   -3.42    4.20   2
  -7 -14   8    7.29    4.81   2
  -6 -14   8    4.50    4.30   2
  -5 -14   8    5.38    4.46   2
  -4 -14   8    9.73    5.41   2
  -3 -14   8   11.51    4.94   2
  -2 -14   8    1.07    3.72   2
  -1 -14   8   23.39    6.26   2
   0 -14   8   44.88    8.20   2
   1 -14   8   39.05    7.89   2
   2 -14   8    4.87    4.11   2
   3 -14   8    7.11    4.22   2
   4 -14   8    0.14    2.81   2
  -9 -13   8    3.28    4.81   2
  -8 -13   8   -1.63    3.93   2
  -7 -13   8   17.41    5.67   2
  -6 -13   8   13.82    5.43   2
  -5 -13   8    6.42    4.18   2
  -4 -13   8    4.79    4.01   2
  -3 -13   8    0.43    3.64   2
  -2 -13   8    6.21    4.11   2
  -1 -13   8    2.60    3.93   2
   0 -13   8    1.70    3.54   2
   1 -13   8   15.62    5.56   2
   2 -13   8   33.17    7.34   2
   3 -13   8   47.19    8.69   2
   4 -13   8    5.58    4.31   2
   5 -13   8   -3.82    2.42   2
  -9 -12   8    0.24    4.26   2
  -8 -12   8    4.08    4.37   2
  -7 -12   8   10.61    4.85   2
  -6 -12   8   22.21    6.18   2
  -5 -12   8   71.03    8.68   2
  -4 -12   8    1.16    3.20   2
  -3 -12   8   -1.47    3.26   2
  -2 -12   8    4.63    3.64   2
  -1 -12   8    7.42    4.01   2
   0 -12   8   35.68    6.94   2
   1 -12   8   37.46    7.30   2
   2 -12   8    4.52    3.80   2
   3 -12   8   -1.76    2.82   2
   4 -12   8   31.47    7.15   2
   6 -12   8   -2.47    2.86   2
 -10 -11   8    8.18    5.32   2
  -9 -11   8   -3.11    3.92   2
  -8 -11   8   -3.10    3.82   2
  -7 -11   8   17.07    5.60   2
  -6 -11   8    2.47    4.06   2
  -5 -11   8    6.79    3.91   2
  -4 -11   8   25.20    5.82   2
  -3 -11   8  141.26   10.70   2
  -2 -11   8   88.08    9.11   2
  -1 -11   8    2.06    3.32   2
   0 -11   8   -1.38    2.69   2
   1 -11   8   33.04    6.44   2
   2 -11   8   37.98    7.11   2
   3 -11   8   83.31   10.01   2
   4 -11   8   22.92    6.18   2
   5 -11   8    8.15    4.06   2
  -6  11  -8    9.37    3.82   1
  -6  11  -8    7.78    3.23   4
   6 -11   8   12.97    4.96   2
  -7  11  -8   21.40    5.64   1
  -7  11  -8   21.41    5.16   4
 -10 -10   8   12.01    5.78   2
  -9 -10   8   11.85    5.22   2
  -8 -10   8   25.34    6.84   2
  -7 -10   8    1.21    3.76   2
  -6 -10   8   20.21    5.72   2
  -5 -10   8   27.83    6.09   2
  -4 -10   8   34.45    6.20   2
  -3 -10   8    8.89    4.06   2
  -2 -10   8   45.95    6.79   2
  -1 -10   8  216.68   12.87   2
   0 -10   8  101.83    9.19   2
   1 -10   8   28.74    5.84   2
   2 -10   8    6.05    3.68   2
   3 -10   8    0.74    3.10   2
  -4  10  -8   74.72    6.39   1
   4 -10   8   85.91    9.92   2
  -4  10  -8   78.40    6.05   4
  -5  10  -8   47.49    5.84   4
   5 -10   8   28.87    6.63   2
  -5  10  -8   39.88    5.61   1
  -6  10  -8   20.17    4.89   1
   6 -10   8   17.72    5.53   2
  -6  10  -8   27.41    5.28   4
  -7  10  -8   14.47    4.20   4
   7 -10   8    1.58    3.78   2
  -7  10  -8   13.04    4.63   1
  -8  10  -8    1.14    3.10   4
  -8  10  -8    2.99    3.87   1
   8 -10   8   -1.07    3.52   2
 -10  -9   8   34.73    8.34   2
  -9  -9   8    2.63    4.22   2
  -8  -9   8    3.77    3.86   2
  -7  -9   8   28.00    6.25   2
  -6  -9   8   28.89    6.02   2
  -5  -9   8   32.70    6.26   2
  -4  -9   8    0.04    2.89   2
  -3  -9   8  146.44   10.26   2
  -2  -9   8  148.44   10.37   2
  -1  -9   8   87.43    8.09   2
   0  -9   8   35.89    6.15   2
   1  -9   8   40.50    6.50   2
   2  -9   8   90.94    8.58   2
   3  -9   8   26.06    4.37   1
   3  -9   8   20.82    5.32   2
   4  -9   8    9.78    4.35   2
   4  -9   8    9.73    3.05   1
  -5   9  -8    3.24    2.17   4
  -5   9  -8    1.44    2.69   1
   5  -9   8    4.99    3.48   2
  -6   9  -8   15.63    3.94   4
  -6   9  -8    8.87    3.67   1
   6  -9   8    8.04    4.16   2
  -7   9  -8   53.05    7.26   1
  -7   9  -8   52.58    6.86   4
   7  -9   8   50.22    8.74   2
  -8   9  -8   34.96    6.67   1
  -8   9  -8   32.97    6.11   4
 -10  -8   8    4.52    4.48   2
  -9  -8   8   38.89    7.73   2
  -8  -8   8   57.91    8.74   2
  -7  -8   8   24.93    6.29   2
  -6  -8   8   44.15    6.85   2
  -5  -8   8   22.07    4.96   2
  -4  -8   8  200.29   12.22   2
  -3  -8   8   34.62    5.72   2
  -2  -8   8    0.36    2.78   2
  -1  -8   8   74.17    7.48   2
   0  -8   8  242.12   13.15   2
   1  -8   8  292.69   11.29   1
   1  -8   8  267.16   14.22   2
   2  -8   8   87.52    8.59   2
   2  -8   8   82.55    5.92   1
   3  -8   8   14.34    4.46   2
   3  -8   8   17.73    3.74   1
   4  -8   8   19.29    4.93   2
   4  -8   8   13.67    3.54   1
   5  -8   8   43.66    7.40   2
   5  -8   8   46.96    6.23   1
  -6   8  -8   12.90    3.99   1
  -6   8  -8   16.43    3.79   4
   6  -8   8    5.15    3.65   2
   7  -8   8    8.32    3.87   2
  -7   8  -8    6.72    3.74   1
  -7   8  -8   11.51    3.63   4
   8  -8   8   21.63    6.04   2
  -8   8  -8   20.32    5.15   4
  -8   8  -8   15.41    5.07   1
  -9   8  -8    6.44    4.09   1
  -9   8  -8    2.36    3.61   4
   9  -8   8    1.33    3.09   2
 -11  -7   8   11.64    5.87   2
 -10  -7   8    1.17    4.20   2
  -9  -7   8    8.87    4.78   2
  -8  -7   8   10.73    4.46   2
  -7  -7   8   13.66    5.10   2
  -6  -7   8   45.73    6.90   2
  -5  -7   8    7.13    3.64   2
  -4  -7   8    2.70    2.95   2
  -3  -7   8   36.20    5.79   2
  -2  -7   8   71.87    7.07   2
  -1  -7   8   99.26    8.04   2
   0  -7   8   -0.96    1.09   1
   0  -7   8   -1.39    2.46   2
   1  -7   8   19.04    2.99   1
   1  -7   8   25.29    5.25   2
   2  -7   8 1208.48   33.40   1
   2  -7   8 1231.60   38.97   2
   3  -7   8  339.03   16.51   2
   3  -7   8  313.92   13.23   1
   4  -7   8   67.82    7.92   2
   4  -7   8   69.14    6.59   1
   5  -7   8    2.84    2.47   1
   5  -7   8    1.34    2.63   2
   6  -7   8   18.79    5.28   2
   6  -7   8   13.78    3.86   1
   7  -7   8   33.66    6.98   2
  -8   7  -8   27.97    5.68   1
  -8   7  -8   18.02    4.58   4
   8  -7   8   30.66    7.16   2
  -9   7  -8   -0.88    3.15   1
  -9   7  -8   -0.18    2.70   4
 -11  -6   8    7.35    5.55   2
 -10  -6   8   -1.76    3.49   2
  -9  -6   8   17.35    5.67   2
  -8  -6   8   15.52    4.88   2
  -7  -6   8  141.85   10.87   2
  -6  -6   8    2.78    3.18   2
  -5  -6   8   13.44    4.36   2
  -4  -6   8   55.74    6.44   2
  -3  -6   8   54.36    6.25   2
  -2  -6   8    5.59    3.05   2
  -1  -6   8    0.46    2.32   2
  -1  -6   8    2.79    1.34   1
   0  -6   8  172.99   10.25   2
   0  -6   8  165.58    7.30   1
   1  -6   8   72.58    6.87   2
   1  -6   8   85.02    5.25   1
   2  -6   8   25.90    3.57   1
   2  -6   8   20.48    4.55   2
   3  -6   8    8.93    2.64   1
   3  -6   8   12.48    3.84   2
   4  -6   8  126.04    8.13   1
   4  -6   8  119.84    9.26   2
   5  -6   8  182.00   11.95   2
   5  -6   8  196.78   10.95   1
   6  -6   8   16.56    4.51   2
   6  -6   8   25.25    5.18   1
   7  -6   8    6.06    2.86   1
   7  -6   8    3.79    3.50   2
  -8   6  -8   20.13    4.24   4
   8  -6   8   27.55    6.37   2
  -8   6  -8   20.12    4.94   1
  -9   6  -8   12.85    4.12   4
  -9   6  -8    6.60    4.08   1
 -10   6  -8    0.66    2.34   4
 -10   6  -8    1.42    2.70   1
 -11  -5   8   -0.64    2.89   2
 -10  -5   8    2.82    3.79   2
  -9  -5   8    8.91    4.24   2
  -8  -5   8   16.20    5.40   2
  -7  -5   8    7.21    3.69   2
  -6  -5   8   44.06    6.50   2
  -5  -5   8   43.38    6.11   2
  -4  -5   8   -1.91    2.15   2
  -3  -5   8  171.89   10.01   2
  -3  -5   8  192.21    7.60   1
  -2  -5   8  127.05    5.78   1
  -2  -5   8  130.86    8.58   2
  -1  -5   8   98.21    7.39   2
  -1  -5   8  117.36    5.49   1
   0  -5   8  214.74    8.41   1
   0  -5   8  201.39   10.57   2
   1  -5   8    3.76    2.83   2
   1  -5   8    3.26    1.55   1
   2  -5   8  191.63    8.74   1
   2  -5   8  171.88    9.93   2
   3  -5   8  106.09    6.77   1
   3  -5   8  114.96    8.42   2
   4  -5   8  221.13   10.77   1
   4  -5   8  205.27   11.97   2
   5  -5   8   49.40    6.52   2
   5  -5   8   39.22    5.47   1
   6  -5   8   18.72    4.49   1
   6  -5   8    9.97    3.74   2
   7  -5   8   27.13    5.49   1
   7  -5   8    9.44    3.99   2
   8  -5   8    8.91    3.91   1
   8  -5   8   13.14    4.47   2
  -9   5  -8   -1.44    2.37   4
  -9   5  -8    3.03    3.33   1
 -10   5  -8    2.52    2.56   1
 -10   5  -8    3.14    2.25   4
 -11  -4   8   -0.96    2.53   2
 -10  -4   8   -0.32    3.15   2
  -9  -4   8    6.25    4.23   2
  -8  -4   8   27.22    6.39   2
  -7  -4   8    0.70    2.84   2
  -6  -4   8   87.98    8.10   2
  -5  -4   8   13.50    4.04   2
  -5  -4   8   15.30    3.05   1
  -4  -4   8   49.66    5.93   2
  -4  -4   8   52.52    4.22   1
  -3  -4   8   95.56    5.36   1
  -3  -4   8   88.87    7.09   2
  -2  -4   8    8.02    3.00   2
  -2  -4   8    7.63    1.94   1
  -1  -4   8  135.28    6.14   1
  -1  -4   8  139.98    8.24   2
   0  -4   8  152.20    8.67   2
   0  -4   8  147.95    6.69   1
   1  -4   8    2.29    2.37   2
   1  -4   8    2.59    1.34   1
   2  -4   8   11.80    3.36   2
   2  -4   8   18.57    3.05   1
   3  -4   8    4.01    2.61   2
   3  -4   8    1.43    1.53   1
   4  -4   8   71.30    5.83   1
   4  -4   8   84.25    7.16   2
   5  -4   8  177.34   10.93   2
   5  -4   8  187.40   10.30   1
   6  -4   8  450.32   18.50   1
   6  -4   8  470.95   20.59   2
   7  -4   8   22.48    5.36   2
   7  -4   8   28.00    5.43   1
   8  -4   8    3.54    3.34   2
   8  -4   8   -1.40    2.40   1
   9  -4   8   15.30    4.59   1
 -10   4  -8   -1.56    2.67   4
 -10   4  -8   -0.77    3.22   1
 -11   4  -8    1.82    2.54   1
 -11   4  -8   -0.48    2.44   4
 -11  -3   8   -1.85    3.02   2
 -10  -3   8    1.52    3.63   2
  -9  -3   8    0.26    3.15   2
  -8  -3   8    1.37    2.95   2
  -7  -3   8   56.35    7.39   2
  -7  -3   8   53.39    5.41   1
  -6  -3   8   25.94    5.39   2
  -6  -3   8   24.04    3.72   1
  -5  -3   8   16.33    4.40   2
  -5  -3   8   13.86    2.95   1
  -4  -3   8    4.70    2.12   1
  -4  -3   8    5.31    2.84   2
  -3  -3   8   12.11    2.53   1
  -3  -3   8   17.49    3.84   2
  -2  -3   8   19.29    3.63   2
  -2  -3   8   15.71    2.55   1
  -1  -3   8   60.13    5.42   2
  -1  -3   8   68.41    4.34   1
   0  -3   8   13.80    2.38   1
   0  -3   8   15.30    3.26   2
   1  -3   8   56.62    5.21   2
   1  -3   8   56.84    4.24   1
   2  -3   8    2.51    1.53   1
   2  -3   8    2.33    2.06   2
   3  -3   8  254.47   11.64   2
   3  -3   8  232.76   10.34   1
   4  -3   8   30.03    4.68   2
   4  -3   8   30.68    4.31   1
   5  -3   8   16.83    4.05   2
   5  -3   8   19.46    4.01   1
   6  -3   8   24.44    4.82   1
   6  -3   8   27.55    5.27   2
   7  -3   8  106.38    8.81   2
   7  -3   8  117.48    8.86   1
   8  -3   8   34.54    6.19   1
   8  -3   8   30.38    6.24   2
   9  -3   8   10.53    4.26   1
 -11   3  -8    9.74    4.59   4
 -11   3  -8    7.31    4.58   1
 -10  -2   8    2.66    3.54   2
  -9  -2   8   26.34    6.39   2
  -8  -2   8   62.19    6.26   1
  -8  -2   8   53.97    7.81   2
  -7  -2   8    2.56    3.00   2
  -7  -2   8    1.75    2.47   1
  -6  -2   8   -0.27    2.36   2
  -6  -2   8    2.36    2.34   1
  -5  -2   8   38.93    5.55   2
  -5  -2   8   39.51    4.39   1
  -4  -2   8  109.78    7.96   2
  -4  -2   8  126.78    6.80   1
  -3  -2   8   40.03    4.89   2
  -3  -2   8   33.95    3.76   1
  -2  -2   8   96.41    6.67   2
  -2  -2   8   88.15    5.41   1
  -1  -2   8  118.15    6.90   2
  -1  -2   8  115.89    6.01   1
   0  -2   8   62.74    4.27   1
   0  -2   8   66.48    5.18   2
   1  -2   8  302.69   10.93   1
   2  -2   8   12.42    2.47   1
   4  -2   8   94.05    6.29   1
   4  -2   8   82.99    6.31   2
   5  -2   8  124.56    8.21   2
   5  -2   8  113.40    7.63   1
   6  -2   8   53.91    6.46   2
   6  -2   8   52.10    6.06   1
   7  -2   8    5.35    3.04   2
   7  -2   8    5.75    2.75   1
   8  -2   8   18.88    4.70   1
   9  -2   8   21.30    5.40   1
  10  -2   8    4.61    3.02   1
 -11   2  -8    6.97    4.53   1
 -11   2  -8    4.99    3.66   4
 -10  -1   8   -1.01    3.18   2
  -9  -1   8   21.81    6.16   2
  -9  -1   8   18.75    4.61   1
  -8  -1   8   15.09    3.98   1
  -8  -1   8   15.47    4.89   2
  -7  -1   8   83.14    6.65   1
  -7  -1   8   86.13    8.58   2
  -6  -1   8   63.18    7.10   2
  -6  -1   8   61.55    5.83   1
  -5  -1   8   82.33    7.13   2
  -5  -1   8   85.79    6.09   1
  -4  -1   8    4.49    2.66   2
  -4  -1   8    2.38    2.05   1
  -3  -1   8  214.50   10.48   2
  -3  -1   8  215.99    9.25   1
  -2  -1   8  225.02    9.28   1
  -2  -1   8  225.45   10.31   2
  -1  -1   8   35.59    3.62   1
  -1  -1   8   40.50    4.24   2
   0  -1   8    2.35    1.10   2
   0  -1   8   13.89    2.48   1
   1  -1   8    5.21    1.70   1
   1  -1   8    6.50    2.27   2
   2  -1   8  246.08    9.93   2
   2  -1   8  233.33    9.63   1
   3  -1   8  357.46   13.19   2
   3  -1   8  326.75   12.64   1
   4  -1   8    3.08    1.77   1
   4  -1   8    9.35    2.63   2
   5  -1   8    0.38    1.31   2
   5  -1   8    1.67    1.82   1
   6  -1   8   50.04    5.81   1
   7  -1   8  102.82    8.09   1
   7  -1   8   92.91    7.92   2
   8  -1   8   20.61    4.86   1
   9  -1   8   14.61    4.37   1
  10  -1   8    4.22    2.74   1
 -12   1  -8    6.14    4.69   1
 -10   0   8    7.64    3.47   2
 -10   0   8    8.11    4.10   1
  -9   0   8   24.04    5.12   1
  -8   0   8    0.90    2.69   1
  -7   0   8    4.05    2.96   1
  -6   0   8    9.97    3.68   2
  -6   0   8    8.79    3.24   1
  -5   0   8   64.00    6.56   2
  -5   0   8   61.79    5.58   1
  -4   0   8   52.07    5.57   2
  -4   0   8   51.28    4.92   1
  -3   0   8   64.42    5.02   1
  -3   0   8   65.53    5.59   2
  -2   0   8   29.26    3.78   2
  -2   0   8   30.32    3.64   1
  -1   0   8  331.38   11.99   1
   0   0   8   65.22    4.49   2
   0   0   8   61.01    4.51   1
   1   0   8  426.70   14.26   1
   1   0   8  445.70   14.28   2
   2   0   8   73.58    4.99   1
   2   0   8   74.38    4.80   2
   3   0   8   29.76    3.30   2
   3   0   8   25.26    3.51   1
   4   0   8   47.88    4.80   1
   4   0   8   52.34    4.37   2
  -4   0  -8   45.91    3.99   3
   5   0   8  152.76    8.42   2
   5   0   8  150.85    8.52   1
   6   0   8    1.04    2.08   1
   6   0   8    4.44    2.16   2
   7   0   8    7.69    2.70   1
   8   0   8   52.80    6.81   1
   9   0   8   27.84    5.74   1
  10   0   8    9.72    4.15   1
  11   0   8   13.85    4.69   1
 -12   0  -8   12.27    4.48   4
 -12   0  -8   15.27    5.28   1
 -10   1   8   65.10    8.11   1
  -9   1   8    6.72    3.65   1
  -8   1   8    8.55    3.72   1
  -7   1   8   75.06    7.19   1
  -6   1   8   58.26    6.04   1
  -5   1   8    5.17    2.79   1
  -4   1   8    4.35    2.34   1
  -3   1   8  132.28    7.69   2
  -3   1   8  121.45    7.04   1
  -2   1   8  190.64    8.64   1
  -1   1   8   63.82    4.83   1
  -1   1   8   64.48    4.57   2
   0   1   8   11.93    2.29   2
   0   1   8   12.98    2.63   1
   1   1   8    1.09    1.45   1
   1   1   8    2.70    1.56   2
   2   1   8  146.05    7.21   1
   2   1   8  147.02    6.37   2
   3   1   8    6.35    2.10   1
  -3  -1  -8    6.34    2.66   3
   3   1   8    5.37    1.67   2
   4   1   8   61.24    4.44   2
  -4  -1  -8   67.76    4.98   3
   4   1   8   67.44    5.22   1
   5   1   8    8.15    2.27   2
   5   1   8    3.58    2.01   1
  -5  -1  -8   11.21    2.76   3
   6   1   8  193.83   10.26   1
   7   1   8  143.57    9.24   1
   8   1   8  139.21    9.64   1
   9   1   8    0.73    2.42   1
  10   1   8   29.40    6.23   1
  11   1   8    7.64    3.95   1
 -10   2   8   18.32    5.36   1
  -9   2   8   64.09    7.92   1
  -8   2   8   50.18    6.78   1
  -7   2   8   -1.42    2.45   1
  -6   2   8  156.28    9.41   1
  -5   2   8  148.34    8.88   1
  -4   2   8  209.07   10.11   1
  -3   2   8   88.96    6.10   1
  -2   2   8    0.83    0.96   2
  -2   2   8    2.14    2.02   1
  -1   2   8   68.43    5.07   1
  -1   2   8   73.10    4.77   2
   0   2   8  439.30   14.76   1
   0   2   8  436.81   13.86   2
   1   2   8  364.52   11.51   2
   1   2   8  365.18   12.97   1
  -2  -2  -8    8.77    3.04   3
   2   2   8    6.56    2.03   1
   2   2   8   10.34    1.68   2
   3   2   8   40.58    4.25   1
  -3  -2  -8   42.47    4.57   3
   3   2   8   43.76    3.01   2
   4   2   8   46.73    3.46   2
  -4  -2  -8   51.64    4.81   3
   4   2   8   43.17    4.61   1
   5   2   8  142.97    7.99   1
  -5  -2  -8  120.67    6.95   3
   6   2   8  107.20    7.41   1
   7   2   8   18.27    4.04   1
   8   2   8   89.70    7.62   1
   9   2   8   -0.44    2.19   1
  10   2   8   51.54    7.60   1
  11   2   8   15.34    5.17   1
  12   2   8    4.37    3.46   1
 -10   3   8   -0.37    3.26   1
  -9   3   8    6.80    3.82   1
  -8   3   8    3.00    3.00   1
  -7   3   8   59.24    6.96   1
  -6   3   8   50.79    6.17   1
  -5   3   8    4.32    2.79   1
  -4   3   8   14.52    3.51   1
  -3   3   8  358.80   13.82   1
  -2   3   8  258.64   10.79   1
  -1   3   8   74.23    5.32   1
  -1   3   8   67.22    4.45   2
   0   3   8   74.35    5.30   1
   0   3   8   70.27    4.22   2
  -1  -3  -8   81.86    6.69   3
   1   3   8   97.21    5.95   1
   1   3   8   93.69    4.21   2
   2   3   8  285.06    8.59   2
   2   3   8  295.21   11.41   1
  -2  -3  -8  301.88   12.65   3
  -3  -3  -8  115.87    7.30   3
   3   3   8  105.70    4.11   2
   3   3   8  112.68    6.50   1
   4   3   8    3.63    1.94   1
  -4  -3  -8   -0.15    2.43   3
   5   3   8   38.92    4.77   1
  -5  -3  -8   53.08    5.18   3
  -6  -3  -8   73.39    5.70   3
   6   3   8   76.94    6.20   1
   7   3   8   35.90    5.16   1
   8   3   8  169.11   10.46   1
   9   3   8    2.47    2.41   1
  10   3   8    2.36    2.82   1
  11   3   8    7.98    3.58   1
  12   3   8   22.86    5.40   1
  -9   4   8   11.82    4.37   1
  -8   4   8   81.95    8.59   1
  -7   4   8   27.55    5.50   1
  -6   4   8   19.61    4.57   1
  -5   4   8   85.76    7.05   1
  -4   4   8  153.85    9.00   1
  -3   4   8   31.47    4.41   1
  -2   4   8   36.28    4.47   1
  -1   4   8   32.50    4.10   1
   0   4   8  461.57   14.10   2
   0   4   8  455.59   15.66   1
   1   4   8    2.04    1.79   1
   1   4   8    2.12    1.12   2
  -1  -4  -8    1.60    2.68   3
   2   4   8   30.46    3.83   1
  -2  -4  -8   35.07    4.78   3
  -3  -4  -8   10.47    3.33   3
   3   4   8   12.62    2.86   1
   4   4   8   99.29    6.40   1
  -4  -4  -8  105.16    7.15   3
  -5  -4  -8   71.57    6.05   3
   5   4   8   72.46    5.63   1
  -6  -4  -8   23.53    4.16   3
   6   4   8   24.15    4.17   1
  -7  -4  -8   36.39    4.72   3
   7   4   8   32.40    4.85   1
   8   4   8    3.07    2.51   1
   9   4   8   20.43    4.65   1
  10   4   8   45.16    6.99   1
  11   4   8    3.45    3.01   1
  12   4   8   10.06    4.59   1
  -9   5   8    6.35    4.13   1
  -8   5   8   59.12    7.79   1
  -7   5   8   35.87    6.27   1
  -6   5   8   69.96    7.49   1
  -5   5   8  153.87    9.65   1
  -4   5   8    3.59    2.85   1
  -3   5   8  132.90    8.10   1
  -2   5   8  399.17   14.99   1
  -1   5   8  136.21    7.77   1
   0   5   8    1.95    1.85   1
   0  -5  -8    4.78    3.12   3
   1   5   8   86.24    5.90   1
  -1  -5  -8   80.40    6.97   3
  -2  -5  -8  156.41    9.14   3
   2   5   8  143.25    7.74   1
   3   5   8  346.44   13.22   1
  -3  -5  -8  357.75   14.73   3
   4   5   8  129.61    7.48   1
  -4  -5  -8  141.42    8.53   3
   5   5   8    7.11    2.45   1
  -5  -5  -8    8.92    3.39   3
  -6  -5  -8   93.01    7.21   3
   6   5   8   82.13    6.36   1
  -7  -5  -8   25.29    4.59   3
   7   5   8   28.26    4.66   1
   8   5   8   45.14    5.95   1
   9   5   8    0.13    2.19   1
  10   5   8    4.77    3.01   1
  11   5   8   36.88    6.58   1
  12   5   8    6.90    3.79   1
  13   5   8   -2.15    3.06   1
  -8   6   8    9.41    4.36   1
  -7   6   8    4.15    3.32   1
  -6   6   8    0.02    2.92   1
  -5   6   8   37.68    5.81   1
  -4   6   8   31.26    5.06   1
  -3   6   8   80.92    6.53   1
  -2   6   8   28.32    4.43   1
  -1   6   8  160.36    8.77   1
   0   6   8  381.87   14.19   1
   0  -6  -8  377.00   16.65   3
  -1  -6  -8  344.36   15.51   3
   1   6   8  362.17   13.56   1
   2   6   8   53.97    5.04   1
  -2  -6  -8   52.43    6.18   3
   3   6   8   19.69    3.45   1
  -3  -6  -8   20.54    4.45   3
  -4  -6  -8   38.92    5.64   3
   4   6   8   30.60    4.08   1
  -5  -6  -8  140.47    9.06   3
   5   6   8  130.07    7.77   1
   6   6   8   61.45    5.94   1
  -6  -6  -8   62.65    6.57   3
   7   6   8   25.43    4.44   1
  -7  -6  -8   18.99    4.58   3
   8   6   8  243.28   12.41   1
  -8  -6  -8  244.15   12.56   3
   9   6   8  218.16   12.24   1
  10   6   8   39.04    6.35   1
  11   6   8   14.81    4.47   1
  12   6   8    5.27    3.56   1
  13   6   8    5.23    3.44   1
  -8   7   8    6.31    4.24   1
  -7   7   8   15.30    4.78   1
  -6   7   8   21.88    5.07   1
  -5   7   8    3.76    3.16   1
  -4   7   8   12.54    3.67   1
  -3   7   8    2.37    2.47   1
  -2   7   8   54.48    5.73   1
  -1   7   8  167.01    9.08   1
   0  -7  -8   20.10    5.17   3
   0   7   8   20.71    3.77   1
   1   7   8   12.62    3.10   1
  -1  -7  -8    2.19    3.58   3
  -2  -7  -8  203.41   11.59   3
   2   7   8  255.42   10.76   1
  -3  -7  -8  270.22   13.31   3
   3   7   8  271.65   11.55   1
   4   7   8    4.87    2.20   1
  -4  -7  -8    8.75    3.91   3
  -5  -7  -8   10.44    4.02   3
   5   7   8   21.20    3.78   1
   6   7   8   10.16    3.03   1
  -6  -7  -8   23.14    5.03   3
  -7  -7  -8   60.28    6.86   3
   7   7   8   69.16    6.44   1
  -8  -7  -8   12.83    4.42   3
   8   7   8    8.73    3.09   1
   9   7   8   24.97    4.86   1
  -9  -7  -8   10.22    4.23   3
  10   7   8   41.19    6.43   1
  11   7   8   50.87    7.22   1
  12   7   8    8.13    3.81   1
  -7   8   8   29.85    6.49   1
  -6   8   8    2.94    3.22   1
  -5   8   8   30.00    5.63   1
  -4   8   8  118.33    8.70   1
  -3   8   8   12.13    3.63   1
  -2   8   8   -0.59    1.95   1
  -1   8   8   -1.94    1.71   1
   0   8   8  175.48    9.40   1
   0  -8  -8  212.95   12.37   3
   1   8   8  417.98   15.47   1
  -1  -8  -8  419.55   18.16   3
  -2  -8  -8   60.55    6.96   3
   2   8   8   64.39    5.47   1
  -3  -8  -8   37.03    6.02   3
   3   8   8   29.21    4.09   1
  -4  -8  -8   26.79    5.48   3
   4   8   8   18.29    3.55   1
  -5  -8  -8  203.42   11.74   3
   5   8   8  189.55    9.72   1
   6   8   8   58.57    5.81   1
  -6  -8  -8   60.28    7.12   3
  -7  -8  -8   24.82    5.39   3
   7   8   8   17.97    3.72   1
   8   8   8    3.60    2.41   1
  -8  -8  -8    2.35    3.36   3
   9   8   8   27.63    5.25   1
  -9  -8  -8   26.84    5.67   3
  10   8   8   59.26    7.27   1
  11   8   8   15.37    4.33   1
  -7   9   8    1.14    2.16   1
  -6   9   8   20.21    5.31   1
  -5   9   8   -1.58    2.67   1
  -4   9   8    1.59    2.57   1
  -3   9   8   93.69    7.60   1
  -2   9   8   10.72    3.33   1
  -1   9   8    1.99    2.40   1
   0   9   8   16.73    3.75   1
   0  -9  -8   16.80    5.22   3
   1   9   8   14.88    3.41   1
  -1  -9  -8   18.49    5.28   3
   2   9   8  226.50   10.76   1
  -2  -9  -8  246.66   13.50   3
  -3  -9  -8  233.99   13.16   3
   3   9   8  227.86   10.73   1
  -4  -9  -8   46.31    6.83   3
   4   9   8   40.41    4.82   1
  -5  -9  -8   30.76    6.01   3
   5   9   8   22.85    3.91   1
  -6  -9  -8   67.22    7.89   3
   6   9   8   73.54    6.09   1
  -7  -9  -8  174.15   11.42   3
   7   9   8  156.68    9.22   1
   8   9   8    8.72    2.84   1
  -8  -9  -8    9.89    4.35   3
   9   9   8   19.41    4.19   1
  -9  -9  -8   21.17    5.68   3
 -10  -9  -8    3.20    3.93   3
  -6  10   8    4.79    2.60   1
  -5  10   8   11.57    4.00   1
  -4  10   8   54.19    7.05   1
  -3  10   8   18.10    4.45   1
  -2  10   8    5.22    2.94   1
  -1  10   8   19.68    4.10   1
   1 -10  -8   22.53    5.62   3
   0 -10  -8    5.51    4.25   3
   0  10   8   -1.01    1.88   1
   1  10   8    2.90    2.21   1
  -1 -10  -8    5.39    4.06   3
  -2 -10  -8    4.90    4.53   3
   2  10   8   -0.13    1.84   1
  -3 -10  -8    2.02    3.77   3
   3  10   8    4.03    2.40   1
   4  10   8   10.76    3.01   1
  -4 -10  -8   17.37    5.51   3
  -5 -10  -8  198.11   12.78   3
   5  10   8  211.28   10.31   1
  -6 -10  -8   35.02    6.51   3
   6  10   8   41.89    5.06   1
  -7 -10  -8    1.45    3.67   3
   7  10   8   -0.23    1.34   1
  -8 -10  -8   12.44    4.86   3
  -9 -10  -8   27.52    6.71   3
 -10 -10  -8    3.43    4.18   3
  -6  11   8   -1.72    2.18   1
  -5  11   8   13.87    4.35   1
  -4  11   8    3.33    3.07   1
  -3  11   8   49.72    6.59   1
  -2  11   8   52.00    6.45   1
   1 -11  -8   69.20    8.81   3
  -1  11   8   61.75    6.60   1
   0 -11  -8    2.74    3.60   3
   0  11   8    7.69    2.88   1
  -1 -11  -8   27.43    6.30   3
   1  11   8   31.78    4.75   1
   2  11   8   56.95    5.78   1
  -2 -11  -8   64.04    8.16   3
   3  11   8   35.93    4.81   1
  -3 -11  -8   46.02    7.34   3
   4  11   8  178.25    9.49   1
  -4 -11  -8  178.81   12.37   3
  -5 -11  -8   30.55    6.47   3
   6  11   8   14.20    2.94   1
  -6 -11  -8   30.66    6.70   3
  -7 -11  -8   16.45    5.53   3
  -8 -11  -8   15.53    5.37   3
  -9 -11  -8    2.40    4.46   3
 -10 -11  -8   22.60    6.30   3
 -11 -11  -8   12.12    5.35   3
  -5  12   8   -3.51    1.99   1
  -4  12   8    9.65    3.92   1
  -3  12   8   15.09    4.14   1
  -2  12   8    0.50    2.90   1
   1 -12  -8   17.19    5.64   3
  -1  12   8   23.04    4.84   1
   0 -12  -8   70.28    8.96   3
   0  12   8   88.69    7.12   1
   1  12   8   77.30    6.96   1
  -1 -12  -8   69.69    8.86   3
  -2 -12  -8   12.93    4.93   3
   2  12   8   14.30    3.63   1
   3  12   8  107.89    7.35   1
  -3 -12  -8  107.66    9.94   3
  -5 -12  -8   93.56   10.00   3
   5  12   8   98.76    6.88   1
  -6 -12  -8   66.44    9.15   3
  -7 -12  -8   13.10    5.16   3
  -8 -12  -8   -2.47    4.35   3
  -9 -12  -8   11.39    5.47   3
 -10 -12  -8   12.96    5.86   3
 -11 -12  -8    0.28    4.91   3
  -4  13   8   -0.97    2.95   1
  -3  13   8    7.42    3.58   1
  -2  13   8   17.10    4.24   1
   1 -13  -8    6.09    4.30   3
  -1  13   8    1.39    2.77   1
   0  13   8   11.98    3.65   1
   0 -13  -8    6.37    4.80   3
  -1 -13  -8   35.93    7.23   3
   1  13   8   37.79    5.41   1
   2  13   8   15.19    3.69   1
  -2 -13  -8   21.51    6.17   3
  -3 -13  -8   12.48    5.39   3
   3  13   8    6.26    2.46   1
  -4 -13  -8    1.65    4.44   3
  -5 -13  -8   52.85    8.56   3
  -6 -13  -8   11.10    5.29   3
  -7 -13  -8   23.50    6.74   3
  -8 -13  -8   59.96    9.20   3
  -9 -13  -8    0.20    4.51   3
 -10 -13  -8    2.94    4.57   3
 -11 -13  -8   25.12    7.45   3
  -3  14   8   14.52    4.33   1
  -2  14   8    0.60    2.48   1
  -1  14   8    4.04    2.83   1
   1 -14  -8    9.33    4.61   3
   0 -14  -8   32.54    7.04   3
   0  14   8   36.36    5.68   1
   1  14   8   39.26    5.64   1
  -1 -14  -8   31.87    7.14   3
  -2 -14  -8   26.85    6.89   3
  -3 -14  -8    0.07    3.85   3
  -4 -14  -8   67.63    9.57   3
  -5 -14  -8   14.50    5.93   3
  -6 -14  -8   37.53    7.91   3
  -7 -14  -8    1.34    4.63   3
  -8 -14  -8   -1.13    4.33   3
  -9 -14  -8    9.05    5.40   3
 -10 -14  -8   -2.81    4.28   3
 -11 -14  -8   -0.21    5.13   3
  -2  15   8   62.66    8.00   1
  -1  15   8   22.30    4.85   1
   1 -15  -8   31.13    6.88   3
   0 -15  -8    2.64    3.81   3
  -1 -15  -8   13.13    5.16   3
  -2 -15  -8    5.99    4.49   3
  -3 -15  -8   42.26    8.02   3
  -4 -15  -8    2.18    4.42   3
  -5 -15  -8   -2.79    4.17   3
  -6 -15  -8   78.47   10.58   3
  -7 -15  -8   97.18   11.75   3
  -8 -15  -8   22.04    7.31   3
  -9 -15  -8    9.55    5.75   3
 -10 -15  -8    4.98    5.28   3
   0 -16  -8   44.28    8.45   3
  -1 -16  -8    7.44    5.16   3
  -2 -16  -8   -1.35    3.81   3
  -3 -16  -8   16.58    6.24   3
  -4 -16  -8   18.59    6.25   3
  -5 -16  -8   35.99    8.25   3
  -6 -16  -8   24.21    7.04   3
  -7 -16  -8   15.37    6.36   3
  -8 -16  -8   26.99    7.92   3
  -9 -16  -8   15.64    7.02   3
   0 -17  -8   10.82    5.11   3
  -1 -17  -8   11.88    5.48   3
  -2 -17  -8   34.96    8.23   3
  -3 -17  -8    4.37    4.66   3
  -4 -17  -8   -3.80    4.13   3
  -5 -17  -8    0.91    4.34   3
  -6 -17  -8    1.24    3.46   3
  -7 -17  -8    2.16    4.39   3
  -8 -17  -8    9.36    6.22   3
  -2 -18  -8   17.14    7.21   3
  -3 -18  -8    0.84    5.13   3
  -4 -18  -8   -0.88    3.39   3
  -5 -18  -8    1.10    3.45   3
  -6 -18  -8   -1.00    3.06   3
  -3 -17   9    6.26    5.22   2
  -6 -16   9   16.29    6.61   2
  -5 -16   9   14.83    6.16   2
  -4 -16   9    1.79    3.98   2
  -3 -16   9   11.35    5.31   2
  -2 -16   9   34.30    7.51   2
  -1 -16   9    3.10    4.26   2
   0 -16   9    3.65    4.52   2
   1 -16   9   28.60    7.18   2
  -7 -15   9    5.04    5.01   2
  -6 -15   9    7.44    4.99   2
  -5 -15   9   19.31    6.25   2
  -4 -15   9   14.63    5.35   2
  -3 -15   9    5.91    4.69   2
  -2 -15   9   -0.95    3.73   2
  -1 -15   9   22.75    6.54   2
   0 -15   9   15.83    5.78   2
   1 -15   9   34.36    7.96   2
   2 -15   9    0.11    4.20   2
  -8 -14   9    4.77    5.11   2
  -7 -14   9   17.17    6.38   2
  -6 -14   9   -0.33    3.92   2
  -5 -14   9    1.48    3.80   2
  -4 -14   9    4.58    4.45   2
  -3 -14   9    3.54    4.15   2
  -2 -14   9   20.89    6.15   2
  -1 -14   9   12.20    5.14   2
   0 -14   9    2.32    3.40   2
   1 -14   9   21.30    6.23   2
   2 -14   9    4.97    4.03   2
   3 -14   9    4.44    3.13   2
   4 -14   9    1.20    3.17   2
  -8 -13   9   20.42    6.89   2
  -7 -13   9    2.20    4.62   2
  -6 -13   9   10.08    4.83   2
  -5 -13   9   25.96    6.71   2
  -4 -13   9   27.80    6.66   2
  -3 -13   9   27.07    6.46   2
  -2 -13   9   41.41    7.88   2
  -1 -13   9    7.19    4.83   2
   0 -13   9    9.69    4.13   2
   1 -13   9   44.68    8.21   2
   2 -13   9    7.89    4.19   2
   3 -13   9    4.72    4.02   2
   4 -13   9    1.23    3.33   2
   5 -13   9   -1.45    3.12   2
  -9 -12   9   -0.65    4.34   2
  -8 -12   9   -2.56    4.37   2
  -7 -12   9   -1.52    3.79   2
  -6 -12   9   13.89    5.32   2
  -5 -12   9    4.03    3.98   2
  -4 -12   9   18.38    5.61   2
  -3 -12   9   95.56   10.01   2
  -2 -12   9   67.75    8.63   2
  -1 -12   9   44.19    7.61   2
   0 -12   9    5.48    4.08   2
   1 -12   9    3.47    3.71   2
   2 -12   9   71.55    9.86   2
   3 -12   9   62.03    9.45   2
   4 -12   9   33.73    7.18   2
   5 -12   9   -3.70    3.13   2
   6 -12   9    2.76    3.51   2
  -9 -11   9    5.77    5.07   2
  -8 -11   9   24.27    6.86   2
  -7 -11   9   43.10    8.04   2
  -6 -11   9    5.58    4.21   2
  -5 -11   9    3.38    3.87   2
  -4 -11   9   42.70    7.18   2
  -3 -11   9    9.71    4.57   2
  -2 -11   9    8.21    3.98   2
  -1 -11   9    9.80    4.37   2
   0 -11   9    7.39    4.19   2
   1 -11   9    5.31    3.87   2
   2 -11   9    5.04    3.85   2
   3 -11   9    8.49    4.17   2
   4 -11   9   40.32    7.83   2
   5 -11   9   46.32    8.39   2
   6 -11   9    4.37    3.72   2
   7 -11   9   -2.45    3.18   2
 -10 -10   9    5.99    5.05   2
  -9 -10   9    6.29    4.65   2
  -8 -10   9   18.24    5.88   2
  -7 -10   9   16.38    5.39   2
  -6 -10   9   88.84    9.86   2
  -5 -10   9    9.92    4.58   2
  -4 -10   9   10.75    4.20   2
  -3 -10   9    5.10    3.54   2
  -2 -10   9   42.18    6.66   2
  -1 -10   9   36.60    6.40   2
   0 -10   9   11.42    4.48   2
   1 -10   9   19.12    5.06   2
   2 -10   9   16.34    4.90   2
   3 -10   9   19.99    5.61   2
   4 -10   9   15.20    4.75   2
  -5  10  -9    1.98    2.31   4
   5 -10   9   -0.94    2.60   2
  -5  10  -9    5.89    3.02   1
  -6  10  -9    9.88    3.76   1
   6 -10   9   -1.63    3.19   2
  -6  10  -9    7.38    3.04   4
  -7  10  -9   48.59    7.51   1
  -7  10  -9   42.70    6.66   4
 -10  -9   9   30.85    8.06   2
  -9  -9   9   19.51    5.99   2
  -8  -9   9   10.58    5.35   2
  -7  -9   9    5.24    3.90   2
  -6  -9   9    9.75    4.09   2
  -5  -9   9   10.24    4.33   2
  -4  -9   9    8.16    4.00   2
  -3  -9   9    1.67    2.90   2
  -2  -9   9    2.58    3.54   2
  -1  -9   9   18.36    4.96   2
   0  -9   9  304.65   15.76   2
   1  -9   9   93.97    8.78   2
   2  -9   9    6.21    3.53   2
   3  -9   9    3.72    3.19   2
   4  -9   9    1.12    2.07   1
   4  -9   9    1.96    3.33   2
   5  -9   9   21.33    4.58   1
   5  -9   9   10.88    4.35   2
  -6   9  -9   54.27    6.28   4
   6  -9   9   49.99    8.50   2
  -6   9  -9   66.43    7.32   1
  -7   9  -9    3.22    3.33   1
  -7   9  -9   -2.60    2.47   4
   7  -9   9    4.55    3.18   2
  -8   9  -9   -1.19    2.86   4
  -8   9  -9    7.98    4.32   1
   8  -9   9   -1.71    2.85   2
 -10  -8   9   18.58    6.90   2
  -9  -8   9    4.01    4.50   2
  -8  -8   9    3.18    3.89   2
  -7  -8   9   40.06    7.36   2
  -6  -8   9   11.99    4.39   2
  -5  -8   9   -2.12    2.38   2
  -4  -8   9   12.50    4.41   2
  -3  -8   9    7.33    3.78   2
  -2  -8   9   35.11    5.89   2
  -1  -8   9   18.84    4.87   2
   0  -8   9   14.88    4.61   2
   1  -8   9   14.50    4.48   2
   2  -8   9  103.99    8.97   2
   2  -8   9  104.17    6.77   1
   3  -8   9   29.66    4.57   1
   3  -8   9   21.73    5.37   2
   4  -8   9    4.15    3.30   2
   4  -8   9    2.14    2.19   1
   5  -8   9    2.00    2.41   1
   5  -8   9   -0.08    2.99   2
   6  -8   9    5.69    3.90   2
   6  -8   9   13.78    3.90   1
  -7   8  -9   22.62    4.51   4
   7  -8   9   17.20    5.30   2
  -7   8  -9   16.68    4.73   1
  -8   8  -9    8.74    3.19   4
   8  -8   9    3.28    3.62   2
  -8   8  -9    3.83    3.34   1
  -9   8  -9   15.22    5.08   4
  -9   8  -9    5.51    4.61   1
   9  -8   9   14.03    6.07   2
 -10  -7   9    0.36    2.65   2
  -9  -7   9   17.66    5.84   2
  -8  -7   9   97.59   10.43   2
  -7  -7   9   69.39    8.91   2
  -6  -7   9   27.14    5.97   2
  -5  -7   9   65.20    7.53   2
  -4  -7   9   52.60    6.72   2
  -3  -7   9   80.54    7.89   2
  -2  -7   9   13.55    4.28   2
  -1  -7   9   44.62    6.15   2
   0  -7   9   24.04    5.00   2
   1  -7   9   31.72    5.76   2
   1  -7   9   25.98    3.56   1
   2  -7   9   17.19    4.48   2
   2  -7   9   17.35    3.17   1
   3  -7   9   12.68    4.20   2
   3  -7   9    9.71    2.92   1
   4  -7   9   15.97    3.81   1
   4  -7   9   20.39    4.89   2
   5  -7   9   18.31    4.95   2
   5  -7   9   24.20    4.87   1
   6  -7   9    1.87    3.01   2
   6  -7   9    0.76    2.66   1
   7  -7   9    3.85    3.23   1
   7  -7   9    3.92    3.36   2
  -8   7  -9    2.03    2.52   4
  -8   7  -9    4.24    3.35   1
   8  -7   9   -2.12    2.52   2
  -9   7  -9   -0.76    2.11   4
   9  -7   9   13.62    5.03   2
  -9   7  -9    0.89    2.29   1
 -10  -6   9   -0.84    2.59   2
  -9  -6   9    5.91    4.36   2
  -8  -6   9   22.31    5.93   2
  -7  -6   9  173.36   12.42   2
  -6  -6   9   79.60    8.62   2
  -5  -6   9  143.62   10.43   2
  -4  -6   9   -0.06    2.74   2
  -3  -6   9  112.56    8.87   2
  -2  -6   9   78.89    7.15   2
  -1  -6   9   14.69    2.46   1
  -1  -6   9   18.55    4.45   2
   0  -6   9    1.87    1.26   1
   0  -6   9    0.60    2.75   2
   1  -6   9    8.22    2.19   1
   1  -6   9    8.45    3.65   2
   2  -6   9   17.62    4.43   2
   2  -6   9   18.72    3.35   1
   3  -6   9   63.80    5.46   1
   3  -6   9   71.57    7.56   2
   4  -6   9   41.10    6.31   2
   4  -6   9   37.10    5.20   1
   5  -6   9   15.89    4.53   2
   5  -6   9   26.28    4.87   1
   6  -6   9   45.84    6.57   1
   6  -6   9   41.59    7.07   2
   7  -6   9   41.54    6.68   1
   7  -6   9   38.85    7.05   2
   8  -6   9   11.77    4.81   2
   8  -6   9   12.10    4.36   1
   9  -6   9    0.01    2.82   2
  -9   6  -9    1.40    3.52   1
  -9   6  -9   -3.85    2.36   4
 -10   6  -9    2.13    2.41   4
 -10   6  -9    4.79    2.74   1
 -10  -5   9   -1.60    2.40   2
  -9  -5   9   24.78    6.30   2
  -8  -5   9    7.81    4.45   2
  -7  -5   9    9.73    4.16   2
  -6  -5   9    7.84    3.80   2
  -5  -5   9    3.33    3.03   2
  -4  -5   9  123.37    9.08   2
  -3  -5   9   62.33    6.47   2
  -2  -5   9    3.35    2.93   2
  -2  -5   9    0.04    1.17   1
  -1  -5   9   50.98    5.85   2
  -1  -5   9   56.37    4.05   1
   0  -5   9   10.22    2.22   1
   0  -5   9    9.50    3.57   2
   1  -5   9  157.44    9.84   2
   1  -5   9  163.98    7.75   1
   2  -5   9   12.77    3.90   2
   2  -5   9    9.33    2.42   1
   3  -5   9    2.26    2.83   2
   3  -5   9    4.33    2.06   1
   4  -5   9  120.01    7.87   1
   4  -5   9  111.23    8.69   2
   5  -5   9  160.08   10.80   2
   5  -5   9  169.53   10.11   1
   6  -5   9    5.87    3.41   2
   6  -5   9    2.54    2.40   1
   7  -5   9   -0.76    2.28   2
   7  -5   9    3.52    2.75   1
   8  -5   9   24.47    5.71   2
   8  -5   9   19.10    5.17   1
   9  -5   9   18.65    5.10   1
 -10   5  -9    0.89    1.99   4
 -10   5  -9    2.47    2.61   1
 -10  -4   9    1.13    2.50   2
  -9  -4   9    4.90    4.08   2
  -8  -4   9   10.46    4.97   2
  -7  -4   9   58.17    8.00   2
  -6  -4   9   28.17    5.59   2
  -5  -4   9  263.31   13.92   2
  -4  -4   9   61.29    6.79   2
  -4  -4   9   61.67    4.87   1
  -3  -4   9    2.47    2.84   2
  -3  -4   9    4.32    1.77   1
  -2  -4   9   53.54    5.82   2
  -2  -4   9   52.16    4.00   1
  -1  -4   9   53.30    5.67   2
  -1  -4   9   49.51    3.82   1
   0  -4   9    1.51    2.39   2
   0  -4   9    2.59    1.52   1
   1  -4   9    5.88    1.94   1
   1  -4   9   10.48    3.35   2
   2  -4   9  301.30   11.97   1
   2  -4   9  318.81   13.70   2
   3  -4   9   61.50    5.11   1
   3  -4   9   66.50    6.24   2
   4  -4   9    2.95    2.63   2
   4  -4   9    1.38    1.61   1
   5  -4   9    4.81    2.82   2
   5  -4   9    6.89    2.71   1
   6  -4   9    4.80    2.93   2
   6  -4   9    3.69    2.50   1
   7  -4   9  173.47   11.10   1
   7  -4   9  154.76   11.21   2
   8  -4   9   27.85    5.69   1
   8  -4   9   40.58    7.08   2
   9  -4   9    7.37    3.77   1
 -10  -3   9   -2.86    2.54   2
  -9  -3   9   33.58    7.05   2
  -8  -3   9   34.63    7.05   2
  -7  -3   9   21.62    5.54   2
  -6  -3   9    8.83    3.04   1
  -6  -3   9    5.91    3.37   2
  -5  -3   9   44.34    4.78   1
  -5  -3   9   48.77    6.47   2
  -4  -3   9  121.55    6.85   1
  -4  -3   9  108.89    8.27   2
  -3  -3   9   98.68    6.12   1
  -3  -3   9  110.99    8.07   2
  -2  -3   9  101.64    7.37   2
  -2  -3   9  107.99    6.01   1
  -1  -3   9   22.29    2.99   1
  -1  -3   9   23.35    4.12   2
   0  -3   9  146.15    6.96   1
   0  -3   9  142.35    8.14   2
   1  -3   9  136.02    7.00   1
   1  -3   9  145.70    8.40   2
   2  -3   9   21.17    4.06   2
   2  -3   9   22.29    3.41   1
   3  -3   9   11.03    3.16   2
   3  -3   9    3.76    1.83   1
   4  -3   9   32.36    4.93   2
   4  -3   9   20.95    3.77   1
   5  -3   9    5.90    2.62   1
   5  -3   9    8.24    3.31   2
   6  -3   9    8.89    3.57   2
   6  -3   9    1.27    2.13   1
   7  -3   9    2.88    2.46   1
   7  -3   9    0.78    2.26   2
   8  -3   9   44.17    6.99   1
   8  -3   9   60.38    8.11   2
   9  -3   9   63.27    8.83   1
  10  -3   9   30.66    6.37   1
 -11   3  -9    1.88    2.96   1
 -11   3  -9    1.05    2.39   4
 -10  -2   9    0.45    2.63   2
  -9  -2   9    3.42    3.29   2
  -8  -2   9    1.53    3.19   2
  -7  -2   9   25.12    5.74   2
  -7  -2   9   31.23    4.68   1
  -6  -2   9  176.35    9.27   1
  -6  -2   9  165.98   11.06   2
  -5  -2   9   21.83    4.84   2
  -5  -2   9   28.86    4.17   1
  -4  -2   9   17.78    4.26   2
  -4  -2   9   19.44    3.42   1
  -3  -2   9   35.42    4.87   2
  -3  -2   9   32.69    4.04   1
  -2  -2   9   34.50    4.64   2
  -2  -2   9   40.98    4.11   1
  -1  -2   9   83.29    6.20   2
  -1  -2   9   87.99    5.38   1
   0  -2   9   71.11    4.76   1
   0  -2   9   71.78    5.57   2
   1  -2   9   31.92    3.67   1
   3  -2   9   26.56    3.80   1
   4  -2   9    8.52    2.57   1
   4  -2   9    2.13    1.25   2
   5  -2   9   12.70    3.28   1
   5  -2   9    4.74    2.46   2
   6  -2   9   34.72    5.52   2
   6  -2   9   31.66    5.16   1
   7  -2   9   82.34    8.10   1
   7  -2   9   78.45    8.00   2
   8  -2   9   19.83    4.99   1
   9  -2   9   20.65    5.07   1
  10  -2   9   10.67    4.46   1
 -10  -1   9   -0.31    2.33   2
  -9  -1   9    0.94    3.31   2
  -8  -1   9   12.13    3.96   1
  -8  -1   9    9.59    4.21   2
  -7  -1   9   -0.13    2.67   2
  -7  -1   9   -0.43    2.40   1
  -6  -1   9   23.13    4.19   1
  -6  -1   9   25.27    5.19   2
  -5  -1   9   76.29    6.04   1
  -5  -1   9   75.68    7.02   2
  -4  -1   9   83.64    7.03   2
  -4  -1   9   71.66    5.75   1
  -3  -1   9   71.03    5.50   1
  -3  -1   9   68.22    6.16   2
  -2  -1   9   25.89    3.71   1
  -2  -1   9   32.13    4.25   2
  -1  -1   9    7.28    2.19   1
  -1  -1   9    4.20    2.23   2
   0  -1   9    2.62    1.73   2
   0  -1   9    0.81    1.37   1
   1  -1   9    2.35    1.52   1
   1  -1   9    7.05    2.39   2
   2  -1   9   77.99    5.56   2
   2  -1   9   75.91    5.33   1
   3  -1   9   52.96    4.70   2
   3  -1   9   44.14    4.69   1
   4  -1   9   39.99    4.61   2
   4  -1   9   41.97    4.79   1
   5  -1   9   67.48    6.24   1
   5  -1   9   65.15    5.78   2
   6  -1   9   87.59    7.11   1
   6  -1   9   80.35    6.80   2
   7  -1   9   68.49    7.30   1
   8  -1   9   83.05    8.52   1
   9  -1   9   10.28    3.85   1
  10  -1   9   12.52    4.71   1
  11  -1   9   -0.34    2.36   1
 -10   0   9    1.42    2.41   2
 -10   0   9    8.91    4.34   1
  -9   0   9    5.08    4.00   2
  -9   0   9   -2.03    2.87   1
  -8   0   9    7.76    3.75   2
  -8   0   9    4.35    2.99   1
  -7   0   9   54.65    7.25   2
  -7   0   9   54.23    6.25   1
  -6   0   9   51.36    6.66   2
  -6   0   9   53.13    5.83   1
  -5   0   9    2.31    2.56   2
  -5   0   9    0.65    2.27   1
  -4   0   9   82.34    6.91   2
  -4   0   9   65.79    5.79   1
  -3   0   9   12.40    3.42   2
  -3   0   9   11.92    3.02   1
  -2   0   9  278.95   11.43   1
  -2   0   9  295.20   12.21   2
  -1   0   9   62.46    4.87   1
  -1   0   9   53.27    4.57   2
   0   0   9    8.31    2.25   1
   0   0   9    5.96    2.20   2
   1   0   9   -0.62    1.22   1
   1   0   9    0.17    1.60   2
   2   0   9   20.80    3.06   2
   2   0   9   16.39    2.95   1
   3   0   9  173.64    8.71   1
   3   0   9  181.93    8.30   2
   4   0   9   81.33    6.05   1
   4   0   9   86.10    5.86   2
   5   0   9   23.24    3.85   2
   5   0   9   14.97    3.47   1
   6   0   9  115.77    7.79   2
   6   0   9  111.38    7.96   1
   7   0   9    3.26    2.46   1
   8   0   9    6.76    2.90   1
   9   0   9    7.60    3.22   1
  10   0   9    0.50    2.86   1
  11   0   9    7.05    3.63   1
 -10   1   9    6.50    3.56   1
 -10   1   9    5.63    3.07   2
  -9   1   9   -0.79    2.56   1
  -8   1   9    0.64    3.25   1
  -7   1   9   25.72    5.09   1
  -6   1   9   25.52    4.77   1
  -6   1   9   20.09    4.60   2
  -5   1   9   50.23    5.53   1
  -5   1   9   55.11    6.26   2
  -4   1   9  163.19    9.59   2
  -4   1   9  147.75    8.52   1
  -3   1   9  150.29    8.31   1
  -3   1   9  131.63    8.06   2
  -2   1   9   32.39    4.11   1
  -1   1   9   57.39    4.78   2
  -1   1   9   58.13    4.93   1
   0   1   9   61.58    4.87   1
   0   1   9   66.69    4.69   2
   1   1   9    4.44    1.91   2
   1   1   9    3.21    1.78   1
   2   1   9    0.94    1.43   2
   2   1   9    1.11    1.44   1
   3   1   9  301.74   11.77   1
   3   1   9  267.75   10.30   2
   4   1   9   62.38    5.23   1
   4   1   9   59.60    4.41   2
  -4  -1  -9   46.11    4.81   3
   5   1   9  185.05    9.84   1
   5   1   9  206.91    9.46   2
   6   1   9   10.44    3.12   1
   6   1   9   17.48    3.49   2
   7   1   9    4.12    2.50   1
   8   1   9    7.44    3.11   1
   9   1   9   57.85    7.65   1
  10   1   9   42.07    6.99   1
  11   1   9   -0.66    2.68   1
  12   1   9    0.04    2.69   1
  -9   2   9   23.44    5.36   1
  -8   2   9    6.48    3.47   1
  -7   2   9   19.70    4.65   1
  -6   2   9    4.12    2.92   1
  -5   2   9    0.28    2.31   1
  -4   2   9    9.68    3.32   1
  -3   2   9  112.07    7.26   1
  -3   2   9  119.70    7.47   2
  -2   2   9  107.18    6.84   1
  -2   2   9  118.13    6.92   2
  -1   2   9   23.40    3.24   2
  -1   2   9   19.67    3.46   1
   0   2   9   26.02    3.68   1
   0   2   9   22.00    2.93   2
   1   2   9   18.89    3.26   1
   1   2   9   15.57    2.27   2
   2   2   9  110.16    5.21   2
   2   2   9  107.90    6.54   1
   3   2   9    1.46    1.21   2
   3   2   9    0.02    1.29   1
  -3  -2  -9   -0.52    2.33   3
  -4  -2  -9    8.28    3.26   3
   4   2   9    1.98    1.72   1
   5   2   9   19.21    3.71   1
  -5  -2  -9   24.96    4.04   3
   6   2   9   25.75    4.42   1
   7   2   9   32.09    5.21   1
   8   2   9   10.89    3.49   1
   9   2   9   26.46    5.40   1
  10   2   9   44.16    7.20   1
  11   2   9  135.53   11.20   1
  12   2   9   -0.22    2.37   1
  -9   3   9    8.15    4.27   1
  -8   3   9   42.82    6.74   1
  -7   3   9   -0.20    2.91   1
  -6   3   9    9.48    3.54   1
  -5   3   9  142.51    9.08   1
  -4   3   9  171.58    9.67   1
  -3   3   9   37.49    4.87   1
  -2   3   9   37.43    4.10   2
  -2   3   9   28.45    4.26   1
  -1   3   9    4.02    1.95   2
  -1   3   9    6.68    2.42   1
   0   3   9    7.81    2.00   2
   0   3   9    6.42    2.36   1
   1   3   9  291.64   11.87   1
   1   3   9  300.06    9.96   2
  -2  -3  -9   43.70    5.39   3
   2   3   9   46.77    4.73   1
   3   3   9   78.87    5.75   1
  -3  -3  -9   86.74    6.79   3
   4   3   9   13.98    3.18   1
  -4  -3  -9   15.36    3.76   3
  -5  -3  -9   50.76    5.39   3
   5   3   9   49.48    5.43   1
  -6  -3  -9   11.31    3.63   3
   6   3   9    7.46    2.70   1
   7   3   9   72.32    6.96   1
   8   3   9   63.22    7.24   1
   9   3   9   55.56    7.25   1
  10   3   9    9.13    3.87   1
  11   3   9    3.10    3.06   1
  12   3   9   16.17    5.34   1
  -9   4   9    5.41    4.08   1
  -8   4   9   10.16    4.24   1
  -7   4   9    9.37    4.14   1
  -6   4   9   17.88    4.68   1
  -5   4   9   11.06    3.62   1
  -4   4   9  170.47    9.77   1
  -3   4   9  189.81   10.07   1
  -2   4   9   62.96    6.01   1
  -1   4   9  151.45    8.36   1
  -1   4   9  153.10    7.33   2
   0   4   9    0.16    1.66   1
   0   4   9   -0.07    1.37   2
   1   4   9   12.18    2.94   1
  -1  -4  -9   16.62    4.28   3
   2   4   9  131.12    7.42   1
  -2  -4  -9  118.85    8.30   3
  -3  -4  -9  133.25    8.60   3
   3   4   9  120.69    7.32   1
   4   4   9   10.55    2.76   1
  -4  -4  -9   11.07    3.78   3
  -5  -4  -9   50.80    5.64   3
   5   4   9   40.27    5.01   1
   6   4   9  278.10   12.67   1
  -6  -4  -9  285.61   12.64   3
   7   4   9  146.98    9.34   1
   8   4   9   63.27    7.13   1
   9   4   9    2.93    2.69   1
  10   4   9   15.18    4.59   1
  11   4   9   26.78    6.09   1
  12   4   9   15.76    5.09   1
  -8   5   9    2.70    3.57   1
  -7   5   9   22.13    5.33   1
  -6   5   9   -0.73    2.62   1
  -5   5   9    5.35    3.09   1
  -4   5   9  102.26    7.73   1
  -3   5   9   22.00    4.44   1
  -2   5   9   83.26    6.66   1
  -1   5   9    0.01    2.16   1
   0   5   9  218.39   10.32   1
   1   5   9  120.63    7.40   1
  -1  -5  -9  124.38    8.86   3
   2   5   9   80.91    5.99   1
  -2  -5  -9   77.89    7.15   3
  -3  -5  -9   23.02    4.71   3
   3   5   9   25.29    3.95   1
   4   5   9  102.43    6.86   1
  -4  -5  -9   98.26    7.62   3
  -5  -5  -9   80.10    6.97   3
   5   5   9   92.30    6.62   1
   6   5   9    9.27    3.04   1
  -6  -5  -9   10.68    3.87   3
  -7  -5  -9   20.29    4.50   3
   7   5   9   23.62    4.32   1
   8   5   9  197.82   11.38   1
   9   5   9    2.84    2.39   1
  10   5   9    7.88    3.38   1
  11   5   9   14.67    4.61   1
  12   5   9    9.03    4.83   1
  -8   6   9    9.94    4.71   1
  -7   6   9   51.05    7.66   1
  -6   6   9   39.76    6.43   1
  -5   6   9    3.16    2.93   1
  -4   6   9    8.12    3.23   1
  -3   6   9  136.71    8.75   1
  -2   6   9  489.64   17.87   1
  -1   6   9  486.30   17.47   1
   0   6   9    2.14    2.24   1
   1   6   9    0.19    1.89   1
  -1  -6  -9    1.18    3.27   3
   2   6   9   85.19    6.28   1
  -2  -6  -9   78.97    7.50   3
   3   6   9   49.89    5.23   1
  -3  -6  -9   45.82    6.15   3
  -4  -6  -9   -2.09    3.13   3
   4   6   9    2.65    2.05   1
  -5  -6  -9    3.18    3.30   3
   5   6   9    4.59    2.31   1
  -6  -6  -9   93.99    7.75   3
   6   6   9   98.22    7.22   1
  -7  -6  -9   78.54    7.20   3
   7   6   9   69.24    6.81   1
  -8  -6  -9   10.22    4.07   3
   8   6   9    9.17    3.24   1
   9   6   9    9.43    3.52   1
  10   6   9   -0.31    2.41   1
  11   6   9   16.76    4.84   1
  12   6   9   22.39    5.39   1
  -8   7   9   26.86    6.54   1
  -7   7   9    7.22    4.04   1
  -6   7   9   16.93    4.85   1
  -5   7   9    5.08    3.09   1
  -4   7   9   33.10    5.40   1
  -3   7   9    6.34    2.97   1
  -2   7   9    4.62    2.74   1
  -1   7   9  222.78   10.94   1
   0   7   9  792.02   24.90   1
   0  -7  -9  797.27   28.86   3
  -1  -7  -9  116.03    9.29   3
   1   7   9  122.97    7.81   1
   2   7   9   25.60    4.15   1
  -2  -7  -9   29.11    5.71   3
  -3  -7  -9   46.60    6.42   3
   3   7   9   37.18    4.78   1
  -4  -7  -9  140.29    9.65   3
   4   7   9  132.67    8.11   1
   5   7   9   80.13    6.29   1
  -5  -7  -9   84.94    7.76   3
  -6  -7  -9  133.89    9.68   3
   6   7   9  128.02    8.31   1
  -7  -7  -9    2.58    3.46   3
   7   7   9   -0.22    1.78   1
  -8  -7  -9   41.96    6.19   3
   8   7   9   38.11    5.76   1
   9   7   9   48.87    6.79   1
  10   7   9   83.98    8.83   1
  11   7   9   -0.57    2.64   1
  12   7   9   21.44    5.50   1
  -7   8   9   37.92    7.43   1
  -6   8   9   32.70    6.27   1
  -5   8   9   16.16    4.47   1
  -4   8   9   10.02    3.75   1
  -3   8   9   17.88    4.29   1
  -2   8   9   64.96    6.58   1
  -1   8   9   36.83    5.20   1
   0  -8  -9    8.24    4.10   3
   0   8   9   11.92    3.40   1
   1   8   9    2.10    2.24   1
  -1  -8  -9   -2.19    3.44   3
  -2  -8  -9  139.03   10.15   3
   2   8   9  124.59    7.82   1
   3   8   9  115.94    7.58   1
  -3  -8  -9  115.02    9.41   3
   4   8   9   30.89    4.59   1
  -4  -8  -9   37.65    6.32   3
   5   8   9   46.13    5.38   1
  -5  -8  -9   61.61    7.44   3
   6   8   9  152.13    9.06   1
  -6  -8  -9  165.08   10.85   3
  -7  -8  -9   91.91    8.53   3
   7   8   9   99.84    7.48   1
  -8  -8  -9   67.06    7.66   3
   8   8   9   66.92    6.94   1
  -9  -8  -9   23.39    5.51   3
   9   8   9   27.39    5.25   1
  10   8   9   21.76    4.86   1
  11   8   9   60.80    7.96   1
  -7   9   9    0.84    2.46   1
  -6   9   9    0.74    2.54   1
  -5   9   9   17.37    4.69   1
  -4   9   9   47.36    6.72   1
  -3   9   9   27.25    5.28   1
  -2   9   9    7.24    3.00   1
  -1   9   9   15.06    3.87   1
   0   9   9   24.40    4.43   1
   0  -9  -9   26.23    6.06   3
  -1  -9  -9  449.06   19.92   3
   1   9   9  435.21   16.71   1
  -2  -9  -9  357.35   17.38   3
   2   9   9  367.00   14.61   1
   3   9   9   43.12    5.12   1
  -3  -9  -9   21.46    5.73   3
   4   9   9    8.75    2.85   1
  -4  -9  -9    7.14    4.16   3
  -5  -9  -9  122.79    9.98   3
   5   9   9  125.57    8.01   1
  -6  -9  -9   22.99    5.67   3
   6   9   9    9.87    2.98   1
   7   9   9   32.66    5.03   1
  -7  -9  -9   21.62    5.76   3
   8   9   9   21.49    4.48   1
  -8  -9  -9   26.10    5.93   3
   9   9   9   64.11    7.26   1
  -9  -9  -9   73.62    8.58   3
  10   9   9   55.47    7.31   1
  -6  10   9    2.26    2.48   1
  -5  10   9   20.52    5.14   1
  -4  10   9   14.33    4.33   1
  -3  10   9   68.58    7.52   1
  -2  10   9   36.21    5.67   1
  -1  10   9    9.81    3.43   1
   0  10   9    6.78    3.05   1
   0 -10  -9    5.46    4.05   3
   1  10   9   14.05    3.46   1
  -1 -10  -9   17.72    5.29   3
   2  10   9  143.06    8.61   1
  -2 -10  -9  126.38   10.49   3
   3  10   9  203.15   10.60   1
  -3 -10  -9  217.37   13.38   3
  -4 -10  -9  145.88   11.05   3
   4  10   9  141.72    8.62   1
   5  10   9    0.67    1.75   1
  -5 -10  -9   -0.12    4.00   3
   6  10   9    2.76    2.04   1
  -6 -10  -9    1.78    3.85   3
   7  10   9   67.56    6.78   1
  -7 -10  -9   63.99    8.32   3
  -8 -10  -9   33.73    6.86   3
   8  10   9   60.18    6.65   1
  -9 -10  -9   -1.62    3.56   3
 -10 -10  -9    0.34    4.24   3
  -5  11   9    0.31    2.17   1
  -4  11   9   15.50    4.97   1
  -3  11   9    1.21    2.72   1
  -2  11   9    9.32    3.43   1
  -1  11   9    8.80    3.22   1
   0 -11  -9   36.84    7.26   3
   0  11   9   40.05    5.60   1
  -1 -11  -9   83.79    9.40   3
   1  11   9   77.83    6.61   1
   2  11   9    4.56    2.30   1
  -2 -11  -9    5.51    4.12   3
   3  11   9    0.19    1.65   1
  -3 -11  -9    2.03    3.95   3
   4  11   9    4.54    2.39   1
  -4 -11  -9   12.98    5.15   3
  -5 -11  -9  105.80    9.98   3
   5  11   9  111.27    7.62   1
   6  11   9   13.61    3.59   1
  -6 -11  -9    9.99    4.87   3
  -7 -11  -9    6.15    4.90   3
   7  11   9    3.01    2.10   1
  -8 -11  -9   10.15    5.37   3
  -9 -11  -9   77.87    9.54   3
 -10 -11  -9   19.22    6.20   3
  -5  12   9    1.51    2.23   1
  -4  12   9    4.88    3.21   1
  -3  12   9   12.03    4.02   1
  -2  12   9   11.16    3.66   1
  -1  12   9   17.42    4.30   1
   0 -12  -9    8.53    4.80   3
   0  12   9    4.25    2.79   1
  -1 -12  -9   30.57    7.07   3
   1  12   9   47.99    5.92   1
  -2 -12  -9    7.25    4.44   3
   2  12   9   10.77    3.34   1
  -3 -12  -9    2.36    3.73   3
   3  12   9   -2.47    1.66   1
  -4 -12  -9   12.03    5.18   3
   4  12   9    7.71    2.65   1
  -5 -12  -9   74.99    9.45   3
   5  12   9   70.85    6.57   1
  -6 -12  -9    6.08    4.43   3
  -7 -12  -9   58.35    8.83   3
  -8 -12  -9   15.67    5.86   3
  -9 -12  -9   -4.90    3.35   3
 -10 -12  -9    5.05    4.51   3
 -11 -12  -9   43.31    8.86   3
  -4  13   9   36.45    6.81   1
  -3  13   9    7.71    3.96   1
  -2  13   9    0.78    2.47   1
  -1  13   9    6.15    3.23   1
   0 -13  -9   49.23    8.48   3
   0  13   9   41.50    6.07   1
   1  13   9   32.77    5.23   1
  -1 -13  -9   15.64    5.61   3
   2  13   9    9.64    3.29   1
  -2 -13  -9   13.42    5.49   3
   3  13   9   -1.69    1.84   1
  -3 -13  -9   -2.72    3.75   3
   4  13   9   14.70    3.50   1
  -4 -13  -9   17.95    5.94   3
  -5 -13  -9   -2.55    4.36   3
  -6 -13  -9   14.47    6.02   3
  -7 -13  -9    2.63    4.69   3
  -8 -13  -9    8.81    5.39   3
  -9 -13  -9   18.05    6.46   3
 -10 -13  -9    3.33    4.84   3
 -11 -13  -9   13.39    5.96   3
  -3  14   9    4.35    3.14   1
  -2  14   9   41.29    7.01   1
  -1  14   9   24.68    5.38   1
   0 -14  -9    9.06    4.69   3
   0  14   9    5.80    2.94   1
   1  14   9   19.77    4.34   1
  -1 -14  -9   23.75    6.16   3
   2  14   9   42.96    5.77   1
  -2 -14  -9   48.34    8.49   3
  -3 -14  -9   62.39    9.37   3
  -4 -14  -9   13.02    5.55   3
  -5 -14  -9   -2.91    4.50   3
  -6 -14  -9   41.26    8.63   3
  -7 -14  -9    0.44    4.70   3
  -8 -14  -9    0.09    4.28   3
  -9 -14  -9    9.33    5.99   3
 -10 -14  -9    3.01    4.81   3
  -2  15   9   10.80    4.03   1
  -1  15   9   15.35    4.40   1
   0  15   9   27.97    5.42   1
   0 -15  -9   44.02    8.75   3
  -1 -15  -9   16.76    6.04   3
  -2 -15  -9    7.44    4.46   3
  -3 -15  -9    3.18    5.26   3
  -4 -15  -9   42.25    8.52   3
  -5 -15  -9    6.76    5.26   3
  -6 -15  -9    9.56    5.78   3
  -7 -15  -9   14.22    6.15   3
  -8 -15  -9   -2.37    4.02   3
  -9 -15  -9    1.19    5.08   3
 -10 -15  -9   12.34    6.21   3
   0 -16  -9   12.80    4.99   3
  -1 -16  -9    3.90    4.54   3
  -2 -16  -9   57.44    9.46   3
  -3 -16  -9   43.59    8.84   3
  -4 -16  -9   22.51    6.93   3
  -5 -16  -9   -3.04    4.17   3
  -6 -16  -9    9.35    5.87   3
  -7 -16  -9   -5.36    4.45   3
  -8 -16  -9   -3.71    4.48   3
  -9 -16  -9   -2.27    5.04   3
  -1 -17  -9   17.57    6.43   3
  -2 -17  -9    8.36    5.14   3
  -3 -17  -9    1.51    3.71   3
  -4 -17  -9    2.99    3.22   3
  -5 -17  -9    2.31    2.90   3
  -6 -17  -9    0.57    3.24   3
  -7 -17  -9   -5.70    5.29   3
  -8 -17  -9   31.83    8.31   3
  -4 -18  -9    2.75    3.53   3
  -5 -18  -9   -2.28    3.00   3
  -4 -16  10   -2.91    3.33   2
  -3 -16  10   19.12    6.11   2
  -2 -16  10    0.17    4.24   2
  -1 -16  10   14.78    5.73   2
  -6 -15  10   33.39    7.90   2
  -5 -15  10   61.45    9.92   2
  -4 -15  10   19.04    6.37   2
  -3 -15  10    5.61    4.34   2
  -2 -15  10   29.41    7.48   2
  -1 -15  10   11.51    5.36   2
   0 -15  10    6.94    3.55   2
   1 -15  10   -1.72    2.60   2
   2 -15  10   -4.01    2.78   2
  -7 -14  10    4.65    4.42   2
  -6 -14  10    2.68    4.79   2
  -5 -14  10   11.08    5.25   2
  -4 -14  10   41.85    8.24   2
  -3 -14  10   50.81    8.69   2
  -2 -14  10    5.78    4.27   2
  -1 -14  10    0.11    3.51   2
   0 -14  10    9.51    4.50   2
   1 -14  10    1.45    3.62   2
   2 -14  10    1.62    3.00   2
   3 -14  10    1.00    3.21   2
  -8 -13  10    0.33    4.50   2
  -7 -13  10    6.93    5.59   2
  -6 -13  10   81.95   10.31   2
  -5 -13  10    2.63    3.82   2
  -4 -13  10   -6.66    3.19   2
  -3 -13  10   -0.41    3.47   2
  -2 -13  10   10.20    4.38   2
  -1 -13  10    7.84    4.53   2
   0 -13  10   15.79    5.72   2
   1 -13  10    8.31    4.29   2
   2 -13  10    9.61    4.93   2
   3 -13  10   -4.53    3.13   2
   4 -13  10    0.63    2.89   2
  -8 -12  10   56.57    9.90   2
  -7 -12  10   17.58    6.11   2
  -6 -12  10    3.30    4.43   2
  -5 -12  10    3.04    3.64   2
  -4 -12  10   15.57    5.18   2
  -3 -12  10    2.90    3.92   2
  -2 -12  10   22.96    6.02   2
  -1 -12  10    2.21    3.41   2
   0 -12  10    9.16    4.39   2
   1 -12  10   10.37    4.49   2
   2 -12  10    6.32    4.10   2
   3 -12  10    2.54    3.39   2
   4 -12  10    5.25    3.79   2
   5 -12  10    0.48    2.37   2
  -9 -11  10    4.27    5.29   2
  -8 -11  10    4.53    4.96   2
  -7 -11  10   26.61    7.03   2
  -6 -11  10   26.30    6.59   2
  -5 -11  10   20.69    5.69   2
  -4 -11  10   14.72    5.09   2
  -3 -11  10   -1.59    3.33   2
  -2 -11  10   53.58    7.89   2
  -1 -11  10   26.66    6.23   2
   0 -11  10   11.51    4.66   2
   1 -11  10    8.72    4.10   2
   2 -11  10    1.21    2.97   2
   3 -11  10   15.08    5.00   2
   4 -11  10    8.79    4.21   2
   5 -11  10    6.96    4.25   2
   6 -11  10    4.87    2.90   2
  -9 -10  10    0.45    4.31   2
  -8 -10  10    1.34    3.62   2
  -7 -10  10   12.97    4.87   2
  -6 -10  10   -1.17    3.49   2
  -5 -10  10   11.72    4.69   2
  -4 -10  10   26.03    5.99   2
  -3 -10  10   89.74    9.26   2
  -2 -10  10   51.46    7.47   2
  -1 -10  10   36.71    6.77   2
   0 -10  10    5.71    3.75   2
   1 -10  10   14.68    4.93   2
   2 -10  10    6.14    3.75   2
   3 -10  10   -3.85    2.75   2
   4 -10  10    5.79    3.38   2
   5 -10  10    9.09    4.51   2
  -6  10 -10    4.21    2.92   4
  -6  10 -10    4.32    3.17   1
   6 -10  10    2.26    3.05   2
  -7  10 -10   -0.25    3.32   1
  -7  10 -10    0.19    3.01   4
   7 -10  10    0.04    2.97   2
  -9  -9  10   -2.87    2.26   2
  -8  -9  10    0.70    3.82   2
  -7  -9  10    6.67    4.29   2
  -6  -9  10   15.65    5.06   2
  -5  -9  10   45.03    7.55   2
  -4  -9  10   13.58    4.64   2
  -3  -9  10    2.24    2.95   2
  -2  -9  10   28.15    5.86   2
  -1  -9  10   19.21    5.10   2
   0  -9  10   11.76    4.43   2
   1  -9  10    7.97    3.87   2
   2  -9  10    7.96    3.65   2
   3  -9  10   11.63    4.36   2
   4  -9  10   -0.24    2.10   1
   4  -9  10    5.79    3.34   2
   5  -9  10   -1.95    2.50   2
   5  -9  10    6.14    3.03   1
   6  -9  10    8.48    4.36   2
   7  -9  10   22.53    5.88   2
  -7   9 -10   23.41    5.44   1
  -7   9 -10   20.21    4.78   4
   8  -9  10   35.32    8.63   2
  -8   9 -10   36.60    6.15   4
  -8   9 -10   44.28    7.38   1
  -9  -8  10   -2.56    2.55   2
  -8  -8  10   15.92    5.25   2
  -7  -8  10   12.60    4.99   2
  -6  -8  10    9.43    4.36   2
  -5  -8  10    3.27    3.47   2
  -4  -8  10   23.89    5.72   2
  -3  -8  10   49.96    6.90   2
  -2  -8  10    0.09    2.79   2
  -1  -8  10   11.68    4.36   2
   0  -8  10   14.68    4.55   2
   1  -8  10   66.46    7.95   2
   2  -8  10   -0.14    3.03   2
   3  -8  10    0.62    3.07   2
   3  -8  10    0.86    2.01   1
   4  -8  10    9.84    3.28   1
   4  -8  10   12.04    4.72   2
   5  -8  10   19.61    5.29   2
   5  -8  10   28.33    5.32   1
   6  -8  10    7.69    4.09   2
   6  -8  10    8.21    3.44   1
   7  -8  10    1.17    3.11   2
   8  -8  10   42.96    8.67   2
  -8   8 -10   26.16    5.42   4
  -8   8 -10   69.42    8.57   1
 -10  -7  10   -1.00    3.00   2
  -9  -7  10    1.01    3.77   2
  -8  -7  10   -5.42    2.99   2
  -7  -7  10   23.78    6.20   2
  -6  -7  10    8.14    3.91   2
  -5  -7  10    3.10    2.94   2
  -4  -7  10   -1.71    2.72   2
  -3  -7  10   12.42    4.31   2
  -2  -7  10    5.82    3.44   2
  -1  -7  10   13.07    4.33   2
   0  -7  10   11.94    4.06   2
   1  -7  10   36.16    4.26   1
   1  -7  10   43.85    6.62   2
   2  -7  10   44.59    4.91   1
   2  -7  10   47.07    6.50   2
   3  -7  10   59.73    7.55   2
   3  -7  10   63.78    6.07   1
   4  -7  10    0.76    2.14   1
   4  -7  10   -1.79    2.54   2
   5  -7  10    7.27    3.58   2
   5  -7  10    3.79    2.71   1
   6  -7  10   12.40    4.24   2
   6  -7  10   10.67    3.62   1
   7  -7  10   13.51    4.18   1
   7  -7  10   29.55    6.89   2
   8  -7  10   11.93    4.58   2
   9  -7  10    1.59    3.37   2
  -9   7 -10   -2.04    2.90   1
  -9   7 -10   -4.01    2.26   4
 -10  -6  10   -0.48    2.87   2
  -9  -6  10   -4.22    3.17   2
  -8  -6  10    5.48    4.02   2
  -7  -6  10   13.71    4.95   2
  -6  -6  10   11.57    4.57   2
  -5  -6  10   22.06    5.25   2
  -4  -6  10   25.08    5.21   2
  -3  -6  10    7.97    4.02   2
  -2  -6  10    3.52    3.09   2
  -1  -6  10    0.88    3.02   2
   0  -6  10   90.61    7.93   2
   0  -6  10  100.08    5.93   1
   1  -6  10   38.82    4.23   1
   1  -6  10   41.01    6.05   2
   2  -6  10    6.11    2.10   1
   2  -6  10    8.99    3.68   2
   3  -6  10   11.62    3.13   1
   3  -6  10   10.28    3.52   2
   4  -6  10   24.62    4.52   1
   4  -6  10   23.38    5.05   2
   5  -6  10    1.55    2.27   1
   5  -6  10   -1.91    2.14   2
   6  -6  10    2.47    2.43   1
   6  -6  10    4.54    3.30   2
   7  -6  10   23.34    5.66   2
   7  -6  10   21.12    5.05   1
   8  -6  10   36.31    6.67   1
   8  -6  10   18.78    5.19   2
   9  -6  10   14.95    5.14   2
 -10  -5  10   -1.82    2.81   2
  -9  -5  10   12.06    5.32   2
  -8  -5  10    4.03    3.81   2
  -7  -5  10   31.46    6.68   2
  -6  -5  10    5.36    3.48   2
  -5  -5  10   63.18    7.71   2
  -4  -5  10    5.86    3.18   2
  -3  -5  10   88.06    7.63   2
  -2  -5  10  133.68    6.72   1
  -2  -5  10  134.38    9.22   2
  -1  -5  10   47.33    5.93   2
  -1  -5  10   47.24    3.97   1
   0  -5  10    5.37    2.01   1
   0  -5  10   11.69    3.88   2
   1  -5  10    0.91    1.41   1
   1  -5  10    5.22    3.29   2
   2  -5  10   30.40    4.08   1
   2  -5  10   23.11    4.92   2
   3  -5  10   12.10    3.74   2
   3  -5  10    1.40    1.91   1
   4  -5  10    3.55    2.72   2
   4  -5  10   -0.18    1.57   1
   5  -5  10    3.82    2.48   1
   5  -5  10    4.89    2.93   2
   6  -5  10   25.67    5.43   2
   6  -5  10   28.02    5.33   1
   7  -5  10   17.80    5.17   2
   7  -5  10   17.19    4.43   1
   8  -5  10    0.14    2.54   2
   8  -5  10   -1.00    2.34   1
   9  -5  10   -0.92    3.37   2
   9  -5  10    2.02    2.91   1
 -10   5 -10    2.52    2.21   4
 -10   5 -10   -0.62    2.65   1
 -10  -4  10    2.88    3.05   2
  -9  -4  10   20.10    6.23   2
  -8  -4  10   66.98    9.09   2
  -7  -4  10    5.14    3.66   2
  -6  -4  10   28.24    5.94   2
  -5  -4  10   75.00    7.88   2
  -4  -4  10  116.64    7.02   1
  -4  -4  10  118.56    9.20   2
  -3  -4  10   17.98    4.38   2
  -3  -4  10   13.35    2.88   1
  -2  -4  10    6.01    3.33   2
  -2  -4  10    9.66    2.51   1
  -1  -4  10  169.90    7.88   1
  -1  -4  10  174.64   10.01   2
   0  -4  10   20.07    4.46   2
   0  -4  10   20.90    3.19   1
   1  -4  10    4.22    3.01   2
   1  -4  10   10.52    2.54   1
   2  -4  10   12.56    2.78   1
   2  -4  10   13.92    3.97   2
   3  -4  10   19.97    3.75   1
   3  -4  10   20.98    4.42   2
   4  -4  10   32.37    4.87   1
   4  -4  10   30.33    5.26   2
   5  -4  10    4.98    2.49   1
   5  -4  10    8.53    3.42   2
   6  -4  10   20.13    4.70   1
   6  -4  10   14.29    4.23   2
   7  -4  10    8.56    3.64   1
   7  -4  10   13.74    4.22   2
   8  -4  10   46.32    7.40   1
   8  -4  10   35.40    6.98   2
   9  -4  10   75.31    9.49   1
  10  -4  10   15.08    5.08   1
 -10  -3  10    0.43    2.75   2
  -9  -3  10   15.12    5.52   2
  -8  -3  10   -3.02    2.76   2
  -7  -3  10   56.59    8.14   2
  -6  -3  10    5.67    3.71   2
  -5  -3  10    1.97    2.88   2
  -5  -3  10    3.61    2.26   1
  -4  -3  10    3.93    2.26   1
  -4  -3  10    2.22    2.78   2
  -3  -3  10    1.84    2.91   2
  -3  -3  10    9.38    2.71   1
  -2  -3  10  189.59    8.77   1
  -2  -3  10  189.22   10.40   2
  -1  -3  10   80.15    5.33   1
  -1  -3  10   79.00    6.64   2
   0  -3  10    6.33    2.13   1
   0  -3  10    2.81    2.77   2
   1  -3  10   17.51    3.88   2
   1  -3  10   14.28    2.93   1
   2  -3  10   16.59    3.90   2
   2  -3  10   16.87    3.23   1
   3  -3  10   47.06    5.52   2
   3  -3  10   43.72    4.91   1
   4  -3  10   16.97    3.56   1
   4  -3  10   20.32    4.23   2
   5  -3  10  104.12    7.80   1
   5  -3  10  104.77    8.24   2
   6  -3  10   25.28    4.78   1
   6  -3  10   23.09    4.71   2
   7  -3  10   62.97    7.72   2
   7  -3  10   59.51    7.50   1
   8  -3  10   11.68    4.03   2
   8  -3  10    4.58    3.39   1
   9  -3  10   23.01    5.55   1
  10  -3  10   42.92    7.63   1
 -10  -2  10   -2.89    2.62   2
  -9  -2  10   37.12    7.68   2
  -8  -2  10   26.81    6.51   2
  -7  -2  10   12.24    3.71   1
  -7  -2  10    8.03    4.24   2
  -6  -2  10   22.63    4.15   1
  -6  -2  10   15.61    4.57   2
  -5  -2  10   39.21    6.03   2
  -5  -2  10   40.56    4.95   1
  -4  -2  10   71.31    5.77   1
  -4  -2  10   71.80    7.20   2
  -3  -2  10   40.35    4.66   1
  -3  -2  10   45.49    5.66   2
  -2  -2  10   12.08    2.85   1
  -2  -2  10    3.29    2.88   2
  -1  -2  10   64.30    4.94   1
  -1  -2  10   57.40    5.70   2
   1  -2  10  362.29   13.38   1
   2  -2  10   86.73    6.01   1
   2  -2  10   92.55    6.70   2
   3  -2  10   21.53    4.01   2
   3  -2  10   19.64    3.62   1
   4  -2  10   44.17    5.25   2
   4  -2  10   38.03    4.91   1
   5  -2  10   50.85    5.84   1
   5  -2  10   13.90    3.31   2
   6  -2  10   -0.66    1.76   1
   6  -2  10   -1.77    1.66   2
   7  -2  10   16.03    4.13   2
   7  -2  10   24.42    4.92   1
   8  -2  10   23.11    5.33   1
   8  -2  10   29.22    5.84   2
   9  -2  10    8.54    3.87   1
  10  -2  10   15.72    5.12   1
  11  -2  10    0.09    2.55   1
 -10  -1  10    1.42    2.92   2
  -9  -1  10    4.15    3.90   2
  -8  -1  10    5.35    3.21   1
  -8  -1  10   -0.89    2.81   2
  -7  -1  10   25.52    4.91   1
  -7  -1  10   35.44    6.52   2
  -6  -1  10   10.56    3.96   2
  -6  -1  10   13.35    3.56   1
  -5  -1  10    5.06    3.07   2
  -5  -1  10    8.24    3.06   1
  -4  -1  10   11.90    3.21   1
  -4  -1  10   -0.06    2.47   2
  -3  -1  10  112.00    8.09   2
  -3  -1  10  110.88    7.14   1
  -2  -1  10  244.41   11.77   2
  -2  -1  10  266.00   11.13   1
  -1  -1  10   38.83    4.38   1
   0  -1  10   34.59    4.24   2
   0  -1  10   25.96    3.72   1
   1  -1  10   40.50    4.31   1
   1  -1  10   39.88    4.41   2
   2  -1  10  312.64   12.45   2
   2  -1  10  300.81   12.16   1
   3  -1  10  263.57   11.33   1
   3  -1  10  242.87   11.10   2
   4  -1  10    3.32    2.00   1
   4  -1  10    8.18    2.68   2
   5  -1  10    4.56    2.56   2
   5  -1  10    5.28    2.55   1
   6  -1  10   14.31    3.67   2
   6  -1  10    9.30    3.17   1
   7  -1  10  100.11    8.10   2
   7  -1  10   96.48    8.13   1
   8  -1  10   10.50    4.04   1
   9  -1  10    4.23    3.14   1
  10  -1  10    9.45    3.84   1
  11  -1  10    3.02    2.72   1
  -9   0  10    3.42    3.30   1
  -9   0  10   -0.63    3.35   2
  -8   0  10   -2.33    2.81   2
  -8   0  10    8.61    3.61   1
  -7   0  10   53.64    6.52   1
  -7   0  10   72.84    8.45   2
  -6   0  10   16.88    4.08   1
  -6   0  10   19.32    4.82   2
  -5   0  10    9.22    3.16   1
  -5   0  10    4.38    3.11   2
  -4   0  10   35.23    4.88   1
  -4   0  10   31.46    5.15   2
  -3   0  10   70.02    5.80   1
  -3   0  10   72.77    6.38   2
  -2   0  10   16.50    3.51   2
  -2   0  10   36.21    4.46   1
  -1   0  10   89.58    6.12   1
  -1   0  10   84.82    6.17   2
   0   0  10  139.03    7.69   1
   0   0  10  149.09    7.97   2
   1   0  10   38.20    4.04   2
   1   0  10   45.26    4.69   1
   2   0  10   56.98    4.76   2
   2   0  10   53.66    5.07   1
   3   0  10   38.74    4.09   2
   3   0  10   48.99    5.05   1
   4   0  10   29.77    4.54   1
   4   0  10   28.94    3.87   2
   5   0  10    9.32    3.06   1
   5   0  10    9.72    2.89   2
   6   0  10   11.28    3.42   1
   7   0  10   -2.05    1.84   1
   8   0  10   53.58    7.15   1
   9   0  10   78.88    8.85   1
  10   0  10   44.80    7.53   1
  11   0  10   -1.72    2.66   1
  -9   1  10    3.96    3.57   1
  -9   1  10    6.32    3.65   2
  -8   1  10   26.42    6.03   2
  -8   1  10   24.54    5.39   1
  -7   1  10   49.06    6.38   1
  -7   1  10   40.32    6.71   2
  -6   1  10  136.34    9.95   2
  -6   1  10  127.33    8.94   1
  -5   1  10   33.23    5.10   1
  -5   1  10   39.64    5.69   2
  -4   1  10   -1.84    2.10   1
  -4   1  10    0.41    2.31   2
  -3   1  10   12.74    3.61   2
  -3   1  10   15.32    3.63   1
  -2   1  10   72.40    5.80   1
  -2   1  10   52.92    4.77   2
  -1   1  10   55.29    5.07   2
  -1   1  10   42.97    4.84   1
   0   1  10   35.37    4.37   1
   0   1  10   43.69    4.20   2
   1   1  10   15.06    2.67   2
   1   1  10    9.37    2.77   1
   2   1  10   87.79    6.09   1
   2   1  10   95.34    5.53   2
   3   1  10  106.64    6.85   1
   3   1  10  102.83    5.82   2
   4   1  10  117.02    7.54   1
   5   1  10   94.91    7.05   1
   6   1  10  101.54    7.71   1
   7   1  10   21.96    4.63   1
   8   1  10    3.89    2.70   1
   9   1  10   -0.11    2.25   1
  10   1  10   43.28    7.17   1
  12   1  10   -3.02    2.66   1
  -9   2  10    5.03    3.83   2
  -9   2  10    4.95    3.41   1
  -8   2  10   20.60    5.07   1
  -8   2  10   31.99    6.41   2
  -7   2  10    2.91    3.08   1
  -6   2  10   60.64    7.24   2
  -6   2  10   58.46    6.71   1
  -5   2  10    1.28    1.97   2
  -5   2  10   -0.22    2.40   1
  -4   2  10   29.40    4.88   2
  -4   2  10   29.53    4.76   1
  -3   2  10   25.32    4.38   1
  -3   2  10    9.59    3.02   2
  -2   2  10   10.88    3.11   2
  -2   2  10   14.38    3.54   1
  -1   2  10   25.98    3.67   2
  -1   2  10   23.84    4.14   1
   0   2  10  275.88   10.62   2
   0   2  10  272.21   11.63   1
   1   2  10  335.62   13.27   1
   1   2  10  340.61   11.74   2
   2   2  10   52.86    5.18   1
   3   2  10   78.28    5.99   1
   4   2  10   50.20    5.39   1
  -4  -2 -10   43.00    5.32   3
  -5  -2 -10  169.84    9.24   3
   5   2  10  168.13    9.58   1
   6   2  10   93.40    7.32   1
   7   2  10    0.78    1.87   1
   8   2  10   60.79    7.39   1
   9   2  10   50.44    7.32   1
  10   2  10    2.63    3.13   1
  11   2  10    1.77    3.24   1
  12   2  10    1.71    2.85   1
  -9   3  10    7.20    4.33   1
  -8   3  10    4.30    3.56   1
  -7   3  10   18.99    5.10   1
  -6   3  10   37.76    5.91   1
  -5   3  10   -4.37    1.89   1
  -4   3  10   21.33    4.43   1
  -3   3  10    6.97    3.30   1
  -3   3  10    1.26    1.07   2
  -2   3  10   54.57    5.11   2
  -2   3  10   40.62    5.20   1
  -1   3  10   35.20    4.75   1
  -1   3  10   38.53    4.15   2
   0   3  10    3.00    2.31   1
   0   3  10    4.03    2.03   2
   1   3  10   13.70    3.24   1
   2   3  10  276.34   11.83   1
  -3  -3 -10  134.52    8.98   3
   3   3  10  149.82    8.33   1
  -4  -3 -10  144.41    8.98   3
   4   3  10  149.90    8.55   1
  -5  -3 -10   10.15    3.73   3
   5   3  10    3.48    2.16   1
   6   3  10   59.13    6.29   1
   7   3  10   10.39    3.15   1
   8   3  10    3.18    2.69   1
   9   3  10    2.55    2.67   1
  10   3  10   10.30    4.00   1
  11   3  10   15.51    4.93   1
  12   3  10   12.56    4.11   1
  -8   4  10   31.04    6.07   1
  -7   4  10    7.29    3.85   1
  -6   4  10    6.27    3.59   1
  -5   4  10   30.79    5.55   1
  -4   4  10  188.16   10.73   1
  -3   4  10   50.57    5.93   1
  -2   4  10   35.82    5.07   1
  -2   4  10   33.75    4.13   2
  -1   4  10    8.16    3.00   1
   0   4  10   64.07    6.00   1
   1   4  10  124.37    7.70   1
  -2  -4 -10    6.42    3.58   3
   2   4  10   12.88    3.25   1
   3   4  10    2.17    2.15   1
  -3  -4 -10    2.33    3.14   3
  -4  -4 -10  121.91    8.42   3
   4   4  10  108.83    7.35   1
   5   4  10  120.06    7.93   1
  -5  -4 -10  108.63    8.00   3
   6   4  10   17.51    4.02   1
  -6  -4 -10   11.78    4.01   3
   7   4  10  114.08    8.27   1
   8   4  10   24.24    4.86   1
   9   4  10    7.65    3.34   1
  10   4  10   19.10    4.86   1
  11   4  10   -1.67    2.69   1
  12   4  10    8.89    4.12   1
  -8   5  10    3.47    3.64   1
  -7   5  10   12.73    4.25   1
  -6   5  10    6.12    3.62   1
  -5   5  10   24.47    5.03   1
  -4   5  10   -0.99    2.15   1
  -3   5  10  172.77    9.99   1
  -2   5  10   83.57    6.85   1
  -1   5  10   63.56    6.22   1
   0   5  10   17.91    3.73   1
   1   5  10    2.53    2.04   1
  -2  -5 -10   34.71    5.89   3
   2   5  10   20.20    3.96   1
  -3  -5 -10   11.37    4.22   3
   3   5  10   10.09    2.99   1
  -4  -5 -10  138.44    9.29   3
   4   5  10  141.55    8.49   1
   5   5  10    0.43    1.80   1
  -5  -5 -10   -0.66    3.24   3
   6   5  10   15.77    3.86   1
  -6  -5 -10   17.41    4.29   3
   7   5  10   74.44    7.30   1
  -7  -5 -10   83.55    7.39   3
   8   5  10   15.20    3.86   1
   9   5  10    9.04    3.50   1
  10   5  10    3.60    2.89   1
  11   5  10  102.15   10.48   1
  12   5  10   24.81    6.35   1
  -8   6  10    8.87    4.36   1
  -7   6  10   -0.39    2.91   1
  -6   6  10   -1.79    2.76   1
  -5   6  10    9.58    3.78   1
  -4   6  10   52.43    6.64   1
  -3   6  10   14.49    3.79   1
  -2   6  10    4.19    2.80   1
  -1   6  10    9.67    3.32   1
   0   6  10   19.26    4.07   1
  -1  -6 -10   53.02    7.09   3
   1   6  10   52.17    5.64   1
  -2  -6 -10   39.57    6.30   3
   2   6  10   39.79    5.04   1
   3   6  10   25.55    4.35   1
  -3  -6 -10   25.01    5.56   3
   4   6  10   43.81    5.29   1
  -4  -6 -10   47.83    6.49   3
  -5  -6 -10   46.21    6.54   3
   5   6  10   49.20    5.65   1
  -6  -6 -10  127.50    9.34   3
   6   6  10  135.78    8.69   1
   7   6  10   65.45    6.83   1
  -7  -6 -10   78.57    7.53   3
   8   6  10   48.15    6.45   1
   9   6  10    1.90    2.98   1
  10   6  10    2.77    3.30   1
  11   6  10    5.87    3.62   1
  12   6  10   15.75    4.91   1
  -7   7  10   11.86    5.03   1
  -6   7  10   16.57    4.69   1
  -5   7  10    3.41    3.36   1
  -4   7  10    8.36    3.62   1
  -3   7  10    2.79    2.62   1
  -2   7  10    5.30    2.88   1
  -1   7  10   91.55    7.25   1
   0   7  10    5.26    2.87   1
   1   7  10   22.13    4.17   1
  -1  -7 -10   20.46    5.55   3
   2   7  10   71.44    6.10   1
  -2  -7 -10   58.56    7.58   3
  -3  -7 -10   38.51    6.35   3
   3   7  10   42.62    5.33   1
  -4  -7 -10   -1.23    3.47   3
   4   7  10    3.73    2.23   1
   5   7  10   16.66    3.87   1
  -5  -7 -10   16.52    5.07   3
  -6  -7 -10   11.39    4.67   3
   6   7  10    7.33    2.75   1
   7   7  10   83.99    7.64   1
  -7  -7 -10   73.09    7.81   3
   8   7  10   36.76    5.76   1
  -8  -7 -10   33.04    5.85   3
   9   7  10   13.05    3.92   1
  10   7  10   -0.81    2.22   1
  11   7  10    3.67    2.87   1
  12   7  10    3.96    3.51   1
  -7   8  10    6.53    3.73   1
  -6   8  10    4.29    3.46   1
  -5   8  10   42.75    6.89   1
  -4   8  10   23.43    5.09   1
  -3   8  10   20.23    4.59   1
  -2   8  10   -0.17    2.22   1
  -1   8  10   10.84    3.46   1
   0   8  10   57.99    6.23   1
   1   8  10  206.55   10.81   1
  -1  -8 -10  192.67   12.86   3
   2   8  10   -0.26    1.93   1
  -2  -8 -10    1.75    3.90   3
   3   8  10   60.68    6.15   1
  -3  -8 -10   63.73    7.88   3
  -4  -8 -10    6.08    4.43   3
   4   8  10    2.46    2.01   1
  -5  -8 -10   20.11    5.48   3
   5   8  10   13.08    3.41   1
   6   8  10    1.11    1.79   1
  -6  -8 -10    0.24    3.71   3
  -7  -8 -10   50.40    7.19   3
   7   8  10   41.06    5.81   1
  -8  -8 -10    7.61    4.50   3
   8   8  10   10.45    3.28   1
   9   8  10   12.25    3.81   1
  10   8  10   10.75    3.88   1
  11   8  10    4.28    2.89   1
  -6   9  10    3.00    2.40   1
  -5   9  10    1.19    2.79   1
  -4   9  10    8.74    3.89   1
  -3   9  10   62.47    7.24   1
  -2   9  10   69.68    7.54   1
  -1   9  10   17.04    4.11   1
   0   9  10    3.21    2.50   1
   0  -9 -10    7.21    4.28   3
   1   9  10   34.64    5.17   1
  -1  -9 -10   35.28    6.79   3
  -2  -9 -10  124.49   10.40   3
   2   9  10  126.20    8.20   1
  -3  -9 -10   24.17    6.10   3
   3   9  10   31.67    4.80   1
   4   9  10   14.80    3.69   1
  -4  -9 -10   12.40    4.98   3
   5   9  10   -2.91    1.44   1
  -5  -9 -10    0.18    3.73   3
   6   9  10   25.93    4.56   1
  -6  -9 -10   17.15    5.41   3
  -7  -9 -10   17.32    5.38   3
   7   9  10   13.75    3.66   1
  -8  -9 -10    2.56    4.05   3
   8   9  10   -0.72    2.07   1
   9   9  10   -0.23    2.08   1
  -9  -9 -10    3.45    4.10   3
  10   9  10    4.65    3.16   1
  -5  10  10    3.97    2.58   1
  -4  10  10   30.16    5.90   1
  -3  10  10   25.82    5.22   1
  -2  10  10    3.38    2.96   1
  -1  10  10   23.81    4.82   1
   0 -10 -10   27.09    6.37   3
   0  10  10   24.24    4.63   1
   1  10  10    8.96    2.90   1
  -1 -10 -10    2.46    3.66   3
   2  10  10    4.91    2.38   1
  -2 -10 -10    2.18    3.69   3
  -3 -10 -10    5.02    4.43   3
   3  10  10    0.41    1.91   1
  -4 -10 -10   62.16    8.44   3
   4  10  10   64.32    6.41   1
   5  10  10   53.54    6.04   1
  -5 -10 -10   60.26    8.14   3
  -6 -10 -10    9.34    4.61   3
   6  10  10   16.40    3.89   1
   7  10  10   28.29    4.96   1
  -7 -10 -10   40.68    7.35   3
   8  10  10   43.59    6.12   1
  -8 -10 -10   43.35    7.62   3
   9  10  10   83.37    8.32   1
  -9 -10 -10   69.78    9.06   3
  -5  11  10    0.66    2.26   1
  -4  11  10    6.77    3.53   1
  -3  11  10   16.27    4.64   1
  -2  11  10   96.50    8.99   1
  -1  11  10   42.90    6.15   1
   0  11  10   16.70    4.15   1
   0 -11 -10   21.27    6.04   3
   1  11  10    4.73    2.81   1
  -1 -11 -10    2.04    3.97   3
   2  11  10   15.84    3.59   1
  -2 -11 -10   12.19    4.90   3
   3  11  10   17.41    3.95   1
  -3 -11 -10   22.16    6.10   3
   4  11  10   62.30    6.49   1
  -4 -11 -10   66.99    9.04   3
   5  11  10   23.65    4.18   1
  -5 -11 -10   19.65    6.07   3
   6  11  10  211.84   11.42   1
  -6 -11 -10  216.31   14.24   3
   7  11  10   66.26    7.04   1
  -7 -11 -10   51.80    8.40   3
  -8 -11 -10    7.29    4.75   3
  -9 -11 -10    3.48    4.90   3
 -10 -11 -10   27.55    6.82   3
  -4  12  10    2.28    2.41   1
  -3  12  10   17.86    4.54   1
  -2  12  10    3.05    3.05   1
  -1  12  10   36.25    5.97   1
   0 -12 -10   52.01    8.29   3
   0  12  10   51.67    6.61   1
   1  12  10   19.94    4.40   1
  -1 -12 -10   36.39    7.66   3
  -2 -12 -10   -1.06    3.65   3
   2  12  10   -0.94    2.14   1
   3  12  10   35.17    5.29   1
  -3 -12 -10   46.02    8.23   3
  -4 -12 -10   82.06   10.13   3
   4  12  10   87.08    7.17   1
  -5 -12 -10   23.67    6.63   3
   5  12  10   36.96    5.27   1
   6  12  10   52.32    6.17   1
  -6 -12 -10   35.30    7.83   3
  -7 -12 -10    8.11    5.09   3
  -8 -12 -10   19.38    6.38   3
  -9 -12 -10   21.35    6.86   3
 -10 -12 -10   20.74    6.58   3
  -3  13  10    9.93    4.15   1
  -2  13  10  101.31    9.75   1
  -1  13  10   16.22    4.52   1
   0 -13 -10    8.51    4.60   3
   0  13  10   12.67    3.84   1
   1  13  10    4.25    2.71   1
  -1 -13 -10    1.82    4.00   3
  -2 -13 -10   52.61    8.73   3
   2  13  10   56.01    6.43   1
  -3 -13 -10   14.63    5.57   3
   3  13  10   21.62    4.32   1
  -4 -13 -10    8.97    5.50   3
   4  13  10   11.92    3.48   1
  -5 -13 -10    9.31    5.59   3
  -6 -13 -10   -3.12    4.73   3
  -7 -13 -10   16.41    6.31   3
  -8 -13 -10   33.88    7.67   3
  -9 -13 -10   -5.02    4.13   3
 -10 -13 -10   18.13    6.96   3
 -11 -13 -10   28.30    7.67   3
  -2  14  10   -1.77    2.49   1
  -1  14  10   30.65    5.77   1
   0  14  10   68.52    7.84   1
   0 -14 -10   78.36   10.50   3
   1  14  10   82.51    8.18   1
  -1 -14 -10   85.35   10.80   3
   2  14  10   27.64    5.00   1
  -2 -14 -10   33.83    7.79   3
   3  14  10   11.66    3.49   1
  -3 -14 -10   10.95    5.23   3
  -4 -14 -10    5.90    4.95   3
  -5 -14 -10    5.93    5.49   3
  -6 -14 -10   -0.04    4.67   3
  -7 -14 -10   14.27    6.18   3
  -8 -14 -10   -5.18    4.33   3
  -9 -14 -10   52.07    9.72   3
 -10 -14 -10   68.69   11.02   3
  -1  15  10    3.72    3.23   1
   0  15  10   11.85    4.00   1
   0 -15 -10   20.42    5.93   3
  -1 -15 -10    1.27    4.29   3
   1  15  10    3.09    2.52   1
  -2 -15 -10   25.49    8.20   3
  -3 -15 -10   20.34    6.61   3
  -4 -15 -10   -0.80    4.31   3
  -5 -15 -10    3.21    5.09   3
  -6 -15 -10   36.29    8.39   3
  -7 -15 -10   44.70    9.28   3
  -8 -15 -10    3.52    5.45   3
  -9 -15 -10    7.29    5.71   3
   0 -16 -10   22.88    6.94   3
  -1 -16 -10   38.30    8.35   3
  -2 -16 -10   15.81    6.00   3
  -3 -16 -10    3.34    4.22   3
  -4 -16 -10    0.21    4.24   3
  -5 -16 -10    4.32    4.69   3
  -6 -16 -10    4.23    5.24   3
  -7 -16 -10   15.86    7.22   3
  -8 -16 -10   37.76    9.23   3
  -2 -17 -10    5.56    3.62   3
  -3 -17 -10    3.65    3.79   3
  -4 -17 -10   -0.69    3.06   3
  -5 -17 -10    0.99    3.48   3
  -6 -17 -10   -0.80    3.16   3
  -4 -15  11    4.55    5.15   2
  -3 -15  11    1.86    4.55   2
  -2 -15  11    1.04    2.99   2
  -1 -15  11    3.66    3.29   2
   0 -15  11    1.03    2.64   2
   1 -15  11    0.20    3.20   2
  -6 -14  11   12.91    5.73   2
  -5 -14  11    6.65    5.55   2
  -4 -14  11    1.63    2.71   2
  -3 -14  11   -1.62    3.18   2
  -2 -14  11   -0.85    3.45   2
  -1 -14  11    3.88    3.85   2
   0 -14  11    0.87    3.00   2
   1 -14  11   -1.88    2.08   2
   2 -14  11    5.65    3.54   2
   3 -14  11    3.50    3.56   2
  -7 -13  11    0.60    5.01   2
  -6 -13  11    2.98    4.07   2
  -5 -13  11    1.95    3.87   2
  -4 -13  11    8.90    4.80   2
  -3 -13  11   17.04    5.56   2
  -2 -13  11   22.38    6.15   2
  -1 -13  11    4.72    3.91   2
   0 -13  11   25.63    6.45   2
   1 -13  11    7.65    4.29   2
   2 -13  11    5.28    4.30   2
   3 -13  11   -0.39    2.45   2
   4 -13  11   -0.87    2.99   2
  -7 -12  11   -1.91    2.13   2
  -6 -12  11    0.96    3.77   2
  -5 -12  11   55.73    8.50   2
  -4 -12  11    0.16    3.35   2
  -3 -12  11    3.03    3.80   2
  -2 -12  11   17.74    5.30   2
  -1 -12  11   15.59    5.18   2
   0 -12  11    1.46    3.17   2
   1 -12  11    7.14    4.54   2
   2 -12  11   25.28    6.76   2
   3 -12  11   10.66    4.53   2
   4 -12  11   -1.60    2.72   2
   5 -12  11    0.09    3.21   2
  -8 -11  11   -0.35    2.85   2
  -7 -11  11    1.74    3.60   2
  -6 -11  11    0.35    3.75   2
  -5 -11  11   15.69    5.51   2
  -4 -11  11   23.92    5.94   2
  -3 -11  11   22.15    5.93   2
  -2 -11  11    3.13    3.59   2
  -1 -11  11    4.78    3.97   2
   0 -11  11    3.48    3.81   2
   1 -11  11   15.04    4.88   2
   2 -11  11   12.16    4.71   2
   3 -11  11    6.65    4.38   2
   4 -11  11   12.05    4.86   2
   5 -11  11   12.14    4.96   2
   6 -11  11    3.17    3.79   2
  -8 -10  11   -3.15    2.29   2
  -7 -10  11    5.08    4.37   2
  -6 -10  11   48.74    8.32   2
  -5 -10  11    9.42    4.58   2
  -4 -10  11    0.63    3.10   2
  -3 -10  11    1.89    3.62   2
  -2 -10  11   38.45    7.09   2
  -1 -10  11   -2.25    3.04   2
   0 -10  11    1.27    3.36   2
   1 -10  11    0.09    3.08   2
   2 -10  11    4.84    4.34   2
   3 -10  11   73.17    9.60   2
   4 -10  11   25.79    6.09   2
   5 -10  11    0.40    3.09   2
   6 -10  11    1.89    3.46   2
   7 -10  11   21.03    6.75   2
  -7  10 -11   22.83    4.73   4
  -7  10 -11   22.91    5.22   1
  -9  -9  11   -0.55    2.61   2
  -8  -9  11   -1.88    3.12   2
  -7  -9  11   17.58    5.48   2
  -6  -9  11   -0.05    3.23   2
  -5  -9  11    8.75    4.61   2
  -4  -9  11   60.59    8.09   2
  -3  -9  11   13.99    5.01   2
  -2  -9  11    4.09    3.64   2
  -1  -9  11    3.13    3.33   2
   0  -9  11    5.36    3.65   2
   1  -9  11   52.61    7.62   2
   2  -9  11    1.62    2.93   2
   3  -9  11    0.07    3.68   2
   4  -9  11   32.58    6.75   2
   5  -9  11   21.94    6.25   2
   5  -9  11   37.13    6.16   1
   6  -9  11   20.10    5.04   1
   6  -9  11   16.15    6.47   2
   7  -9  11    4.26    4.15   2
  -7   9 -11   -0.63    2.50   4
  -7   9 -11    2.12    3.74   1
  -9  -8  11    4.03    3.33   2
  -8  -8  11    7.68    4.61   2
  -7  -8  11    0.94    3.65   2
  -6  -8  11    5.10    4.21   2
  -5  -8  11   13.61    4.80   2
  -4  -8  11   36.39    6.72   2
  -3  -8  11   -1.88    2.86   2
  -2  -8  11   95.89    8.69   2
  -1  -8  11   70.73    8.04   2
   0  -8  11   26.03    5.60   2
   1  -8  11    7.13    3.81   2
   2  -8  11   26.18    5.87   2
   3  -8  11   11.50    4.12   2
   4  -8  11    5.33    2.79   1
   4  -8  11    1.42    3.15   2
   5  -8  11    1.94    3.25   2
   5  -8  11    0.36    2.15   1
   6  -8  11   14.10    4.60   2
   6  -8  11    5.95    3.46   1
   7  -8  11   45.73    8.59   2
   7  -8  11   47.33    7.32   1
   8  -8  11   -0.66    3.15   2
  -8   8 -11    5.48    3.96   1
  -8   8 -11   -0.28    2.71   4
  -9  -7  11    0.31    2.77   2
  -8  -7  11    9.30    4.98   2
  -7  -7  11   13.81    5.16   2
  -6  -7  11   -3.09    2.56   2
  -5  -7  11    4.11    3.43   2
  -4  -7  11   43.40    7.02   2
  -3  -7  11  103.57    8.84   2
  -2  -7  11   38.76    6.14   2
  -1  -7  11   28.13    5.63   2
   0  -7  11    6.95    3.98   2
   1  -7  11   36.27    6.38   2
   2  -7  11    0.91    1.98   1
   2  -7  11    1.79    2.82   2
   3  -7  11    0.76    1.92   1
   3  -7  11    0.50    2.99   2
   4  -7  11   10.12    4.14   2
   4  -7  11    6.79    2.80   1
   5  -7  11   11.28    3.89   1
   5  -7  11   13.84    4.57   2
   6  -7  11   21.58    5.06   1
   6  -7  11   19.70    5.46   2
   7  -7  11   11.89    4.10   1
   7  -7  11    2.16    3.42   2
   8  -7  11    1.43    3.10   2
   8  -7  11    5.32    3.70   1
  -9  -6  11    0.68    2.58   2
  -8  -6  11   -2.48    2.76   2
  -7  -6  11   31.42    6.75   2
  -6  -6  11    3.53    3.87   2
  -5  -6  11    2.15    3.17   2
  -4  -6  11    5.39    3.43   2
  -3  -6  11    5.64    3.44   2
  -2  -6  11    1.58    3.15   2
  -1  -6  11   56.83    6.79   2
   0  -6  11    9.94    2.42   1
   0  -6  11   13.45    4.27   2
   1  -6  11    3.39    3.16   2
   1  -6  11    7.87    2.32   1
   2  -6  11   12.66    3.18   1
   2  -6  11   18.94    4.62   2
   3  -6  11   39.12    5.32   1
   3  -6  11   35.65    6.15   2
   4  -6  11   36.35    6.26   2
   4  -6  11   41.61    5.66   1
   5  -6  11   -3.18    1.86   1
   5  -6  11   -0.70    2.36   2
   6  -6  11   27.57    5.41   1
   6  -6  11   30.76    6.35   2
   7  -6  11   10.83    4.10   2
   7  -6  11    4.44    3.45   1
   8  -6  11   29.33    6.49   1
   8  -6  11   43.09    7.90   2
   9  -6  11   12.14    4.54   1
   9  -6  11   10.63    4.71   2
  -9  -5  11   -3.09    2.41   2
  -8  -5  11    2.16    3.61   2
  -7  -5  11   -2.79    3.15   2
  -6  -5  11    2.88    3.48   2
  -5  -5  11    5.25    3.53   2
  -4  -5  11    9.20    3.99   2
  -3  -5  11   11.41    3.99   2
  -2  -5  11    5.05    3.25   2
  -1  -5  11    3.27    1.83   1
  -1  -5  11    8.93    3.66   2
   0  -5  11    8.35    3.67   2
   0  -5  11    8.02    2.39   1
   1  -5  11   62.88    5.18   1
   1  -5  11   49.33    6.45   2
   2  -5  11    8.57    2.48   1
   2  -5  11    7.48    3.40   2
   3  -5  11    5.33    2.28   1
   3  -5  11   -0.53    2.40   2
   4  -5  11    9.88    3.78   2
   4  -5  11   10.88    3.21   1
   5  -5  11   66.38    7.89   2
   5  -5  11   57.37    6.71   1
   6  -5  11    5.31    3.32   2
   6  -5  11    3.15    2.74   1
   7  -5  11   -4.33    2.17   1
   7  -5  11    2.71    2.98   2
   8  -5  11   16.48    5.00   2
   8  -5  11   12.14    4.23   1
   9  -5  11    0.81    3.16   2
   9  -5  11    5.45    3.61   1
  -9  -4  11   -1.41    2.99   2
  -8  -4  11    0.06    3.34   2
  -7  -4  11   42.51    7.51   2
  -6  -4  11    4.78    3.63   2
  -5  -4  11    4.03    3.25   2
  -4  -4  11   16.93    4.67   2
  -3  -4  11   71.18    5.49   1
  -3  -4  11   71.78    7.28   2
  -2  -4  11   95.47    8.16   2
  -2  -4  11  117.91    6.71   1
  -1  -4  11   40.63    5.64   2
  -1  -4  11   45.96    4.47   1
   0  -4  11   13.44    2.85   1
   0  -4  11   14.58    4.23   2
   1  -4  11   25.37    4.79   2
   1  -4  11   22.05    3.60   1
   2  -4  11    2.59    3.03   2
   2  -4  11    8.86    2.62   1
   3  -4  11  132.42    8.04   1
   3  -4  11  124.71    9.01   2
   4  -4  11    7.41    3.21   2
   4  -4  11    3.53    2.10   1
   5  -4  11   19.42    4.28   1
   5  -4  11   20.28    4.76   2
   6  -4  11    6.90    3.23   2
   6  -4  11    1.95    2.51   1
   7  -4  11    3.67    2.77   1
   7  -4  11    2.12    2.94   2
   8  -4  11   13.46    4.17   1
   8  -4  11   19.24    5.27   2
   9  -4  11    6.03    3.37   1
   9  -4  11    4.26    3.71   2
  10  -4  11   -0.85    2.83   1
  -9  -3  11   -0.21    3.73   2
  -8  -3  11   10.73    5.01   2
  -7  -3  11    4.03    4.03   2
  -6  -3  11   -1.45    2.75   2
  -5  -3  11   40.68    6.39   2
  -4  -3  11   41.83    4.98   1
  -4  -3  11   38.77    6.09   2
  -3  -3  11    5.15    2.19   1
  -3  -3  11    2.26    2.95   2
  -2  -3  11   36.86    5.50   2
  -2  -3  11   36.72    4.36   1
  -1  -3  11  133.69    7.36   1
  -1  -3  11  122.31    8.57   2
   0  -3  11  159.13    9.60   2
   0  -3  11  170.61    8.46   1
   1  -3  11   29.77    4.78   2
   1  -3  11   23.34    3.69   1
   2  -3  11    3.54    2.06   1
   2  -3  11   -0.97    1.74   2
   3  -3  11   -0.18    1.44   2
   3  -3  11   13.63    3.22   1
   5  -3  11   12.65    3.76   1
   5  -3  11    7.94    2.86   2
   6  -3  11   20.78    4.50   1
   6  -3  11   22.91    5.04   2
   7  -3  11   -1.34    2.13   2
   7  -3  11    0.70    2.53   1
   8  -3  11    2.65    2.99   1
   9  -3  11   23.27    5.55   1
  10  -3  11   -0.02    3.49   1
  -9  -2  11   10.27    4.35   2
  -8  -2  11    7.90    4.35   2
  -7  -2  11   26.34    6.27   2
  -6  -2  11   54.51    7.51   2
  -6  -2  11   55.30    5.99   1
  -5  -2  11   75.40    6.44   1
  -5  -2  11   77.81    8.05   2
  -4  -2  11   10.78    3.65   2
  -4  -2  11   16.73    3.67   1
  -3  -2  11   42.93    5.92   2
  -3  -2  11   36.22    4.65   1
  -2  -2  11  225.33   10.39   1
  -2  -2  11  225.46   11.53   2
  -1  -2  11   13.27    4.03   2
  -1  -2  11   14.80    3.07   1
   0  -2  11    5.88    2.25   1
   1  -2  11   24.99    4.31   2
   1  -2  11   27.04    4.00   1
   2  -2  11   15.84    3.26   1
   2  -2  11   13.44    3.72   2
   3  -2  11    4.61    2.73   2
   3  -2  11    0.58    1.76   1
   4  -2  11   27.17    4.51   1
   4  -2  11   15.50    3.92   2
   5  -2  11    2.73    2.39   2
   5  -2  11    0.93    2.02   1
   6  -2  11   34.28    5.40   2
   6  -2  11   40.73    6.15   1
   7  -2  11   99.42    8.48   1
   8  -2  11   10.94    4.03   1
   9  -2  11    1.16    2.88   1
  10  -2  11    7.12    3.93   1
  -9  -1  11   24.44    6.15   2
  -8  -1  11  172.32   12.94   2
  -7  -1  11   42.82    6.09   1
  -7  -1  11   44.62    7.53   2
  -6  -1  11    1.31    3.37   2
  -6  -1  11    0.66    2.93   1
  -5  -1  11   23.16    5.20   2
  -5  -1  11   20.66    4.25   1
  -4  -1  11   40.58    5.69   2
  -4  -1  11   25.06    4.43   1
  -3  -1  11    1.79    2.38   1
  -3  -1  11    8.10    3.53   2
  -2  -1  11   -1.63    1.56   1
  -2  -1  11    0.88    2.58   2
   0  -1  11  301.99   12.22   1
   0  -1  11  286.05   12.47   2
   1  -1  11  371.48   14.49   2
   1  -1  11  368.06   14.07   1
   2  -1  11   73.79    5.81   1
   2  -1  11   72.83    6.09   2
   3  -1  11   23.20    4.17   1
   3  -1  11   28.61    4.24   2
   4  -1  11   25.15    4.40   1
   4  -1  11   38.29    4.80   2
   5  -1  11    8.66    3.07   2
   5  -1  11    4.77    2.42   1
   6  -1  11  102.29    8.07   1
   7  -1  11    2.21    2.31   1
   8  -1  11   17.32    4.61   1
   9  -1  11   30.12    6.41   1
  10  -1  11    2.89    3.40   1
  11  -1  11   -3.56    2.57   1
  -9   0  11    5.22    3.75   2
  -8   0  11    2.92    3.66   2
  -8   0  11    6.39    3.56   1
  -7   0  11   21.97    5.65   2
  -7   0  11   24.42    5.06   1
  -6   0  11   81.04    8.55   2
  -6   0  11   88.89    7.80   1
  -5   0  11   12.68    3.98   2
  -5   0  11   15.93    4.08   1
  -4   0  11   12.08    3.94   2
  -4   0  11   10.88    3.53   1
  -3   0  11   26.20    4.64   2
  -3   0  11   13.99    3.65   1
  -1   0  11   29.08    4.24   1
  -1   0  11   34.12    4.55   2
   0   0  11    8.61    2.65   1
   0   0  11    0.72    2.36   2
   1   0  11   35.10    4.54   1
   1   0  11   34.62    4.29   2
   2   0  11  432.10   16.02   1
   2   0  11  427.97   15.31   2
   3   0  11  108.68    6.83   2
   3   0  11   99.49    6.98   1
   4   0  11   61.89    6.29   1
   5   0  11   28.98    4.85   1
   6   0  11  128.01    8.98   1
   7   0  11   97.81    8.36   1
   8   0  11   15.81    4.58   1
   9   0  11   -2.63    2.09   1
  10   0  11   12.57    4.40   1
  11   0  11    3.10    2.40   1
  -9   1  11   11.96    4.24   1
  -9   1  11   13.06    5.60   2
  -8   1  11   14.54    4.56   1
  -8   1  11   21.15    5.89   2
  -7   1  11   33.96    6.00   1
  -7   1  11   30.32    6.20   2
  -6   1  11    8.26    3.90   2
  -6   1  11    2.88    3.10   1
  -5   1  11   -0.98    2.20   2
  -5   1  11    2.93    2.87   1
  -4   1  11   25.06    4.56   1
  -4   1  11   23.91    4.69   2
  -3   1  11   54.81    6.11   2
  -3   1  11   58.76    6.06   1
  -2   1  11   35.69    4.91   1
  -2   1  11   36.53    4.77   2
  -1   1  11   10.65    3.21   2
  -1   1  11   10.39    3.16   1
   0   1  11  158.53    8.40   2
   0   1  11  167.67    9.06   1
   1   1  11  382.34   14.56   1
   1   1  11  364.48   13.28   2
   2   1  11  199.90    9.98   1
   3   1  11    3.94    2.21   1
   4   1  11   45.82    5.51   1
   5   1  11   96.05    7.32   1
   6   1  11    7.68    2.81   1
   7   1  11   57.00    7.01   1
   8   1  11   12.90    3.88   1
   9   1  11   25.38    5.56   1
  10   1  11   34.70    6.74   1
  11   1  11   -1.10    2.29   1
  -8   2  11    0.72    3.22   2
  -8   2  11   -2.26    3.01   1
  -7   2  11   20.88    5.04   2
  -7   2  11   18.52    4.65   1
  -6   2  11   46.35    6.74   2
  -6   2  11   47.92    6.61   1
  -5   2  11   43.97    6.09   2
  -5   2  11   47.89    6.15   1
  -4   2  11  165.58   10.07   1
  -4   2  11  164.56   10.09   2
  -3   2  11   11.30    3.57   1
  -2   2  11   23.89    4.45   1
  -2   2  11   31.37    4.52   2
  -1   2  11    7.73    2.87   1
  -1   2  11    8.17    2.91   2
   0   2  11   13.75    3.38   1
   1   2  11   36.35    4.79   1
   2   2  11  256.71   11.68   1
   3   2  11  158.83    9.07   1
   4   2  11  263.95   12.29   1
   5   2  11   10.94    3.27   1
   6   2  11    7.30    2.99   1
   7   2  11   62.30    7.10   1
   8   2  11   13.37    4.32   1
   9   2  11   11.36    4.01   1
  10   2  11    6.06    3.67   1
  11   2  11    0.59    3.27   1
  -8   3  11   41.89    7.06   1
  -8   3  11   32.42    6.48   2
  -7   3  11   38.38    6.71   2
  -7   3  11   46.48    7.06   1
  -6   3  11   13.88    4.43   1
  -6   3  11   12.30    4.01   2
  -5   3  11    6.73    3.36   1
  -5   3  11    7.65    3.35   2
  -4   3  11   79.25    6.97   2
  -4   3  11   79.43    7.68   1
  -3   3  11  136.24    8.55   2
  -3   3  11  141.14    8.97   1
  -2   3  11    2.47    2.40   2
  -2   3  11    0.70    2.39   1
  -1   3  11    4.95    2.80   1
   0   3  11   28.33    4.41   1
   1   3  11   16.34    3.60   1
   2   3  11   25.88    4.31   1
   3   3  11    3.33    2.40   1
   4   3  11   53.92    5.81   1
  -4  -3 -11   64.51    6.86   3
  -5  -3 -11  139.37    9.09   3
   5   3  11  144.87    9.04   1
   6   3  11   51.97    6.21   1
   7   3  11   58.11    6.83   1
   8   3  11  105.06    8.69   1
   9   3  11  111.45    9.41   1
  10   3  11   35.82    6.90   1
  11   3  11    5.72    3.57   1
  12   3  11   -2.94    2.77   1
  -8   4  11   -5.09    2.89   1
  -7   4  11   11.90    4.62   1
  -6   4  11   19.17    4.73   1
  -5   4  11   41.38    6.26   1
  -4   4  11    1.49    2.00   2
  -4   4  11    1.84    2.63   1
  -3   4  11    5.08    2.58   2
  -3   4  11    0.62    2.45   1
  -2   4  11   23.01    4.58   1
  -1   4  11   82.10    6.80   1
   0   4  11    1.01    2.16   1
   1   4  11   -2.37    1.57   1
   2   4  11   19.49    3.98   1
  -3  -4 -11  104.63    8.49   3
   3   4  11   95.28    7.07   1
   4   4  11   46.10    5.66   1
  -4  -4 -11   53.87    6.49   3
   5   4  11   22.90    4.23   1
  -5  -4 -11   24.89    5.08   3
   6   4  11    2.81    2.32   1
  -6  -4 -11    0.77    3.22   3
   7   4  11    4.69    2.60   1
   8   4  11    5.73    3.05   1
   9   4  11   -2.04    2.24   1
  10   4  11   61.27    8.43   1
  11   4  11   30.34    6.55   1
  12   4  11    9.88    4.62   1
  -8   5  11   21.15    5.58   1
  -7   5  11   27.12    5.98   1
  -6   5  11   11.37    4.22   1
  -5   5  11    1.29    2.68   1
  -4   5  11   24.74    5.00   1
  -3   5  11   18.90    4.53   1
  -2   5  11    0.60    2.35   1
  -1   5  11    3.67    2.62   1
   0   5  11   12.08    3.50   1
   1   5  11   75.87    6.40   1
  -2  -5 -11   -0.14    3.50   3
   2   5  11    0.67    1.84   1
  -3  -5 -11   65.25    7.51   3
   3   5  11   58.47    6.13   1
  -4  -5 -11   20.77    5.19   3
   4   5  11   20.96    4.08   1
  -5  -5 -11   46.35    6.32   3
   5   5  11   39.94    5.46   1
   6   5  11   84.69    7.22   1
  -6  -5 -11   87.72    7.63   3
   7   5  11   46.34    6.25   1
   8   5  11    0.16    2.28   1
   9   5  11    5.07    3.11   1
  10   5  11    2.24    2.58   1
  11   5  11   -0.08    3.05   1
  12   5  11    4.83    3.74   1
  -7   6  11   11.26    4.76   1
  -6   6  11   26.05    5.75   1
  -5   6  11   38.91    6.44   1
  -4   6  11    6.38    3.39   1
  -3   6  11   10.17    3.89   1
  -2   6  11   54.85    6.44   1
  -1   6  11   34.58    5.22   1
   0   6  11    0.09    2.10   1
   1   6  11    2.14    2.20   1
   2   6  11   90.80    7.00   1
  -2  -6 -11   95.58    8.79   3
  -3  -6 -11    9.08    4.34   3
   3   6  11   10.04    3.19   1
   4   6  11   20.39    4.15   1
  -4  -6 -11   24.79    5.72   3
  -5  -6 -11   19.98    5.24   3
   5   6  11   19.16    4.03   1
   6   6  11   20.03    4.31   1
  -6  -6 -11   18.61    5.02   3
  -7  -6 -11   60.02    6.90   3
   7   6  11   41.37    5.92   1
   8   6  11    0.91    2.38   1
   9   6  11    5.81    3.16   1
  10   6  11    2.71    2.99   1
  11   6  11   10.74    4.17   1
  12   6  11   76.66    9.78   1
  -7   7  11    9.58    4.48   1
  -6   7  11    3.59    3.60   1
  -5   7  11   11.29    4.17   1
  -4   7  11   23.16    5.37   1
  -3   7  11   30.04    5.79   1
  -2   7  11   32.47    5.54   1
  -1   7  11   42.44    5.80   1
   0   7  11    2.23    2.57   1
  -1  -7 -11   19.05    5.65   3
   1   7  11   14.36    3.66   1
  -2  -7 -11   13.48    5.14   3
   2   7  11   16.45    3.87   1
  -3  -7 -11   -2.39    3.55   3
   3   7  11    0.74    2.08   1
   4   7  11   17.05    3.98   1
  -4  -7 -11   21.21    5.37   3
  -5  -7 -11    1.76    3.64   3
   5   7  11    3.20    2.07   1
  -6  -7 -11    4.62    3.77   3
   6   7  11   -0.50    1.89   1
  -7  -7 -11    9.68    4.56   3
   7   7  11   10.29    3.54   1
   8   7  11   20.93    4.84   1
   9   7  11   19.91    4.42   1
  10   7  11   10.77    4.04   1
  11   7  11    2.42    3.20   1
  12   7  11    4.45    3.36   1
  -6   8  11   11.56    4.60   1
  -5   8  11   -0.35    3.23   1
  -4   8  11   -3.28    1.96   1
  -3   8  11    3.64    2.97   1
  -2   8  11   19.13    4.44   1
  -1   8  11    0.22    2.25   1
   0   8  11   14.91    3.77   1
   1   8  11    5.62    2.71   1
  -1  -8 -11    6.92    4.23   3
  -2  -8 -11    2.51    4.00   3
   2   8  11    4.51    2.61   1
  -3  -8 -11    1.92    3.86   3
   3   8  11   -0.47    1.94   1
  -4  -8 -11   27.74    6.27   3
   4   8  11   27.59    4.84   1
   5   8  11    9.92    3.26   1
  -5  -8 -11    5.46    4.24   3
  -6  -8 -11   47.32    7.23   3
   6   8  11   45.34    6.03   1
   7   8  11   89.26    7.70   1
  -7  -8 -11  106.17    9.29   3
  -8  -8 -11    7.31    4.51   3
   8   8  11    6.28    3.16   1
   9   8  11    1.88    2.40   1
  10   8  11    1.87    2.89   1
  11   8  11    6.87    3.72   1
  12   8  11    0.25    3.40   1
  -5   9  11    1.12    2.29   1
  -4   9  11   34.01    6.29   1
  -3   9  11   22.54    5.03   1
  -2   9  11    4.16    2.66   1
  -1   9  11    6.11    3.12   1
   0   9  11    5.37    2.85   1
   1   9  11   15.81    3.89   1
  -1  -9 -11   22.53    5.85   3
   2   9  11   -1.01    1.82   1
  -2  -9 -11    1.22    3.79   3
   3   9  11   63.49    6.63   1
  -3  -9 -11   68.40    8.67   3
   4   9  11  217.12   11.51   1
  -4  -9 -11  202.69   13.26   3
   5   9  11   55.57    6.40   1
  -5  -9 -11   53.14    7.81   3
   6   9  11   44.72    5.99   1
  -6  -9 -11   46.25    7.40   3
  -7  -9 -11   -0.84    3.73   3
   7   9  11    5.32    2.88   1
  -8  -9 -11   33.06    6.85   3
   8   9  11   29.09    5.32   1
   9   9  11    7.63    3.26   1
  10   9  11   16.83    4.67   1
  11   9  11    2.85    3.17   1
  -5  10  11   -0.90    2.24   1
  -4  10  11    2.73    2.88   1
  -3  10  11   28.13    5.83   1
  -2  10  11   24.76    5.36   1
  -1  10  11    8.18    3.40   1
   0  10  11   -2.67    2.11   1
  -1 -10 -11    8.45    4.69   3
   1  10  11    6.34    3.01   1
   2  10  11   25.02    4.66   1
  -2 -10 -11   29.47    6.81   3
  -3 -10 -11   12.95    5.24   3
   3  10  11    8.65    3.19   1
  -4 -10 -11    7.85    4.85   3
   4  10  11    6.08    2.71   1
   5  10  11   46.94    6.02   1
  -5 -10 -11   50.32    8.17   3
   6  10  11   42.62    5.95   1
  -6 -10 -11   48.87    7.94   3
  -7 -10 -11   40.65    7.47   3
   7  10  11   36.68    5.89   1
   8  10  11    9.99    3.63   1
  -8 -10 -11    5.73    4.74   3
  -9 -10 -11   13.76    5.37   3
   9  10  11   11.82    3.98   1
  -4  11  11    0.76    1.93   1
  -3  11  11   14.84    4.48   1
  -2  11  11    2.77    3.03   1
  -1  11  11    7.96    3.38   1
   0  11  11   39.66    6.12   1
   1  11  11   11.13    3.80   1
  -1 -11 -11    3.68    4.18   3
  -2 -11 -11   -2.09    3.73   3
   2  11  11    0.76    2.00   1
   3  11  11   45.96    6.01   1
  -3 -11 -11   52.17    8.40   3
  -4 -11 -11   23.53    6.69   3
   4  11  11   18.94    4.26   1
   5  11  11    7.46    3.06   1
  -5 -11 -11    6.24    5.00   3
  -6 -11 -11    4.80    4.66   3
   6  11  11    0.68    2.20   1
  -7 -11 -11    8.40    5.24   3
   7  11  11   13.59    4.02   1
   8  11  11    1.05    2.41   1
  -8 -11 -11    3.45    4.61   3
  -9 -11 -11   17.78    6.09   3
 -10 -11 -11   14.62    5.61   3
  -4  12  11   -0.54    2.23   1
  -3  12  11    4.21    3.15   1
  -2  12  11   59.23    7.77   1
  -1  12  11   20.68    4.88   1
   0  12  11    2.91    2.59   1
   1  12  11    7.67    3.26   1
  -1 -12 -11   13.56    5.40   3
  -2 -12 -11   43.24    8.23   3
   2  12  11   46.69    6.20   1
  -3 -12 -11   -2.46    4.00   3
   3  12  11    2.16    2.20   1
   4  12  11    1.46    2.39   1
  -4 -12 -11    1.60    4.43   3
   5  12  11    4.09    2.69   1
  -5 -12 -11    3.38    4.85   3
  -6 -12 -11   85.66   10.43   3
   6  12  11   66.11    7.34   1
  -7 -12 -11   60.89    9.40   3
   7  12  11   74.97    7.83   1
  -8 -12 -11   79.11   10.28   3
  -9 -12 -11   -2.96    3.88   3
 -10 -12 -11    3.05    4.93   3
  -3  13  11    4.98    3.24   1
  -2  13  11    5.32    3.29   1
  -1  13  11   14.49    4.37   1
   0  13  11   45.15    6.62   1
  -1 -13 -11   25.70    6.87   3
   1  13  11   23.39    4.92   1
  -2 -13 -11    1.32    3.80   3
   2  13  11    2.37    2.50   1
  -3 -13 -11   14.23    5.59   3
   3  13  11   14.00    3.84   1
   4  13  11   18.24    4.39   1
  -4 -13 -11   10.44    5.69   3
   5  13  11   45.89    6.25   1
  -5 -13 -11   40.54    8.67   3
  -6 -13 -11   13.41    5.88   3
  -7 -13 -11   17.51    6.38   3
  -8 -13 -11  129.17   13.08   3
  -9 -13 -11   77.55   10.82   3
 -10 -13 -11   11.50    6.08   3
  -2  14  11    4.78    4.24   1
  -1  14  11   36.47    6.48   1
   0  14  11    7.89    3.59   1
  -1 -14 -11    3.12    5.69   3
   1  14  11    1.27    2.66   1
  -2 -14 -11   21.94    6.63   3
   2  14  11   17.77    4.25   1
  -3 -14 -11   31.95    7.46   3
   3  14  11   21.77    4.64   1
  -4 -14 -11    1.43    4.73   3
  -5 -14 -11   14.87    6.91   3
  -6 -14 -11   82.88   11.20   3
  -7 -14 -11   43.41    8.80   3
  -8 -14 -11   18.82    6.92   3
  -9 -14 -11    4.95    5.39   3
 -10 -14 -11   -5.39    5.13   3
   0  15  11   38.97    6.77   1
   1  15  11   46.51    6.95   1
  -2 -15 -11    1.00    4.42   3
  -3 -15 -11    2.92    4.59   3
  -4 -15 -11   13.27    6.13   3
  -5 -15 -11   37.18    8.65   3
  -6 -15 -11    5.33    5.58   3
  -7 -15 -11    2.01    5.33   3
  -8 -15 -11   15.30    7.10   3
  -9 -15 -11   10.38    6.81   3
  -1 -16 -11    1.37    3.45   3
  -2 -16 -11    3.64    3.35   3
  -3 -16 -11    0.03    2.87   3
  -4 -16 -11   -0.13    3.11   3
  -5 -16 -11   -2.54    2.54   3
  -6 -16 -11    7.18    6.12   3
  -7 -16 -11   19.85    7.54   3
  -5 -14  12    2.11    3.05   2
  -4 -14  12   -1.06    2.72   2
  -3 -14  12    2.11    2.69   2
  -2 -14  12   -1.23    2.16   2
  -1 -14  12   -2.92    2.33   2
   0 -14  12    2.20    3.02   2
   1 -14  12   -4.04    2.48   2
  -6 -13  12    0.07    2.57   2
  -5 -13  12    1.86    2.74   2
  -4 -13  12   -2.69    2.24   2
  -3 -13  12    0.50    3.29   2
  -2 -13  12   13.30    5.35   2
  -1 -13  12    7.31    4.37   2
   0 -13  12    2.50    3.52   2
   1 -13  12    2.51    3.46   2
   2 -13  12    3.10    2.95   2
   3 -13  12    1.25    3.17   2
  -7 -12  12    1.81    2.99   2
  -6 -12  12    0.26    2.68   2
  -5 -12  12   -3.11    3.40   2
  -4 -12  12   23.46    6.52   2
  -3 -12  12    2.21    4.32   2
  -2 -12  12    2.62    3.52   2
  -1 -12  12    4.78    3.96   2
   0 -12  12   33.42    7.05   2
   1 -12  12   15.46    6.42   2
   2 -12  12   21.23    6.05   2
   3 -12  12    6.70    4.23   2
   4 -12  12    0.19    2.91   2
  -7 -11  12    2.10    2.73   2
  -6 -11  12   -1.88    3.63   2
  -5 -11  12   -3.60    2.96   2
  -4 -11  12    0.73    3.28   2
  -3 -11  12   11.73    4.76   2
  -2 -11  12   24.35    6.26   2
  -1 -11  12   44.50    7.90   2
   0 -11  12    4.79    4.02   2
   1 -11  12    4.07    3.50   2
   2 -11  12   59.35    9.13   2
   3 -11  12   34.54    7.59   2
   4 -11  12    1.47    3.76   2
   5 -11  12    8.77    4.30   2
  -8 -10  12    0.96    2.67   2
  -7 -10  12   -1.47    2.61   2
  -6 -10  12    2.93    3.79   2
  -5 -10  12    4.77    4.28   2
  -4 -10  12   11.04    4.70   2
  -3 -10  12   12.81    4.92   2
  -2 -10  12    7.49    4.05   2
  -1 -10  12   15.83    5.07   2
   0 -10  12   17.28    5.15   2
   1 -10  12    8.00    4.04   2
   2 -10  12   10.10    4.40   2
   3 -10  12   11.74    4.63   2
   4 -10  12   25.08    6.47   2
   5 -10  12   16.88    5.80   2
   6 -10  12    8.98    4.09   2
  -8  -9  12   -1.90    2.64   2
  -7  -9  12    9.42    4.78   2
  -6  -9  12   96.70   11.04   2
  -5  -9  12   83.66    9.76   2
  -4  -9  12    1.03    3.32   2
  -3  -9  12   15.03    4.87   2
  -2  -9  12   58.67    8.19   2
  -1  -9  12   13.85    4.62   2
   0  -9  12    2.39    3.82   2
   1  -9  12   -2.07    2.77   2
   2  -9  12   13.02    4.51   2
   3  -9  12   12.48    4.30   2
   4  -9  12   22.23    5.99   2
   5  -9  12    7.79    4.21   2
   6  -9  12    8.49    4.62   2
   7  -9  12   12.94    4.50   1
   7  -9  12    8.53    4.03   2
  -8  -8  12    0.41    2.63   2
  -7  -8  12    2.60    4.28   2
  -6  -8  12    0.95    3.65   2
  -5  -8  12    5.29    4.01   2
  -4  -8  12    9.76    4.46   2
  -3  -8  12   21.69    5.58   2
  -2  -8  12   65.59    8.12   2
  -1  -8  12   81.75    8.79   2
   0  -8  12   42.96    6.99   2
   1  -8  12   90.04    9.41   2
   2  -8  12   17.05    5.10   2
   3  -8  12    0.11    2.82   2
   4  -8  12    6.46    3.01   1
   4  -8  12    4.06    3.39   2
   5  -8  12   12.28    4.57   2
   5  -8  12   14.46    4.14   1
   6  -8  12   35.17    7.47   2
   6  -8  12   30.52    6.14   1
   7  -8  12    3.13    3.71   2
   7  -8  12   -2.49    2.52   1
  -8  -7  12    1.90    3.17   2
  -7  -7  12   28.66    6.95   2
  -6  -7  12   38.65    7.21   2
  -5  -7  12   14.18    4.98   2
  -4  -7  12   43.25    7.20   2
  -3  -7  12   14.48    4.64   2
  -2  -7  12   38.95    6.38   2
  -1  -7  12    4.89    3.40   2
   0  -7  12    4.52    3.12   2
   1  -7  12   69.28    8.18   2
   2  -7  12   17.71    4.75   2
   3  -7  12   71.17    6.86   1
   3  -7  12   66.67    8.24   2
   4  -7  12   17.52    5.30   2
   4  -7  12   10.64    3.59   1
   5  -7  12   -2.95    2.22   1
   5  -7  12   -1.11    2.76   2
   6  -7  12   15.21    4.43   1
   6  -7  12   14.83    4.96   2
   7  -7  12   29.49    6.07   1
   7  -7  12   27.43    6.36   2
   8  -7  12   -3.54    2.85   1
   8  -7  12   -2.88    3.23   2
  -9  -6  12   -3.24    3.11   2
  -8  -6  12    9.66    5.17   2
  -7  -6  12   -0.98    3.54   2
  -6  -6  12    2.04    3.36   2
  -5  -6  12   58.01    8.00   2
  -4  -6  12   48.97    7.35   2
  -3  -6  12  106.89    9.11   2
  -2  -6  12   53.68    7.00   2
  -1  -6  12    6.80    3.67   2
   0  -6  12  103.28    8.65   2
   1  -6  12  193.84   12.04   2
   1  -6  12  213.80   10.27   1
   2  -6  12   15.49    3.34   1
   2  -6  12   12.83    4.05   2
   3  -6  12    7.50    2.83   1
   3  -6  12    6.74    3.57   2
   4  -6  12   67.57    7.07   1
   4  -6  12   53.38    7.42   2
   5  -6  12   20.72    4.56   1
   5  -6  12   24.79    5.44   2
   6  -6  12   16.32    4.92   2
   6  -6  12   13.31    4.38   1
   7  -6  12    0.82    2.74   2
   7  -6  12    2.02    2.84   1
   8  -6  12    1.36    3.02   1
   8  -6  12   -0.45    2.81   2
   9  -6  12   11.66    5.20   1
  -9  -5  12   -1.77    3.12   2
  -8  -5  12   12.13    5.11   2
  -7  -5  12   47.04    8.11   2
  -6  -5  12   42.30    7.70   2
  -5  -5  12   47.92    7.21   2
  -4  -5  12    8.92    4.08   2
  -3  -5  12    6.03    3.62   2
  -2  -5  12   11.10    4.07   2
  -1  -5  12   27.63    3.79   1
  -1  -5  12   23.24    5.02   2
   0  -5  12   15.58    3.09   1
   0  -5  12   13.12    4.32   2
   1  -5  12  171.46    9.12   1
   1  -5  12  160.40   10.82   2
   2  -5  12   76.25    6.20   1
   2  -5  12   72.69    7.54   2
   3  -5  12  197.61   12.09   2
   3  -5  12  201.32   10.62   1
   4  -5  12   32.46    5.39   1
   4  -5  12   37.67    6.27   2
   5  -5  12    2.91    2.55   1
   5  -5  12    1.46    2.76   2
   6  -5  12   14.97    4.39   2
   6  -5  12   10.07    3.92   1
   7  -5  12   28.07    5.98   2
   7  -5  12   31.65    6.23   1
   8  -5  12    3.71    3.70   2
   8  -5  12    7.21    4.07   1
   9  -5  12    7.48    4.52   1
  -9  -4  12   -3.61    2.96   2
  -8  -4  12  100.02   11.31   2
  -7  -4  12   29.31    6.39   2
  -6  -4  12    7.20    4.62   2
  -5  -4  12   30.33    6.48   2
  -4  -4  12  100.44    8.64   2
  -3  -4  12   44.84    6.32   2
  -2  -4  12   24.51    3.81   1
  -2  -4  12   17.55    4.59   2
  -1  -4  12    4.27    2.01   1
  -1  -4  12   -0.41    2.83   2
   0  -4  12   15.40    3.22   1
   0  -4  12   13.95    4.23   2
   1  -4  12    7.95    2.52   1
   1  -4  12    2.00    2.93   2
   2  -4  12   53.39    6.50   2
   2  -4  12   51.42    5.59   1
   3  -4  12    2.95    2.62   2
   3  -4  12    0.24    1.88   1
   4  -4  12   91.97    7.87   2
   4  -4  12   81.34    6.89   1
   5  -4  12   83.63    8.48   2
   5  -4  12   84.83    8.07   1
   6  -4  12   33.68    5.90   2
   6  -4  12   41.80    6.44   1
   7  -4  12    9.16    3.73   1
   7  -4  12    9.37    3.81   2
   8  -4  12    2.64    3.26   1
   9  -4  12   12.07    4.56   1
  -9  -3  12    4.15    4.29   2
  -8  -3  12   11.34    4.91   2
  -7  -3  12    9.48    4.51   2
  -6  -3  12   33.41    6.70   2
  -5  -3  12   24.92    5.58   2
  -4  -3  12   -1.46    1.94   1
  -4  -3  12    1.16    2.75   2
  -3  -3  12   15.96    4.38   2
  -3  -3  12   10.08    2.87   1
  -2  -3  12  102.55    6.84   1
  -2  -3  12  103.38    8.41   2
  -1  -3  12  102.28    6.74   1
  -1  -3  12  104.30    8.02   2
   0  -3  12    4.72    2.00   1
   0  -3  12   -1.15    2.62   2
   1  -3  12    1.25    1.78   2
   1  -3  12   16.23    3.45   1
   2  -3  12    2.18    1.95   1
   2  -3  12    2.34    1.47   2
   3  -3  12  134.90    8.87   2
   3  -3  12  169.55    9.46   1
   4  -3  12  164.99    9.62   1
   4  -3  12  130.38    9.10   2
   5  -3  12   26.54    5.01   1
   6  -3  12    7.86    3.42   1
   7  -3  12   28.90    5.51   1
   8  -3  12   50.34    7.64   1
   9  -3  12   13.53    4.54   1
  10  -3  12    9.94    4.38   1
  -9  -2  12   46.95    9.18   2
  -8  -2  12   16.15    5.62   2
  -7  -2  12    5.30    4.04   2
  -6  -2  12   32.93    6.32   2
  -5  -2  12    4.62    3.38   2
  -5  -2  12   -1.02    2.26   1
  -4  -2  12   29.85    5.47   2
  -4  -2  12   24.31    4.49   1
  -3  -2  12   41.49    5.91   2
  -3  -2  12   42.19    5.07   1
  -2  -2  12   16.29    3.61   1
  -2  -2  12   15.27    3.94   2
  -1  -2  12    5.98    3.15   2
  -1  -2  12    7.29    2.72   1
   0  -2  12   16.71    3.51   1
   0  -2  12    7.92    2.59   2
   1  -2  12    6.94    3.33   2
   1  -2  12    9.01    2.78   1
   2  -2  12   -1.96    2.20   2
   2  -2  12   -0.60    1.57   1
   3  -2  12   10.76    3.40   2
   3  -2  12   10.73    3.36   1
   4  -2  12   23.89    4.56   2
   4  -2  12   29.40    4.91   1
   5  -2  12   83.84    7.81   1
   6  -2  12  117.57    9.11   1
   7  -2  12   16.51    4.48   1
   8  -2  12   32.29    6.24   1
   9  -2  12   10.71    4.40   1
  10  -2  12   12.97    4.70   1
  -8  -1  12   -0.25    3.44   2
  -7  -1  12    2.95    3.53   2
  -6  -1  12   17.23    4.52   1
  -6  -1  12   15.47    4.83   2
  -5  -1  12    5.34    3.11   2
  -5  -1  12   10.96    3.65   1
  -4  -1  12   93.78    8.18   2
  -4  -1  12   83.11    6.99   1
  -3  -1  12   12.20    4.00   2
  -3  -1  12    9.81    3.29   1
  -2  -1  12   93.38    7.58   2
  -2  -1  12  131.27    8.02   1
  -1  -1  12   68.56    6.31   2
  -1  -1  12   58.19    5.88   1
   0  -1  12   32.58    4.53   1
   0  -1  12   30.84    4.69   2
   1  -1  12   32.98    4.68   2
   1  -1  12   33.16    4.62   1
   2  -1  12   55.18    5.74   1
   2  -1  12   63.44    5.80   2
   3  -1  12    5.93    2.69   1
   4  -1  12   65.53    6.64   1
   5  -1  12   12.60    3.56   1
   6  -1  12    1.77    2.40   1
   7  -1  12   23.66    5.26   1
   8  -1  12   51.75    7.49   1
   9  -1  12    5.20    3.26   1
  10  -1  12    2.33    3.53   1
  -8   0  12   23.35    5.21   1
  -8   0  12   10.30    4.56   2
  -7   0  12   50.19    7.84   2
  -7   0  12   61.56    7.51   1
  -6   0  12    1.78    2.70   1
  -6   0  12    0.54    2.90   2
  -5   0  12   30.82    5.90   2
  -5   0  12   36.56    5.66   1
  -4   0  12   12.34    4.12   2
  -4   0  12   15.84    4.04   1
  -3   0  12  109.10    7.90   1
  -3   0  12  121.62    8.53   2
  -2   0  12   18.35    4.01   1
  -2   0  12   20.62    3.98   2
  -1   0  12   -0.74    2.21   2
  -1   0  12   -1.41    1.80   1
   0   0  12   48.55    5.40   1
   0   0  12   50.38    5.22   2
   1   0  12   28.19    4.47   1
   2   0  12    6.71    2.67   1
   3   0  12   27.44    4.61   1
   4   0  12   27.58    4.76   1
   5   0  12    3.98    2.61   1
   6   0  12   17.66    4.39   1
   7   0  12   25.62    5.49   1
   8   0  12    8.19    3.48   1
   9   0  12    2.42    3.20   1
  10   0  12    0.07    2.69   1
  11   0  12    1.66    2.69   1
  -8   1  12    0.63    3.46   2
  -8   1  12   -2.83    2.77   1
  -7   1  12    4.85    3.26   1
  -7   1  12   13.76    4.84   2
  -6   1  12   57.57    7.32   1
  -6   1  12   55.41    7.44   2
  -5   1  12   26.41    5.45   2
  -5   1  12   20.41    4.66   1
  -4   1  12   -2.46    2.13   2
  -4   1  12   -0.09    2.33   1
  -3   1  12   -0.31    1.29   2
  -3   1  12    2.93    2.63   1
  -2   1  12    1.24    2.27   1
  -2   1  12   -0.54    2.47   2
  -1   1  12    5.59    2.85   1
  -1   1  12    5.79    3.04   2
   0   1  12   10.99    3.17   1
   1   1  12   15.93    3.72   1
   2   1  12  105.13    7.43   1
   3   1  12   48.59    5.70   1
   4   1  12   29.75    4.76   1
   5   1  12   24.51    4.75   1
   6   1  12  113.75    8.68   1
   7   1  12   49.54    6.73   1
   8   1  12    3.89    2.98   1
   9   1  12   10.56    3.87   1
  10   1  12    7.79    3.86   1
  11   1  12    1.67    3.01   1
  -8   2  12   57.62    8.71   2
  -8   2  12   76.58    8.81   1
  -7   2  12   17.42    4.98   2
  -7   2  12   17.23    4.74   1
  -6   2  12    2.32    3.38   1
  -6   2  12    3.47    3.06   2
  -5   2  12    0.09    2.79   2
  -5   2  12    3.20    3.04   1
  -4   2  12   33.46    5.51   2
  -4   2  12   39.84    5.81   1
  -3   2  12   62.29    6.70   1
  -3   2  12   62.58    6.35   2
  -2   2  12    3.62    2.58   1
  -1   2  12    7.23    2.92   1
   0   2  12    9.83    3.26   1
   1   2  12    6.12    2.88   1
   2   2  12    1.04    2.13   1
   3   2  12   13.26    3.56   1
   4   2  12   80.22    6.77   1
   5   2  12   72.99    7.31   1
   6   2  12   12.32    3.57   1
   7   2  12  107.47    8.68   1
   8   2  12   67.49    8.10   1
   9   2  12   35.77    6.46   1
  10   2  12   11.08    4.38   1
  11   2  12    0.92    2.56   1
  -8   3  12    5.37    4.11   1
  -8   3  12   -3.96    2.82   2
  -7   3  12   13.22    4.34   2
  -7   3  12    8.67    4.00   1
  -6   3  12   14.21    4.34   1
  -6   3  12   14.02    4.14   2
  -5   3  12    7.32    3.54   2
  -5   3  12    2.49    2.99   1
  -4   3  12    2.05    2.81   1
  -3   3  12    8.62    3.49   1
  -2   3  12  133.83    8.91   1
  -1   3  12   93.33    7.31   1
   0   3  12    7.47    3.00   1
   1   3  12   11.23    3.42   1
   2   3  12    4.13    2.44   1
   3   3  12   23.92    4.60   1
   4   3  12    3.66    2.36   1
   5   3  12    8.53    3.07   1
   6   3  12   43.77    6.06   1
   7   3  12  105.14    8.52   1
   8   3  12    3.24    2.44   1
   9   3  12   36.90    6.59   1
  10   3  12   33.57    6.43   1
  11   3  12   -3.15    2.08   1
  -7   4  12   13.51    4.28   1
  -6   4  12   15.81    4.71   1
  -5   4  12    1.14    2.87   1
  -4   4  12   23.81    5.02   1
  -3   4  12   31.09    5.51   1
  -2   4  12    1.85    2.53   1
  -1   4  12  104.39    7.96   1
   0   4  12  102.79    7.68   1
   1   4  12   39.72    5.50   1
   2   4  12    9.33    3.28   1
   3   4  12    4.85    2.60   1
   4   4  12   37.78    5.46   1
  -4  -4 -12   39.25    6.18   3
   5   4  12   86.50    7.13   1
  -5  -4 -12   77.16    7.59   3
   6   4  12   14.71    3.78   1
   7   4  12   13.48    4.20   1
   8   4  12   10.32    3.50   1
   9   4  12  102.73   10.13   1
  10   4  12   23.25    5.68   1
  11   4  12    0.61    2.88   1
  -7   5  12   22.70    5.75   1
  -6   5  12   27.94    5.70   1
  -5   5  12   25.88    5.44   1
  -4   5  12    5.35    3.30   1
  -3   5  12   18.82    4.63   1
  -2   5  12   51.12    6.51   1
  -1   5  12   15.18    3.93   1
   0   5  12   12.53    3.59   1
   1   5  12    8.31    3.21   1
   2   5  12   49.20    6.07   1
   3   5  12   23.24    4.51   1
  -3  -5 -12   23.35    5.58   3
   4   5  12   70.07    7.04   1
  -4  -5 -12   75.47    7.98   3
   5   5  12   54.77    6.42   1
  -5  -5 -12   52.41    6.95   3
   6   5  12   35.41    5.68   1
  -6  -5 -12   30.98    5.66   3
   7   5  12  302.89   15.02   1
   8   5  12  109.44    9.01   1
   9   5  12   20.73    5.00   1
  10   5  12   10.15    4.48   1
  11   5  12   94.48   10.59   1
  -7   6  12   10.61    4.33   1
  -6   6  12   10.54    4.34   1
  -5   6  12    3.47    3.20   1
  -4   6  12   22.35    5.29   1
  -3   6  12   24.46    5.25   1
  -2   6  12   15.57    4.39   1
  -1   6  12   23.76    4.84   1
   0   6  12    7.26    2.88   1
   1   6  12   71.79    7.00   1
   2   6  12   69.72    6.93   1
  -3  -6 -12    0.58    3.62   3
   3   6  12    5.59    2.88   1
  -4  -6 -12   69.71    7.95   3
   4   6  12   62.63    6.71   1
  -5  -6 -12    3.44    3.56   3
   5   6  12    3.13    2.25   1
  -6  -6 -12    6.24    4.14   3
   6   6  12    2.35    2.52   1
   7   6  12    6.50    2.92   1
   8   6  12   39.29    6.46   1
   9   6  12   35.97    6.13   1
  10   6  12   17.55    5.03   1
  11   6  12   14.47    5.04   1
  -6   7  12   31.69    6.70   1
  -5   7  12   17.95    5.33   1
  -4   7  12   -0.91    2.81   1
  -3   7  12   11.41    4.07   1
  -2   7  12    5.45    3.25   1
  -1   7  12   23.27    4.65   1
   0   7  12   13.11    3.96   1
   1   7  12   13.96    3.89   1
  -2  -7 -12   96.18    9.67   3
   2   7  12   93.66    7.47   1
  -3  -7 -12  191.80   12.55   3
   3   7  12  185.74   10.67   1
  -4  -7 -12   68.61    8.12   3
   4   7  12   60.65    6.72   1
  -5  -7 -12    2.08    4.20   3
   5   7  12    4.86    2.85   1
  -6  -7 -12   30.02    6.36   3
   6   7  12   35.58    5.67   1
   7   7  12   89.33    8.65   1
  -7  -7 -12   98.70    9.03   3
   8   7  12    2.01    2.64   1
   9   7  12   11.85    3.96   1
  10   7  12    1.48    3.06   1
  11   7  12    3.41    3.86   1
  -5   8  12    8.15    4.08   1
  -4   8  12   17.56    4.98   1
  -3   8  12   14.23    4.27   1
  -2   8  12    6.40    3.43   1
  -1   8  12   20.81    4.72   1
   0   8  12   15.79    4.05   1
   1   8  12   69.20    7.01   1
  -2  -8 -12    8.53    4.72   3
   2   8  12   13.50    3.62   1
   3   8  12   13.83    3.81   1
  -3  -8 -12   11.50    5.17   3
  -4  -8 -12   65.08    8.36   3
   4   8  12   58.98    6.69   1
  -5  -8 -12   55.89    7.77   3
   5   8  12   40.44    5.86   1
  -6  -8 -12   18.33    5.36   3
   6   8  12   12.24    3.65   1
   7   8  12   93.83    8.84   1
  -7  -8 -12   97.23    9.67   3
   8   8  12   84.26    8.63   1
   9   8  12   34.27    6.36   1
  10   8  12   51.82    7.92   1
  11   8  12   13.38    4.45   1
  -5   9  12    1.15    2.25   1
  -4   9  12    5.08    3.39   1
  -3   9  12    0.11    2.58   1
  -2   9  12   46.61    6.71   1
  -1   9  12    6.79    3.28   1
   0   9  12    4.23    2.75   1
   1   9  12    2.92    2.61   1
   2   9  12   32.59    5.40   1
  -2  -9 -12   42.20    7.77   3
   3   9  12   11.11    3.56   1
  -3  -9 -12   16.42    5.62   3
   4   9  12    4.72    2.64   1
  -4  -9 -12    6.39    4.45   3
  -5  -9 -12   30.73    6.64   3
   5   9  12   32.14    5.44   1
  -6  -9 -12    0.21    4.18   3
   6   9  12    2.24    2.42   1
   7   9  12   39.12    6.25   1
  -7  -9 -12   41.20    7.51   3
  -8  -9 -12    5.71    4.92   3
   8   9  12    7.39    3.16   1
   9   9  12   15.51    4.38   1
  10   9  12   35.83    6.61   1
  11   9  12   27.58    6.11   1
  -4  10  12    3.91    2.03   1
  -3  10  12   34.12    6.16   1
  -2  10  12    4.99    3.13   1
  -1  10  12   10.59    3.68   1
   0  10  12   10.46    3.77   1
  -1 -10 -12   16.19    5.98   3
   1  10  12   21.39    4.87   1
  -2 -10 -12   11.77    5.59   3
   2  10  12   13.13    3.81   1
   3  10  12   -0.16    2.21   1
  -3 -10 -12   -0.58    4.13   3
   4  10  12   21.31    4.51   1
  -4 -10 -12   15.07    5.56   3
  -5 -10 -12   10.61    4.92   3
   5  10  12    6.13    3.09   1
   6  10  12   48.30    6.60   1
  -6 -10 -12   62.56    8.95   3
   7  10  12   24.78    5.22   1
  -7 -10 -12   28.62    6.79   3
  -8 -10 -12   -1.94    3.88   3
   8  10  12    0.06    2.31   1
   9  10  12   82.13    8.83   1
  -9 -10 -12   82.61    9.94   3
  10  10  12   44.60    6.96   1
  -4  11  12    0.52    2.51   1
  -3  11  12    2.61    2.38   1
  -2  11  12    6.48    3.69   1
  -1  11  12   -0.30    2.52   1
   0  11  12    4.16    2.80   1
  -1 -11 -12   17.46    5.74   3
   1  11  12   14.47    3.95   1
  -2 -11 -12    8.79    5.08   3
   2  11  12   25.65    5.12   1
  -3 -11 -12    2.51    4.31   3
   3  11  12    7.96    3.29   1
   4  11  12   14.11    3.94   1
  -4 -11 -12   20.65    6.42   3
  -5 -11 -12    8.21    5.21   3
   5  11  12    1.66    2.39   1
  -6 -11 -12   29.65    7.05   3
   6  11  12   26.47    5.14   1
   7  11  12   25.05    5.18   1
  -7 -11 -12   18.30    6.11   3
  -8 -11 -12   31.39    7.34   3
   8  11  12   32.64    6.08   1
  -9 -11 -12   -5.30    4.17   3
  -3  12  12   -0.94    2.17   1
  -2  12  12    0.08    2.97   1
  -1  12  12    7.27    3.54   1
   0  12  12    7.40    3.43   1
  -1 -12 -12   14.82    5.28   3
   1  12  12   13.02    4.24   1
   2  12  12    4.38    2.58   1
  -2 -12 -12    0.57    3.87   3
  -3 -12 -12    5.81    5.22   3
   3  12  12    4.72    2.85   1
  -4 -12 -12   15.91    6.31   3
   4  12  12   11.37    3.88   1
   5  12  12    3.68    2.47   1
  -5 -12 -12    0.05    4.28   3
  -6 -12 -12   10.17    5.51   3
   6  12  12    8.22    3.10   1
   7  12  12   -0.05    2.45   1
  -7 -12 -12   -1.58    4.32   3
  -8 -12 -12    0.07    4.41   3
  -9 -12 -12    0.88    4.78   3
 -10 -12 -12    9.60    5.97   3
  -2  13  12   25.71    6.20   1
  -1  13  12   19.10    5.04   1
   0  13  12   -0.64    2.70   1
  -1 -13 -12    8.93    4.72   3
   1  13  12    6.82    3.13   1
   2  13  12   37.89    6.15   1
  -2 -13 -12   44.80    8.39   3
   3  13  12   46.86    6.58   1
  -3 -13 -12   55.62    9.68   3
   4  13  12   -2.62    1.98   1
  -4 -13 -12    4.01    4.70   3
  -5 -13 -12   15.98    6.53   3
   5  13  12    5.44    2.87   1
  -6 -13 -12   14.44    6.35   3
  -7 -13 -12   14.12    6.22   3
  -8 -13 -12    8.55    5.60   3
  -9 -13 -12    2.80    5.26   3
 -10 -13 -12    2.35    5.54   3
  -1  14  12   12.52    4.59   1
   0  14  12   29.43    5.88   1
  -1 -14 -12    1.69    4.08   3
   1  14  12    1.67    2.54   1
   2  14  12   -2.60    2.56   1
  -2 -14 -12    2.55    4.49   3
   3  14  12    6.23    3.12   1
  -3 -14 -12    0.72    4.35   3
  -4 -14 -12    5.19    5.31   3
   4  14  12    7.22    3.16   1
  -5 -14 -12   34.55    8.32   3
  -6 -14 -12    2.69    5.38   3
  -7 -14 -12    3.14    5.32   3
  -8 -14 -12    9.85    6.14   3
  -9 -14 -12   14.36    6.88   3
   1  15  12   -0.12    2.68   1
  -1 -15 -12    5.70    3.48   3
   2  15  12   64.31    7.71   1
  -3 -15 -12    1.40    3.03   3
  -4 -15 -12    3.37    3.29   3
  -5 -15 -12    8.06    5.91   3
  -6 -15 -12   10.96    6.61   3
  -7 -15 -12   26.40    7.90   3
  -8 -15 -12    8.84    5.95   3
  -3 -16 -12    2.46    3.69   3
  -4 -16 -12   -1.19    2.84   3
  -5 -16 -12   48.67    9.94   3
  -6 -16 -12   17.90    7.63   3
  -3 -14  13   -1.36    2.59   2
  -2 -14  13    3.35    3.00   2
  -1 -14  13    1.89    2.68   2
   0 -14  13    4.87    3.03   2
  -4 -13  13   -3.99    2.26   2
  -3 -13  13   -3.55    2.08   2
  -2 -13  13    1.22    2.47   2
  -1 -13  13    1.34    2.42   2
   0 -13  13    2.37    2.85   2
   1 -13  13    2.26    2.99   2
   2 -13  13    2.59    3.66   2
  -6 -12  13    1.34    2.75   2
  -5 -12  13    1.91    2.90   2
  -4 -12  13    3.90    3.15   2
  -3 -12  13    0.56    3.84   2
  -2 -12  13    4.09    4.41   2
  -1 -12  13   10.16    4.61   2
   0 -12  13    6.19    4.29   2
   1 -12  13   -0.19    3.39   2
   2 -12  13    0.09    3.58   2
   3 -12  13   -0.72    2.83   2
  -6 -11  13    3.03    2.98   2
  -5 -11  13   -1.27    2.98   2
  -4 -11  13    5.17    4.38   2
  -3 -11  13    7.58    4.61   2
  -2 -11  13    0.77    3.53   2
  -1 -11  13    3.20    3.97   2
   0 -11  13   50.28    8.74   2
   1 -11  13    5.93    4.04   2
   2 -11  13    9.10    5.03   2
   3 -11  13    0.19    3.34   2
   4 -11  13    1.20    3.44   2
  -7 -10  13   -4.08    2.61   2
  -6 -10  13    0.50    2.73   2
  -5 -10  13   -4.81    3.42   2
  -4 -10  13   39.85    7.59   2
  -3 -10  13   24.56    6.19   2
  -2 -10  13   43.59    7.84   2
  -1 -10  13   39.38    7.29   2
   0 -10  13    5.13    4.12   2
   1 -10  13   11.92    4.87   2
   2 -10  13    1.50    3.20   2
   3 -10  13   11.09    4.44   2
   4 -10  13    4.78    3.90   2
   5 -10  13    4.44    4.05   2
  -7  -9  13   -4.25    2.58   2
  -6  -9  13    4.04    4.51   2
  -5  -9  13    5.80    4.44   2
  -4  -9  13   24.41    6.23   2
  -3  -9  13    6.93    4.28   2
  -2  -9  13   -0.10    3.46   2
  -1  -9  13   40.08    7.34   2
   0  -9  13   15.30    5.33   2
   1  -9  13   32.59    6.75   2
   2  -9  13   11.95    4.71   2
   3  -9  13   -0.12    3.04   2
   4  -9  13   11.36    4.92   2
   5  -9  13   13.85    5.23   2
   6  -9  13    4.25    4.19   2
  -8  -8  13    1.15    2.99   2
  -7  -8  13   -1.93    2.44   2
  -6  -8  13   23.58    6.13   2
  -5  -8  13   96.38   10.55   2
  -4  -8  13   31.60    6.50   2
  -3  -8  13    8.09    4.10   2
  -2  -8  13  134.84   11.13   2
  -1  -8  13   19.87    5.86   2
   0  -8  13    1.73    3.61   2
   1  -8  13    7.25    4.03   2
   2  -8  13   82.55    9.16   2
   3  -8  13   74.73    9.20   2
   4  -8  13   11.20    4.53   2
   5  -8  13   -0.63    2.83   2
   5  -8  13   -0.89    2.38   1
   6  -8  13    8.94    4.18   2
   6  -8  13    2.24    3.38   1
   7  -8  13    8.19    4.50   2
   7  -8  13   -0.83    3.29   1
  -8  -7  13   -2.09    2.91   2
  -7  -7  13    0.89    3.71   2
  -6  -7  13   -0.86    3.72   2
  -5  -7  13    3.46    3.75   2
  -4  -7  13   21.24    5.65   2
  -3  -7  13   77.52    8.79   2
  -2  -7  13    4.18    3.88   2
  -1  -7  13   92.97    9.24   2
   0  -7  13   69.98    8.30   2
   1  -7  13  109.04    9.87   2
   2  -7  13   10.86    4.15   2
   3  -7  13    8.42    3.84   2
   4  -7  13   56.79    6.79   1
   4  -7  13   50.23    7.71   2
   5  -7  13   36.51    6.13   1
   5  -7  13   32.67    6.50   2
   6  -7  13   11.60    4.59   2
   6  -7  13    4.94    3.57   1
   7  -7  13    3.31    3.50   2
   7  -7  13    2.78    3.19   1
   8  -7  13   46.31    8.11   1
  -8  -6  13   -0.36    2.91   2
  -7  -6  13   20.93    6.29   2
  -6  -6  13   30.26    6.61   2
  -5  -6  13   26.82    6.08   2
  -4  -6  13    6.56    4.37   2
  -3  -6  13    2.90    3.36   2
  -2  -6  13    3.30    3.28   2
  -1  -6  13   17.33    5.01   2
   0  -6  13   27.60    5.64   2
   1  -6  13   58.90    7.46   2
   2  -6  13   58.24    6.22   1
   2  -6  13   70.70    8.03   2
   3  -6  13   59.54    7.59   2
   3  -6  13   52.78    6.26   1
   4  -6  13   25.17    5.83   2
   4  -6  13   33.84    5.54   1
   5  -6  13    8.44    4.07   2
   5  -6  13   13.66    4.05   1
   6  -6  13    7.70    4.01   2
   6  -6  13    5.39    3.25   1
   7  -6  13   11.57    4.10   1
   7  -6  13   17.43    5.01   2
   8  -6  13    8.64    4.20   1
  -8  -5  13   66.55    9.95   2
  -7  -5  13    7.94    4.53   2
  -6  -5  13    0.99    3.10   2
  -5  -5  13   58.00    8.05   2
  -4  -5  13   58.48    7.72   2
  -3  -5  13   32.10    6.27   2
  -2  -5  13   11.05    4.17   2
  -1  -5  13   36.62    5.87   2
   0  -5  13   30.05    4.61   1
   0  -5  13   30.09    5.73   2
   1  -5  13  128.60    8.22   1
   1  -5  13  121.66    9.42   2
   2  -5  13   64.75    6.36   1
   2  -5  13   67.34    7.52   2
   3  -5  13    4.93    2.69   1
   3  -5  13    1.52    2.66   2
   4  -5  13   27.45    5.15   1
   4  -5  13   29.90    5.79   2
   5  -5  13   29.43    5.60   1
   5  -5  13   19.25    4.87   2
   6  -5  13   76.52    8.38   1
   6  -5  13   58.20    8.21   2
   7  -5  13    7.26    3.55   1
   8  -5  13   27.39    5.77   1
   9  -5  13   16.08    5.13   1
  -8  -4  13    3.33    4.18   2
  -7  -4  13    1.44    6.19   2
  -6  -4  13   78.43    9.52   2
  -5  -4  13    6.91    3.99   2
  -4  -4  13    1.08    2.83   2
  -3  -4  13    8.80    3.84   2
  -2  -4  13   44.67    6.35   2
  -1  -4  13   57.48    5.55   1
  -1  -4  13   41.56    6.07   2
   0  -4  13   41.72    5.98   2
   0  -4  13   41.73    5.03   1
   1  -4  13   13.06    3.48   1
   1  -4  13   14.48    4.15   2
   2  -4  13   11.57    3.90   2
   2  -4  13   11.62    3.31   1
   3  -4  13  209.36   11.24   1
   4  -4  13   77.20    7.47   1
   5  -4  13   -1.07    2.02   1
   6  -4  13   47.85    7.05   1
   7  -4  13   33.83    6.26   1
   8  -4  13   16.39    4.88   1
   9  -4  13    2.79    3.32   1
  -8  -3  13   12.62    5.16   2
  -7  -3  13   23.04    6.19   2
  -6  -3  13   47.64    7.68   2
  -5  -3  13    2.18    3.46   2
  -4  -3  13   32.30    6.06   2
  -3  -3  13   73.68    6.24   1
  -3  -3  13   78.60    7.83   2
  -2  -3  13   23.99    5.11   2
  -2  -3  13   32.24    4.64   1
  -1  -3  13    0.24    1.81   1
  -1  -3  13   -0.45    2.62   2
   0  -3  13   38.72    4.93   1
   0  -3  13   19.30    4.39   2
   1  -3  13   19.48    3.86   1
   2  -3  13    4.36    3.12   2
   2  -3  13   -0.17    1.92   1
   3  -3  13   17.26    4.50   2
   3  -3  13    9.15    3.19   1
   4  -3  13  103.69    7.97   1
   5  -3  13  121.55    8.96   1
   6  -3  13   65.84    7.98   1
   7  -3  13   -0.08    2.29   1
   8  -3  13    0.08    2.59   1
   9  -3  13    1.83    3.45   1
  -8  -2  13    8.23    4.49   2
  -7  -2  13   13.60    4.72   2
  -6  -2  13   59.68    8.24   2
  -5  -2  13   36.26    6.60   2
  -4  -2  13   69.75    7.84   2
  -4  -2  13   54.06    6.23   1
  -3  -2  13    0.15    2.25   1
  -3  -2  13    4.54    3.11   2
  -2  -2  13   75.68    6.39   1
  -2  -2  13   75.16    7.46   2
   0  -2  13    0.47    1.74   1
   0  -2  13   -1.44    2.41   2
   1  -2  13    0.51    1.87   1
   1  -2  13   -2.12    2.35   2
   2  -2  13    3.89    2.14   1
   3  -2  13    6.88    2.93   1
   4  -2  13   29.02    4.96   1
   5  -2  13   11.31    3.62   1
   6  -2  13    6.11    3.26   1
   7  -2  13   30.64    5.91   1
   8  -2  13   32.45    6.32   1
   9  -2  13    4.16    3.39   1
  10  -2  13    2.17    3.21   1
  -8  -1  13    9.24    5.18   2
  -7  -1  13   -2.09    2.81   2
  -6  -1  13   16.06    5.16   2
  -6  -1  13   19.49    4.54   1
  -5  -1  13   -3.93    2.53   2
  -5  -1  13   -0.47    2.55   1
  -4  -1  13    3.01    2.81   1
  -4  -1  13    2.71    2.83   2
  -3  -1  13   71.81    6.88   1
  -3  -1  13   80.10    7.51   2
  -2  -1  13    5.50    2.68   1
  -2  -1  13    1.11    1.69   2
  -1  -1  13   53.98    5.85   1
  -1  -1  13   45.50    5.88   2
   0  -1  13   58.84    6.00   2
   0  -1  13   65.89    6.33   1
   1  -1  13   57.25    6.00   1
   2  -1  13   80.37    6.66   1
   3  -1  13    3.03    2.35   1
   4  -1  13   11.08    3.37   1
   5  -1  13   18.94    4.40   1
   6  -1  13   56.52    6.97   1
   7  -1  13   66.68    8.27   1
   8  -1  13   -3.66    2.30   1
   9  -1  13   29.93    6.42   1
  10  -1  13   19.68    5.76   1
  -8   0  13   -2.42    3.16   2
  -7   0  13   23.75    6.18   2
  -7   0  13   22.64    5.15   1
  -6   0  13    7.80    3.47   1
  -6   0  13   22.43    5.71   2
  -5   0  13    2.44    2.96   1
  -5   0  13   -0.26    2.93   2
  -4   0  13    7.85    3.37   1
  -4   0  13    7.04    3.46   2
  -3   0  13    6.19    2.88   1
  -3   0  13    2.85    2.62   2
  -2   0  13    2.36    2.30   1
  -2   0  13   -0.26    2.58   2
  -1   0  13   13.22    3.54   1
   0   0  13    4.48    2.75   1
   1   0  13    0.45    1.90   1
   2   0  13  143.40    9.00   1
   3   0  13  117.68    8.23   1
   4   0  13    1.02    2.05   1
   5   0  13    9.66    3.43   1
   6   0  13   12.20    3.92   1
   7   0  13   48.69    7.11   1
   8   0  13  109.86   10.39   1
   9   0  13   12.86    4.94   1
  10   0  13    2.25    2.43   1
  -8   1  13    8.34    4.09   1
  -8   1  13   12.05    4.88   2
  -7   1  13    3.16    3.30   1
  -7   1  13    0.92    3.67   2
  -6   1  13    8.84    3.75   1
  -6   1  13    7.83    3.96   2
  -5   1  13   34.59    6.29   2
  -5   1  13   26.81    5.37   1
  -4   1  13   33.46    5.69   1
  -4   1  13   43.83    6.28   2
  -3   1  13   53.93    6.54   1
  -2   1  13    5.84    2.80   1
  -1   1  13   17.04    3.92   1
   0   1  13    0.43    2.16   1
   1   1  13   81.20    6.91   1
   2   1  13    1.07    2.23   1
   3   1  13    4.62    2.71   1
   4   1  13   33.24    5.36   1
   5   1  13   21.06    4.61   1
   6   1  13    7.15    3.24   1
   7   1  13    5.32    3.09   1
   8   1  13   15.00    4.60   1
   9   1  13    2.83    2.86   1
  10   1  13   -0.82    2.41   1
  -7   2  13   12.14    4.62   2
  -7   2  13    9.22    4.27   1
  -6   2  13   19.48    5.50   2
  -6   2  13   36.08    6.14   1
  -5   2  13   21.17    4.96   1
  -4   2  13   30.43    5.50   1
  -3   2  13  142.26    9.66   1
  -2   2  13  207.59   11.50   1
  -1   2  13   45.53    5.85   1
   0   2  13   10.15    3.31   1
   1   2  13    4.89    2.83   1
   2   2  13   51.76    6.15   1
   3   2  13   40.30    5.68   1
   4   2  13    8.30    3.04   1
   5   2  13    6.11    3.05   1
   6   2  13   30.47    5.46   1
   7   2  13   31.83    5.66   1
   8   2  13    9.67    3.68   1
   9   2  13    9.55    3.87   1
  10   2  13   -3.79    2.24   1
  11   2  13    1.71    3.12   1
  -7   3  13   18.02    5.60   1
  -6   3  13   10.42    4.06   1
  -5   3  13   40.11    6.56   1
  -4   3  13   25.54    5.26   1
  -3   3  13   37.71    6.02   1
  -2   3  13   20.41    4.44   1
  -1   3  13  106.03    8.02   1
   0   3  13   98.70    7.78   1
   1   3  13    5.03    2.87   1
   2   3  13   17.77    4.10   1
   3   3  13    1.91    2.31   1
   4   3  13  112.08    8.37   1
   5   3  13  114.53    8.77   1
   6   3  13   93.91    7.97   1
   7   3  13   -0.52    2.04   1
   8   3  13   34.46    6.17   1
   9   3  13   33.22    6.54   1
  10   3  13    2.78    3.50   1
  11   3  13   -0.05    2.61   1
  -7   4  13    7.41    4.14   1
  -6   4  13   17.10    5.00   1
  -5   4  13   18.99    4.84   1
  -4   4  13    2.75    3.20   1
  -3   4  13    9.63    3.68   1
  -2   4  13   93.73    7.99   1
  -1   4  13   75.37    7.45   1
   0   4  13    7.27    3.14   1
   1   4  13   27.07    4.91   1
   2   4  13   11.27    3.51   1
   3   4  13    2.07    2.31   1
   4   4  13    2.32    2.02   1
   5   4  13    1.35    1.89   1
  -5  -4 -13    3.65    3.83   3
   6   4  13   34.54    5.91   1
   7   4  13   79.84    8.36   1
   8   4  13   26.63    5.69   1
   9   4  13    1.01    2.61   1
  10   4  13   32.85    6.77   1
  11   4  13   -1.50    2.38   1
  -6   5  13    2.19    3.50   1
  -5   5  13   11.50    4.45   1
  -4   5  13   39.49    6.52   1
  -3   5  13   34.15    5.95   1
  -2   5  13   10.19    4.00   1
  -1   5  13   31.43    5.40   1
   0   5  13  159.22   10.02   1
   1   5  13  293.73   14.11   1
   2   5  13  152.20    9.85   1
   3   5  13    2.02    2.39   1
   4   5  13   58.15    6.86   1
  -4  -5 -13   64.32    7.89   3
  -5  -5 -13   13.54    4.76   3
   5   5  13   15.90    4.18   1
   6   5  13   28.95    5.49   1
   7   5  13    1.42    2.45   1
   8   5  13    4.20    2.91   1
   9   5  13   30.11    5.96   1
  10   5  13   40.19    7.46   1
  11   5  13    2.24    2.64   1
  -6   6  13    1.36    3.80   1
  -5   6  13    1.84    3.36   1
  -4   6  13    0.98    3.04   1
  -3   6  13   15.42    4.40   1
  -2   6  13   57.99    7.25   1
  -1   6  13   22.07    4.99   1
   0   6  13   11.69    3.72   1
   1   6  13   22.84    4.84   1
   2   6  13  187.03   10.96   1
   3   6  13  246.64   13.01   1
  -3  -6 -13  267.04   15.17   3
  -4  -6 -13    9.50    4.56   3
   4   6  13    8.71    3.14   1
  -5  -6 -13   39.52    6.68   3
   5   6  13   27.43    5.00   1
   6   6  13    3.59    2.72   1
  -6  -6 -13    0.91    3.83   3
   7   6  13   74.15    8.41   1
   8   6  13   33.96    6.16   1
   9   6  13    1.41    2.62   1
  10   6  13    0.19    3.07   1
  11   6  13   20.83    5.23   1
  -5   7  13   22.64    5.79   1
  -4   7  13   19.60    5.20   1
  -3   7  13   11.27    4.12   1
  -2   7  13    5.87    3.43   1
  -1   7  13   44.30    6.39   1
   0   7  13    8.65    3.46   1
   1   7  13   35.50    5.59   1
   2   7  13   90.50    7.69   1
  -3  -7 -13    1.72    3.98   3
   3   7  13    1.08    2.21   1
  -4  -7 -13   18.20    5.43   3
   4   7  13   21.33    4.72   1
  -5  -7 -13   47.21    7.43   3
   5   7  13   44.54    6.48   1
   6   7  13    1.93    2.36   1
  -6  -7 -13    8.05    4.24   3
   7   7  13   13.27    4.18   1
   8   7  13   -1.53    2.53   1
   9   7  13   38.12    6.71   1
  10   7  13   29.02    6.25   1
  11   7  13    2.96    3.04   1
  -5   8  13   12.12    4.63   1
  -4   8  13    5.25    3.41   1
  -3   8  13   34.05    6.51   1
  -2   8  13   21.19    5.13   1
  -1   8  13   -0.65    2.35   1
   0   8  13   14.67    4.16   1
   1   8  13    9.90    3.47   1
   2   8  13   62.81    7.19   1
  -3  -8 -13  123.33   10.96   3
   3   8  13   97.04    8.09   1
  -4  -8 -13   99.16   10.25   3
   4   8  13  104.77    8.32   1
  -5  -8 -13   74.30    9.16   3
   5   8  13   84.08    8.22   1
   6   8  13    3.83    3.03   1
  -6  -8 -13    6.51    4.76   3
  -7  -8 -13   83.14    9.43   3
   7   8  13   87.38    8.89   1
   8   8  13   13.25    4.21   1
   9   8  13   -0.07    2.43   1
  10   8  13   -1.21    3.03   1
  11   8  13   12.67    4.52   1
  -4   9  13    1.25    1.83   1
  -2   9  13    8.99    3.63   1
  -1   9  13   13.44    4.05   1
   0   9  13   22.70    4.96   1
   1   9  13   37.70    5.88   1
  -2  -9 -13    7.09    4.95   3
   2   9  13    6.78    3.25   1
   3   9  13    1.67    2.50   1
  -3  -9 -13    3.61    4.36   3
   4   9  13   12.65    3.89   1
  -4  -9 -13   22.73    6.38   3
   5   9  13   41.35    6.36   1
  -5  -9 -13   38.90    7.52   3
  -6  -9 -13   80.98    9.56   3
   6   9  13   78.04    8.19   1
   7   9  13   16.45    4.53   1
  -7  -9 -13   14.72    5.55   3
   8   9  13   31.19    5.89   1
  -8  -9 -13   36.17    7.07   3
   9   9  13   52.89    7.68   1
  10   9  13    2.76    3.31   1
  11   9  13    5.99    3.99   1
  -4  10  13   -0.11    2.44   1
  -3  10  13   -0.19    1.82   1
  -2  10  13   46.33    7.12   1
  -1  10  13   34.99    6.24   1
   0  10  13   19.58    4.66   1
   1  10  13    6.99    3.01   1
  -2 -10 -13   21.83    6.48   3
   2  10  13   24.56    4.93   1
  -3 -10 -13   69.49    9.69   3
   3  10  13   78.04    7.98   1
  -4 -10 -13   11.08    5.55   3
   4  10  13   13.89    3.91   1
  -5 -10 -13   10.47    5.11   3
   5  10  13    8.96    3.66   1
  -6 -10 -13    2.86    4.59   3
   6  10  13    2.96    2.57   1
  -7 -10 -13   10.81    5.32   3
   7  10  13    8.54    3.57   1
   8  10  13    4.40    3.39   1
  -8 -10 -13   15.34    5.57   3
   9  10  13    2.58    2.82   1
  10  10  13   11.01    4.32   1
  -3  11  13    1.09    2.35   1
  -2  11  13    1.33    2.54   1
  -1  11  13    7.12    3.31   1
   0  11  13   94.04    9.23   1
   1  11  13   22.60    4.81   1
  -2 -11 -13    0.63    4.43   3
   2  11  13   -1.58    2.18   1
   3  11  13    3.82    2.68   1
  -3 -11 -13    2.19    4.46   3
   4  11  13   62.15    7.44   1
  -4 -11 -13   64.39    9.64   3
   5  11  13   19.47    4.66   1
  -5 -11 -13   16.24    5.89   3
   6  11  13   57.02    7.29   1
  -6 -11 -13   47.77    8.76   3
   7  11  13   22.54    4.94   1
  -7 -11 -13   19.34    6.43   3
   8  11  13    8.56    3.42   1
  -8 -11 -13    7.44    5.64   3
  -9 -11 -13    1.16    4.43   3
   9  11  13    1.88    2.73   1
  -2  12  13    0.62    2.42   1
  -1  12  13   -1.00    2.65   1
   0  12  13    3.48    3.26   1
   1  12  13    4.35    3.00   1
  -2 -12 -13   28.23    7.50   3
   2  12  13   23.32    5.29   1
  -3 -12 -13   47.95    8.90   3
   3  12  13   42.74    6.47   1
   4  12  13    7.43    3.48   1
  -4 -12 -13    8.40    5.37   3
   5  12  13    7.63    3.45   1
  -5 -12 -13    5.82    5.22   3
   6  12  13   22.64    5.15   1
  -6 -12 -13   14.18    6.00   3
  -7 -12 -13    9.36    5.70   3
   7  12  13   26.36    5.26   1
   8  12  13   11.56    3.95   1
  -8 -12 -13   10.04    5.45   3
  -9 -12 -13   23.01    7.45   3
  -1  13  13   21.16    5.74   1
   0  13  13   13.72    4.34   1
   1  13  13   20.61    5.07   1
   2  13  13   28.02    5.29   1
  -2 -13 -13   14.43    5.76   3
   3  13  13    3.33    2.69   1
  -3 -13 -13    4.12    5.05   3
  -4 -13 -13   20.62    7.17   3
   4  13  13   20.15    4.66   1
  -5 -13 -13   21.11    6.80   3
   5  13  13   19.94    4.66   1
   6  13  13   37.39    6.04   1
  -6 -13 -13   35.82    8.31   3
  -7 -13 -13    4.91    5.43   3
  -8 -13 -13    3.61    5.16   3
  -9 -13 -13    4.23    5.80   3
   0  14  13   12.24    4.56   1
   1  14  13    3.49    3.04   1
   2  14  13   19.03    5.19   1
  -2 -14 -13   -0.36    2.98   3
   3  14  13    3.72    3.14   1
  -3 -14 -13    1.21    3.62   3
  -4 -14 -13   18.60    6.72   3
   4  14  13   21.59    5.09   1
  -5 -14 -13    5.92    5.31   3
  -6 -14 -13    1.75    5.44   3
  -7 -14 -13    8.81    6.28   3
  -8 -14 -13    6.78    6.38   3
  -2 -15 -13    3.49    3.79   3
   2  15  13    3.42    3.13   1
  -3 -15 -13   -3.50    2.80   3
  -4 -15 -13    3.91    6.28   3
  -5 -15 -13   24.47    7.46   3
  -6 -15 -13    7.15    6.03   3
  -7 -15 -13   -8.34    5.37   3
  -2 -13  14    1.75    3.11   2
  -1 -13  14    3.23    3.05   2
   0 -13  14    0.13    2.69   2
  -4 -12  14    1.99    2.95   2
  -3 -12  14    1.42    3.02   2
  -2 -12  14    1.97    2.76   2
  -1 -12  14    4.65    4.06   2
   0 -12  14    0.57    3.01   2
   1 -12  14    9.69    4.58   2
   2 -12  14    1.98    4.20   2
  -5 -11  14    2.12    3.14   2
  -4 -11  14    0.08    2.75   2
  -3 -11  14   -1.72    3.36   2
  -2 -11  14   14.89    5.52   2
  -1 -11  14   44.91    8.20   2
   0 -11  14   -0.55    4.01   2
   1 -11  14   12.35    4.95   2
   2 -11  14    1.90    3.57   2
   3 -11  14   23.30    6.22   2
   4 -11  14    1.12    5.05   2
  -6 -10  14    0.45    2.77   2
  -5 -10  14   -2.36    2.88   2
  -4 -10  14    8.85    4.68   2
  -3 -10  14    7.63    5.09   2
  -2 -10  14    9.06    4.22   2
  -1 -10  14    0.50    3.82   2
   0 -10  14   35.08    7.63   2
   1 -10  14   56.81    8.66   2
   2 -10  14   15.62    5.34   2
   3 -10  14    1.81    3.34   2
   4 -10  14    8.76    4.77   2
   5 -10  14    8.16    4.90   2
  -6  -9  14    0.92    2.79   2
  -5  -9  14    7.45    4.37   2
  -4  -9  14   16.05    5.56   2
  -3  -9  14   29.02    6.75   2
  -2  -9  14   38.35    7.15   2
  -1  -9  14   28.67    6.55   2
   0  -9  14    6.07    4.33   2
   1  -9  14   -0.57    2.82   2
   2  -9  14   39.78    7.51   2
   3  -9  14   19.85    5.96   2
   4  -9  14    6.02    3.82   2
   5  -9  14    5.47    4.19   2
  -7  -8  14    0.28    2.95   2
  -6  -8  14   -0.50    3.52   2
  -5  -8  14   -0.54    3.76   2
  -4  -8  14    4.61    4.07   2
  -3  -8  14    5.47    4.10   2
  -2  -8  14   10.14    4.36   2
  -1  -8  14   24.67    5.96   2
   0  -8  14   30.34    6.49   2
   1  -8  14   14.20    5.06   2
   2  -8  14   22.33    5.51   2
   3  -8  14   -2.25    2.85   2
   4  -8  14   17.24    5.46   2
   5  -8  14   15.22    5.15   2
   6  -8  14    8.06    4.73   2
  -7  -7  14   15.12    6.06   2
  -6  -7  14    9.74    5.09   2
  -5  -7  14   -0.92    3.60   2
  -4  -7  14   -2.28    3.04   2
  -3  -7  14    3.89    3.79   2
  -2  -7  14   46.66    7.37   2
  -1  -7  14   49.46    7.54   2
   0  -7  14    9.79    4.37   2
   1  -7  14    5.03    3.74   2
   2  -7  14    5.22    3.53   2
   3  -7  14   14.27    4.80   2
   4  -7  14   26.62    5.18   1
   4  -7  14   31.03    6.38   2
   5  -7  14    2.30    3.51   1
   5  -7  14    5.70    3.50   2
   6  -7  14   18.76    5.54   2
   6  -7  14   27.57    6.08   1
   7  -7  14   24.76    5.86   1
  -7  -6  14    7.40    4.83   2
  -6  -6  14   -2.28    3.61   2
  -5  -6  14    1.77    3.67   2
  -4  -6  14    5.99    4.18   2
  -3  -6  14   21.35    5.59   2
  -2  -6  14   16.18    5.31   2
  -1  -6  14   20.91    5.45   2
   0  -6  14   88.29    9.00   2
   1  -6  14   49.44    7.16   2
   2  -6  14   44.60    6.93   2
   3  -6  14    5.56    3.25   2
   3  -6  14    5.48    2.80   1
   4  -6  14   16.06    4.36   1
   4  -6  14   20.40    5.06   2
   5  -6  14   58.53    8.10   2
   5  -6  14   73.95    8.23   1
   6  -6  14   35.11    6.53   1
   7  -6  14    2.68    2.90   1
   8  -6  14    7.85    3.88   1
  -7  -5  14   -0.99    3.89   2
  -6  -5  14    2.13    3.90   2
  -5  -5  14    0.41    3.30   2
  -4  -5  14    5.50    4.16   2
  -3  -5  14   36.67    6.50   2
  -2  -5  14   16.33    4.92   2
  -1  -5  14    7.62    3.88   2
   0  -5  14    8.11    4.18   2
   1  -5  14   35.18    6.15   2
   1  -5  14   40.62    5.48   1
   2  -5  14   67.42    6.77   1
   3  -5  14   83.01    8.66   2
   3  -5  14   75.70    7.47   1
   4  -5  14   11.10    3.70   1
   5  -5  14    2.22    2.70   1
   6  -5  14    7.77    3.48   1
   7  -5  14   34.87    6.57   1
   8  -5  14   53.74    8.34   1
  -7  -4  14   14.26    5.73   2
  -6  -4  14    9.79    4.60   2
  -5  -4  14   13.97    5.09   2
  -4  -4  14    0.74    3.40   2
  -3  -4  14   11.05    4.50   2
  -2  -4  14   23.37    5.33   2
  -1  -4  14   23.10    5.17   2
  -1  -4  14   32.25    4.81   1
   0  -4  14   22.91    5.29   2
   0  -4  14   34.20    4.93   1
   1  -4  14   23.25    4.46   1
   1  -4  14   32.03    5.63   2
   2  -4  14   63.88    6.74   1
   3  -4  14    5.01    2.73   1
   4  -4  14   17.39    4.35   1
   5  -4  14   29.89    5.57   1
   6  -4  14    5.38    3.38   1
   7  -4  14   17.39    4.99   1
   8  -4  14    5.26    3.33   1
   9  -4  14   31.05    6.77   1
  -7  -3  14    4.68    4.56   2
  -6  -3  14   95.51   10.39   2
  -5  -3  14   39.38    6.70   2
  -4  -3  14    8.47    4.01   2
  -3  -3  14   97.98    8.67   2
  -2  -3  14   64.38    7.43   2
  -2  -3  14   68.81    6.56   1
  -1  -3  14   36.47    5.80   2
  -1  -3  14   56.92    5.96   1
   0  -3  14    6.75    2.85   1
   0  -3  14    0.52    1.34   2
   1  -3  14   -0.54    1.97   1
   2  -3  14    6.50    2.89   1
   3  -3  14  106.11    8.04   1
   4  -3  14   35.48    5.78   1
   5  -3  14    7.67    3.44   1
   6  -3  14    6.48    3.53   1
   7  -3  14   31.55    6.35   1
   8  -3  14   40.11    7.35   1
   9  -3  14    2.06    3.27   1
  -7  -2  14    3.81    4.00   2
  -6  -2  14   19.23    5.33   2
  -5  -2  14    9.53    4.38   2
  -4  -2  14   10.82    3.57   1
  -4  -2  14    3.44    3.76   2
  -3  -2  14   10.34    3.47   1
  -3  -2  14   16.29    4.52   2
  -2  -2  14   23.53    4.52   1
  -2  -2  14   27.31    5.50   2
  -1  -2  14   75.71    6.91   1
  -1  -2  14   43.25    5.62   2
   0  -2  14  363.96   15.33   1
   1  -2  14  111.63    8.02   1
   2  -2  14   45.99    5.81   1
   3  -2  14    2.74    2.46   1
   4  -2  14   41.48    6.07   1
   5  -2  14   48.60    6.74   1
   6  -2  14   30.69    5.80   1
   7  -2  14   -1.93    2.21   1
   8  -2  14   49.58    7.70   1
   9  -2  14   25.94    6.37   1
  -7  -1  14    1.24    3.69   2
  -6  -1  14   39.18    6.86   2
  -5  -1  14    2.80    2.91   1
  -5  -1  14    5.07    3.57   2
  -4  -1  14   10.61    3.72   1
  -4  -1  14    8.55    4.03   2
  -3  -1  14    6.66    3.28   2
  -3  -1  14    4.64    2.94   1
  -2  -1  14   32.40    5.16   1
  -1  -1  14   85.09    7.13   1
   0  -1  14    0.35    2.14   1
   1  -1  14   64.55    6.61   1
   2  -1  14  179.49   10.50   1
   3  -1  14   90.72    7.58   1
   4  -1  14    2.09    2.65   1
   5  -1  14   22.78    5.01   1
   6  -1  14   33.19    5.94   1
   7  -1  14   58.10    7.97   1
   8  -1  14    5.18    3.42   1
   9  -1  14    2.77    3.00   1
  -7   0  14    7.10    4.62   2
  -6   0  14   34.86    6.23   1
  -6   0  14   42.03    7.22   2
  -5   0  14   73.60    7.89   1
  -5   0  14   64.15    7.99   2
  -4   0  14   68.62    7.59   1
  -3   0  14   68.14    7.18   1
  -2   0  14   36.96    5.58   1
  -1   0  14   24.12    4.84   1
   0   0  14  136.90    9.06   1
   1   0  14  119.88    8.43   1
   2   0  14  112.82    8.36   1
   3   0  14    1.06    2.21   1
   4   0  14   48.21    6.50   1
   5   0  14   42.71    6.35   1
   6   0  14   51.41    7.04   1
   7   0  14   10.57    3.78   1
   8   0  14    0.45    3.25   1
   9   0  14   37.97    6.96   1
  10   0  14   31.09    7.08   1
  -7   1  14    7.63    3.85   1
  -6   1  14    7.45    3.79   1
  -5   1  14    0.68    2.80   1
  -4   1  14   26.89    5.20   1
  -3   1  14   51.36    6.60   1
  -2   1  14   79.84    7.61   1
  -1   1  14   53.43    6.51   1
   0   1  14    7.16    3.00   1
   1   1  14   16.52    4.04   1
   2   1  14  202.28   11.31   1
   3   1  14  195.20   11.23   1
   4   1  14  166.02   10.58   1
   5   1  14   15.47    4.34   1
   6   1  14   12.98    3.87   1
   7   1  14   16.54    4.65   1
   8   1  14   39.08    7.25   1
   9   1  14   -0.34    2.90   1
  10   1  14   -1.38    2.44   1
  -7   2  14    6.84    4.04   1
  -6   2  14    7.97    3.86   1
  -5   2  14    6.89    3.65   1
  -4   2  14   47.78    6.96   1
  -3   2  14   47.74    6.81   1
  -2   2  14    1.02    2.72   1
  -1   2  14   46.95    6.27   1
   0   2  14    7.19    3.12   1
   1   2  14   38.78    5.76   1
   2   2  14   58.78    6.76   1
   3   2  14   15.59    3.99   1
   4   2  14   29.77    5.44   1
   5   2  14  127.65    9.57   1
   6   2  14   59.61    7.50   1
   7   2  14    5.95    3.26   1
   8   2  14    3.94    2.88   1
   9   2  14    4.73    3.31   1
  10   2  14   -3.25    2.00   1
  -6   3  14    1.23    3.42   1
  -5   3  14    1.67    3.02   1
  -4   3  14   -0.51    2.50   1
  -3   3  14   29.88    5.54   1
  -2   3  14   92.50    8.49   1
  -1   3  14   82.19    7.86   1
   0   3  14    4.49    2.96   1
   1   3  14    2.72    2.43   1
   2   3  14   41.14    6.05   1
   3   3  14  176.84   10.85   1
   4   3  14   98.01    8.11   1
   5   3  14    9.14    3.72   1
   6   3  14   17.16    4.78   1
   7   3  14   28.42    5.66   1
   8   3  14   44.62    6.99   1
   9   3  14    1.16    3.24   1
  10   3  14    1.95    2.33   1
  -6   4  14   -0.18    3.17   1
  -5   4  14   20.61    5.25   1
  -4   4  14   33.41    6.14   1
  -3   4  14   30.34    5.78   1
  -2   4  14    2.21    3.07   1
  -1   4  14   52.67    6.62   1
   0   4  14  126.28    9.28   1
   1   4  14   91.07    8.29   1
   2   4  14    0.15    2.15   1
   3   4  14    6.38    3.15   1
   4   4  14   17.18    4.46   1
   5   4  14   47.41    6.64   1
   6   4  14   67.74    8.01   1
   7   4  14   33.74    6.21   1
   8   4  14    5.94    2.95   1
   9   4  14    6.97    3.65   1
  10   4  14   -1.64    2.39   1
  -6   5  14    6.63    3.88   1
  -5   5  14   14.57    4.78   1
  -4   5  14    5.13    3.52   1
  -3   5  14   60.10    7.88   1
  -2   5  14   57.27    7.39   1
  -1   5  14   33.94    5.99   1
   0   5  14   16.81    4.49   1
   1   5  14   13.40    4.01   1
   2   5  14  102.91    8.40   1
   3   5  14  104.19    8.36   1
   4   5  14    0.04    2.02   1
   5   5  14   15.14    4.21   1
  -5  -5 -14   14.12    4.84   3
   6   5  14    8.87    3.44   1
   7   5  14   12.94    4.11   1
   8   5  14   13.94    4.43   1
   9   5  14   -2.46    3.60   1
  10   5  14    1.53    3.17   1
  -5   6  14   10.91    4.45   1
  -4   6  14    1.89    3.27   1
  -3   6  14   16.51    4.65   1
  -2   6  14    2.06    3.01   1
  -1   6  14   24.81    5.12   1
   0   6  14  103.37    8.47   1
   1   6  14   93.03    8.66   1
   2   6  14   28.37    5.33   1
   3   6  14    9.25    3.53   1
   4   6  14   45.56    6.55   1
  -4  -6 -14   55.12    8.20   3
  -5  -6 -14   38.20    6.95   3
   5   6  14   31.54    5.80   1
   6   6  14   41.63    6.51   1
   7   6  14    5.17    3.49   1
   8   6  14    6.85    3.28   1
   9   6  14    8.50    3.80   1
  10   6  14    1.11    3.28   1
  -5   7  14   14.84    5.08   1
  -4   7  14    0.49    3.10   1
  -3   7  14    0.34    3.05   1
  -2   7  14   67.60    8.11   1
  -1   7  14   13.20    4.21   1
   0   7  14   15.59    4.22   1
   1   7  14    2.70    2.81   1
   2   7  14   21.66    4.76   1
   3   7  14   99.61    8.32   1
  -4  -7 -14   54.94    8.23   3
   4   7  14   44.83    6.61   1
   5   7  14    9.07    3.71   1
  -5  -7 -14   -5.07    3.63   3
  -6  -7 -14   79.67    9.09   3
   6   7  14   97.50    9.18   1
   7   7  14   50.80    7.37   1
   8   7  14   13.22    4.13   1
   9   7  14   -2.65    2.51   1
  10   7  14   -2.21    2.80   1
  -4   8  14   14.76    4.84   1
  -3   8  14   40.28    7.03   1
  -2   8  14    8.00    3.84   1
  -1   8  14   -2.40    1.95   1
   0   8  14   83.60    8.42   1
   1   8  14   46.37    6.65   1
   2   8  14   10.99    3.77   1
  -3  -8 -14    4.74    4.90   3
   3   8  14   -0.09    2.13   1
  -4  -8 -14   90.31   10.46   3
   4   8  14  100.95    8.46   1
   5   8  14   80.85    8.48   1
  -5  -8 -14   76.92    9.51   3
  -6  -8 -14   77.09    9.34   3
   6   8  14   85.11    8.81   1
  -7  -8 -14    7.26    4.76   3
   7   8  14    0.80    2.57   1
   8   8  14    6.31    3.07   1
   9   8  14    9.23    4.12   1
  10   8  14   -1.79    2.81   1
  -3   9  14   -0.02    1.98   1
  -1   9  14    2.26    2.78   1
   0   9  14    1.26    2.39   1
   1   9  14    5.92    2.85   1
   2   9  14   23.12    4.99   1
  -3  -9 -14   55.53    8.87   3
   3   9  14   43.11    6.47   1
  -4  -9 -14   35.17    7.24   3
   4   9  14   33.42    5.87   1
   5   9  14    3.83    2.86   1
  -5  -9 -14    4.50    4.88   3
  -6  -9 -14    4.10    4.53   3
   6   9  14    2.18    3.06   1
   7   9  14   52.26    7.40   1
  -7  -9 -14   52.18    8.30   3
   8   9  14   64.30    8.41   1
   9   9  14    0.66    3.21   1
  10   9  14    1.06    2.83   1
  -3  10  14    2.73    2.62   1
  -2  10  14    0.92    1.76   1
  -1  10  14   12.23    4.09   1
   0  10  14   12.76    4.20   1
   1  10  14    1.38    2.53   1
   2  10  14   44.58    6.63   1
  -3 -10 -14    4.52    4.59   3
   3  10  14    2.66    2.67   1
   4  10  14   45.62    6.70   1
  -4 -10 -14   37.38    8.01   3
   5  10  14   19.05    4.73   1
  -5 -10 -14   24.40    6.91   3
   6  10  14   66.94    8.01   1
  -6 -10 -14   53.22    8.53   3
  -7 -10 -14   41.29    8.01   3
   7  10  14   36.73    6.56   1
   8  10  14    8.83    3.84   1
  -8 -10 -14   12.15    5.50   3
   9  10  14   11.19    4.44   1
  10  10  14   23.60    5.50   1
  -2  11  14   -0.31    2.17   1
  -1  11  14   -0.09    2.02   1
   0  11  14    1.97    3.01   1
   1  11  14    0.12    2.54   1
   2  11  14   34.54    6.11   1
   3  11  14   62.17    7.74   1
  -3 -11 -14   55.45    9.52   3
  -4 -11 -14   16.57    5.91   3
   4  11  14    4.76    3.04   1
  -5 -11 -14    1.11    3.90   3
   5  11  14    3.32    2.84   1
  -6 -11 -14    4.68    4.86   3
   6  11  14   -3.10    2.26   1
   7  11  14   24.52    5.09   1
  -7 -11 -14   43.22    8.71   3
  -8 -11 -14   49.01    8.95   3
   8  11  14   40.87    7.20   1
   9  11  14   18.58    4.80   1
  -1  12  14    1.18    2.20   1
   0  12  14   -1.06    2.51   1
   1  12  14   17.38    4.66   1
   2  12  14    6.31    3.41   1
  -3 -12 -14   18.04    6.50   3
   3  12  14    5.30    2.90   1
   4  12  14    2.94    2.64   1
  -4 -12 -14    4.84    4.79   3
   5  12  14   26.32    5.46   1
  -5 -12 -14   25.35    7.36   3
  -6 -12 -14    2.81    4.83   3
   6  12  14    8.81    3.68   1
  -7 -12 -14    1.61    5.10   3
   7  12  14    1.44    3.03   1
   8  12  14   18.45    4.62   1
  -8 -12 -14   15.87    6.80   3
  -9 -12 -14   15.47    6.10   3
   0  13  14    3.34    3.65   1
   1  13  14    3.21    2.56   1
   2  13  14   18.16    4.95   1
   3  13  14   19.47    5.04   1
  -3 -13 -14   20.64    7.04   3
  -4 -13 -14    7.23    5.54   3
   4  13  14    2.21    2.79   1
   5  13  14    0.81    2.60   1
  -5 -13 -14   -0.41    5.10   3
  -6 -13 -14    6.29    5.72   3
   6  13  14   12.30    4.01   1
  -7 -13 -14   21.13    7.24   3
  -8 -13 -14    3.72    5.73   3
   2  14  14   11.24    3.71   1
  -3 -14 -14    9.58    6.43   3
   3  14  14    6.48    3.42   1
  -4 -14 -14    9.32    6.27   3
   4  14  14   12.76    4.24   1
  -5 -14 -14   39.94    9.41   3
   5  14  14   61.39    7.99   1
  -6 -14 -14   21.76    7.39   3
  -7 -14 -14   17.16    7.71   3
  -2 -12  15    2.28    3.09   2
  -1 -12  15   19.61    6.99   2
   0 -12  15    4.88    4.77   2
  -4 -11  15    2.87    3.17   2
  -3 -11  15    9.84    5.96   2
  -2 -11  15    4.10    4.30   2
  -1 -11  15   28.76    7.17   2
   0 -11  15   47.47    8.63   2
   1 -11  15   42.16    7.79   2
   2 -11  15    2.88    3.95   2
  -5 -10  15   -2.89    3.38   2
  -4 -10  15    1.11    4.01   2
  -3 -10  15   10.50    4.98   2
  -2 -10  15    5.84    4.37   2
  -1 -10  15   28.98    6.89   2
   0 -10  15    1.75    4.09   2
   1 -10  15   18.38    5.79   2
   2 -10  15   29.92    7.04   2
   3 -10  15   46.56    8.82   2
   4 -10  15   26.75    6.81   2
  -5  -9  15   13.21    5.50   2
  -4  -9  15   -3.09    3.50   2
  -3  -9  15   -0.74    3.76   2
  -2  -9  15   13.12    5.41   2
  -1  -9  15    3.86    3.59   2
   0  -9  15    5.95    3.98   2
   2  -9  15   13.24    5.05   2
   3  -9  15    3.74    4.05   2
   4  -9  15    7.36    3.97   2
   5  -9  15   36.40    7.53   2
  -6  -8  15   21.40    7.31   2
  -5  -8  15    9.47    5.16   2
  -4  -8  15   10.10    4.83   2
  -3  -8  15   11.34    4.65   2
  -2  -8  15    4.52    4.21   2
  -1  -8  15   14.08    5.19   2
   0  -8  15    5.36    3.93   2
   1  -8  15    3.54    3.24   2
   2  -8  15   17.56    4.97   2
   3  -8  15   48.83    8.08   2
   4  -8  15   35.16    7.15   2
  -6  -7  15   30.41    7.34   2
  -5  -7  15   28.07    6.87   2
  -4  -7  15   -0.96    3.10   2
  -3  -7  15   19.56    5.82   2
  -2  -7  15    3.35    3.72   2
  -1  -7  15   23.83    6.05   2
   0  -7  15   27.46    5.96   2
   1  -7  15   17.79    5.37   2
   2  -7  15   20.41    5.20   2
   3  -7  15    2.70    3.56   2
   6  -7  15   14.56    4.66   1
  -6  -6  15    9.30    5.17   2
  -5  -6  15   -1.94    3.37   2
  -4  -6  15    5.90    4.10   2
  -3  -6  15   20.38    6.05   2
  -2  -6  15   23.02    5.50   2
  -1  -6  15    7.37    4.07   2
   0  -6  15   -0.13    3.16   2
   1  -6  15    8.53    4.19   2
   2  -6  15   15.43    4.89   2
   4  -6  15    2.32    2.92   1
   5  -6  15    3.13    3.13   1
   6  -6  15    0.57    3.04   1
   7  -6  15   15.76    5.22   1
  -6  -5  15    9.80    4.52   2
  -5  -5  15   40.90    7.48   2
  -4  -5  15   62.21    8.59   2
  -3  -5  15   42.52    7.22   2
  -2  -5  15   -0.78    3.00   2
  -1  -5  15    0.40    3.03   2
   0  -5  15   52.32    7.33   2
   1  -5  15   53.36    7.28   2
   2  -5  15   11.20    3.53   1
   3  -5  15    1.19    2.58   1
   4  -5  15   28.37    5.33   1
   5  -5  15   15.57    4.60   1
   6  -5  15   40.22    6.73   1
   7  -5  15   18.45    4.84   1
  -7  -4  15    6.06    5.05   2
  -6  -4  15   20.29    6.05   2
  -5  -4  15    0.72    3.62   2
  -4  -4  15    7.59    4.29   2
  -3  -4  15   20.76    5.58   2
  -2  -4  15   62.96    7.82   2
  -1  -4  15   49.80    6.88   2
   0  -4  15   32.75    5.20   1
   1  -4  15    4.74    2.92   1
   2  -4  15   97.68    8.06   1
   3  -4  15   55.89    6.91   1
   4  -4  15    6.02    3.31   1
   5  -4  15    0.70    2.55   1
   6  -4  15    1.34    3.01   1
   7  -4  15   56.67    8.19   1
   8  -4  15   33.40    7.20   1
  -7  -3  15    4.33    4.28   2
  -6  -3  15    4.78    4.39   2
  -5  -3  15    3.61    3.59   2
  -4  -3  15   20.58    5.19   2
  -3  -3  15    5.25    3.73   2
  -2  -3  15    3.17    3.62   2
  -1  -3  15   32.81    5.12   1
   0  -3  15   96.40    7.74   1
   1  -3  15   13.48    3.80   1
   2  -3  15   27.97    4.97   1
   3  -3  15    4.96    2.70   1
   4  -3  15   24.45    5.23   1
   5  -3  15   26.49    5.58   1
   6  -3  15   17.07    4.78   1
   7  -3  15    3.38    3.30   1
   8  -3  15    2.37    3.21   1
  -7  -2  15    1.69    3.71   2
  -6  -2  15   17.11    5.62   2
  -5  -2  15    0.16    3.37   2
  -4  -2  15    5.06    3.46   2
  -3  -2  15   12.48    3.84   1
  -2  -2  15   53.33    6.50   1
  -1  -2  15   77.54    7.31   1
   0  -2  15   13.71    3.74   1
   1  -2  15    5.83    2.79   1
   2  -2  15   72.12    7.39   1
   3  -2  15   46.14    6.36   1
   4  -2  15   67.38    7.54   1
   5  -2  15    2.19    3.07   1
   6  -2  15    6.05    3.58   1
   7  -2  15   22.91    5.49   1
   8  -2  15    6.10    3.55   1
   9  -2  15   14.73    4.84   1
  -4  -1  15   18.75    4.45   1
  -3  -1  15   45.19    6.36   1
  -2  -1  15    4.80    3.29   1
  -1  -1  15   64.06    7.00   1
   0  -1  15   34.30    5.37   1
   1  -1  15   12.18    3.61   1
   2  -1  15   39.52    5.93   1
   3  -1  15    2.07    2.57   1
   4  -1  15   15.84    4.33   1
   5  -1  15   69.79    8.05   1
   6  -1  15   10.33    4.04   1
   7  -1  15   -0.93    2.60   1
   8  -1  15   20.37    5.24   1
   9  -1  15   28.05    6.45   1
  -5   0  15    0.14    2.81   1
  -4   0  15    6.38    3.47   1
  -3   0  15   37.06    5.94   1
  -2   0  15   13.24    4.11   1
  -1   0  15   63.20    7.17   1
   0   0  15    8.79    3.34   1
   1   0  15    1.44    2.39   1
   2   0  15   23.97    5.16   1
   3   0  15   76.28    7.81   1
   4   0  15   21.05    4.99   1
   5   0  15    2.24    2.91   1
   6   0  15    4.92    3.16   1
   7   0  15    9.88    3.84   1
   8   0  15   13.76    4.51   1
   9   0  15   -3.38    2.60   1
  -6   1  15   -3.10    2.78   1
  -5   1  15    4.73    3.30   1
  -4   1  15   20.01    4.97   1
  -3   1  15   25.34    5.43   1
  -2   1  15   16.64    4.34   1
  -1   1  15   20.26    4.51   1
   0   1  15   60.37    7.01   1
   1   1  15  124.55    9.08   1
   2   1  15   26.14    5.02   1
   3   1  15    3.64    2.86   1
   4   1  15   61.48    7.55   1
   5   1  15   85.54    8.88   1
   6   1  15   15.71    4.75   1
   7   1  15   47.05    7.53   1
   8   1  15    2.83    3.30   1
   9   1  15   28.72    6.60   1
  -6   2  15   26.94    6.20   1
  -5   2  15   24.94    5.73   1
  -4   2  15    6.35    3.39   1
  -3   2  15   15.78    4.50   1
  -2   2  15   33.33    5.85   1
  -1   2  15   48.88    6.72   1
   0   2  15    3.54    2.74   1
   1   2  15    8.00    3.27   1
   2   2  15   40.06    6.16   1
   3   2  15  170.57   11.04   1
   4   2  15    5.42    3.07   1
   5   2  15    5.06    3.10   1
   6   2  15   14.73    4.32   1
   7   2  15   54.16    7.83   1
   8   2  15   10.72    3.92   1
   9   2  15    2.47    2.55   1
  10   2  15    2.86    2.84   1
  -6   3  15    1.99    3.50   1
  -5   3  15   23.88    5.72   1
  -4   3  15   23.52    5.26   1
  -3   3  15   10.97    4.16   1
  -2   3  15    3.62    3.24   1
  -1   3  15   28.49    5.49   1
   0   3  15   82.75    8.29   1
   1   3  15   78.76    8.00   1
   2   3  15   33.86    5.80   1
   3   3  15    5.34    2.98   1
   4   3  15   42.68    6.53   1
   5   3  15   62.56    7.86   1
   6   3  15   55.60    7.81   1
   7   3  15    1.09    2.45   1
   8   3  15    7.56    3.32   1
   9   3  15   -0.45    2.56   1
  10   3  15    0.31    2.61   1
  -5   4  15    8.04    3.98   1
  -4   4  15    9.30    4.24   1
  -3   4  15    1.10    2.82   1
  -2   4  15   83.04    8.77   1
  -1   4  15   34.62    5.96   1
   0   4  15    6.63    3.41   1
   1   4  15    2.37    2.89   1
   2   4  15   28.54    5.55   1
   3   4  15   41.26    6.46   1
   4   4  15   19.32    4.81   1
   5   4  15    8.62    3.54   1
   6   4  15   41.75    6.76   1
   7   4  15   73.28    8.73   1
   8   4  15   72.77    8.91   1
   9   4  15   -0.84    2.35   1
  10   4  15   -1.12    2.56   1
  -5   5  15   18.61    5.21   1
  -4   5  15   18.39    5.25   1
  -3   5  15   24.50    5.49   1
  -2   5  15   11.25    4.06   1
  -1   5  15    7.49    3.37   1
   0   5  15    6.33    3.72   1
   1   5  15   58.79    7.29   1
   2   5  15   41.98    6.38   1
   3   5  15    0.62    2.67   1
   4   5  15   34.31    5.94   1
   5   5  15   66.37    8.00   1
   6   5  15   62.70    8.08   1
   7   5  15    1.49    2.55   1
   8   5  15    1.31    2.59   1
   9   5  15    1.58    2.69   1
  10   5  15   -3.59    2.51   1
  -4   6  15   23.05    5.98   1
  -3   6  15    6.89    3.56   1
  -2   6  15   86.58    9.33   1
  -1   6  15   -0.20    2.69   1
   0   6  15    7.92    3.75   1
   1   6  15    3.71    3.11   1
   2   6  15   21.55    4.73   1
   3   6  15   68.00    7.80   1
   4   6  15   32.50    5.98   1
   5   6  15    3.98    2.99   1
   6   6  15   11.01    3.81   1
   7   6  15   19.28    5.35   1
   8   6  15   92.20   10.20   1
   9   6  15   10.02    4.35   1
  10   6  15   -0.11    2.85   1
  -4   7  15   19.25    5.52   1
  -3   7  15   31.90    6.42   1
  -2   7  15   -2.68    2.58   1
  -1   7  15   11.10    4.15   1
   0   7  15   29.10    5.78   1
   1   7  15   11.40    3.71   1
   2   7  15    9.02    3.66   1
   3   7  15    3.99    2.91   1
   4   7  15   24.57    5.05   1
  -5  -7 -15   18.64    5.46   3
   5   7  15   17.12    4.48   1
  -6  -7 -15   24.34    6.46   3
   6   7  15   22.24    4.99   1
   7   7  15    8.20    3.35   1
   8   7  15    0.13    2.67   1
   9   7  15    2.31    2.93   1
  10   7  15   12.69    5.14   1
  -3   8  15    8.16    4.19   1
  -2   8  15    6.93    3.96   1
  -1   8  15   20.43    4.97   1
   0   8  15   13.79    4.04   1
   1   8  15    7.82    3.41   1
   2   8  15   26.65    5.25   1
   3   8  15   75.23    8.22   1
  -4  -8 -15   12.36    5.37   3
   4   8  15   13.16    3.75   1
   5   8  15   -0.35    2.39   1
  -5  -8 -15    7.74    4.99   3
   6   8  15    0.98    2.66   1
  -6  -8 -15    5.92    4.36   3
   7   8  15    1.89    2.80   1
   8   8  15   28.62    6.18   1
   9   8  15    2.52    3.22   1
  10   8  15    6.49    3.96   1
  -2   9  15   -0.80    1.90   1
  -1   9  15    1.49    2.65   1
   0   9  15   26.23    5.72   1
   1   9  15   41.04    6.67   1
   2   9  15   27.48    5.67   1
   3   9  15    7.57    3.43   1
  -4  -9 -15   10.45    5.31   3
   4   9  15   -0.04    2.64   1
  -5  -9 -15   12.89    5.46   3
   5   9  15   13.44    4.26   1
   6   9  15   21.83    4.96   1
  -6  -9 -15   27.21    6.99   3
  -7  -9 -15    1.90    4.17   3
   7   9  15   -3.47    2.24   1
   8   9  15   20.79    5.38   1
   9   9  15   35.31    6.59   1
  -2  10  15    2.47    2.53   1
  -1  10  15    2.97    2.12   1
   0  10  15    0.98    2.48   1
   1  10  15   -0.78    2.44   1
   2  10  15   24.51    5.26   1
   3  10  15   59.72    7.77   1
  -4 -10 -15    0.25    3.96   3
   4  10  15    2.69    2.94   1
   5  10  15    2.85    2.65   1
  -5 -10 -15   -0.99    4.04   3
   6  10  15   45.28    7.08   1
  -6 -10 -15   34.03    7.46   3
  -7 -10 -15   34.26    7.51   3
   7  10  15   23.52    5.67   1
   8  10  15   20.02    5.26   1
   9  10  15    2.52    2.90   1
  -1  11  15    0.28    2.35   1
   0  11  15    1.69    2.10   1
   1  11  15    4.10    3.25   1
   2  11  15    4.15    2.77   1
   3  11  15    3.28    3.07   1
  -4 -11 -15    0.63    4.44   3
   4  11  15   11.48    4.11   1
   5  11  15   42.30    7.11   1
  -5 -11 -15   35.91    8.19   3
   6  11  15    6.55    3.45   1
  -6 -11 -15   14.63    6.02   3
   7  11  15    3.00    3.39   1
  -7 -11 -15   -0.96    4.17   3
  -8 -11 -15   11.82    5.62   3
   8  11  15   12.72    4.42   1
   0  12  15    0.60    2.31   1
   1  12  15   -1.95    1.92   1
   2  12  15   22.19    5.08   1
   3  12  15   28.28    5.71   1
  -3 -12 -15   30.88    7.95   3
  -4 -12 -15   -1.09    4.59   3
   4  12  15    7.48    3.32   1
   5  12  15    7.52    3.97   1
  -5 -12 -15    8.35    5.64   3
  -6 -12 -15    2.94    5.18   3
   6  12  15   -1.77    2.75   1
   7  12  15   17.41    5.01   1
   8  12  15    8.39    3.80   1
  -8 -12 -15    9.85    5.72   3
   2  13  15    5.56    3.86   1
  -3 -13 -15    6.75    5.59   3
   3  13  15    4.44    3.12   1
  -4 -13 -15   70.15   11.60   3
   4  13  15   40.66    6.95   1
  -5 -13 -15   47.55    9.44   3
   5  13  15   29.41    6.17   1
  -6 -13 -15   20.97    7.93   3
   6  13  15   25.67    6.05   1
  -7 -13 -15    7.55    6.18   3
   7  13  15    5.48    3.67   1
  -3 -10  16   23.68    7.61   2
  -2 -10  16    0.43    4.10   2
  -1 -10  16    2.39    4.18   2
   0 -10  16   16.77    5.58   2
   1 -10  16   13.30    5.07   2
   2 -10  16    6.27    3.88   2
  -4  -9  16   -1.74    4.13   2
  -3  -9  16    6.39    4.56   2
  -2  -9  16   22.57    6.36   2
  -1  -9  16   27.63    6.56   2
   0  -9  16    5.86    4.39   2
   1  -9  16   10.74    4.93   2
   2  -9  16   38.86    7.96   2
   3  -9  16   30.24    7.46   2
  -4  -8  16   12.56    5.64   2
  -3  -8  16   21.54    6.60   2
  -2  -8  16   13.47    4.74   2
  -1  -8  16    7.17    4.33   2
   0  -8  16   16.45    5.02   2
   1  -8  16   14.72    5.30   2
   2  -8  16    2.84    3.50   2
  -5  -7  16   -0.84    3.74   2
  -4  -7  16    2.82    3.93   2
  -3  -7  16    1.30    3.50   2
  -2  -7  16   18.21    5.68   2
  -1  -7  16   27.71    6.21   2
   0  -7  16   10.63    4.66   2
   1  -7  16   -0.56    3.28   2
  -5  -6  16    8.24    5.05   2
  -4  -6  16   23.16    6.24   2
  -3  -6  16    5.31    3.68   2
  -2  -6  16   17.21    5.25   2
  -1  -6  16    3.12    3.41   2
   0  -6  16    8.53    4.04   2
   5  -6  16   51.45    7.68   1
   6  -6  16    9.22    3.94   1
  -5  -5  16    4.03    4.50   2
  -4  -5  16    4.02    3.79   2
  -3  -5  16   25.64    6.05   2
  -2  -5  16   26.32    5.98   2
   3  -5  16    5.95    3.11   1
   4  -5  16    7.06    3.44   1
   5  -5  16    3.14    3.17   1
   6  -5  16    1.35    3.05   1
   7  -5  16    3.18    3.94   1
  -6  -4  16    4.71    4.00   2
  -5  -4  16   11.20    4.68   2
  -4  -4  16   37.81    7.27   2
   1  -4  16   10.96    3.75   1
   2  -4  16   16.27    4.30   1
   3  -4  16    3.21    2.83   1
   4  -4  16    5.34    3.22   1
   5  -4  16   15.07    4.63   1
   6  -4  16    2.36    3.32   1
   7  -4  16   11.53    4.81   1
   0  -3  16    2.05    2.39   1
   1  -3  16   -0.77    2.31   1
   2  -3  16   23.23    4.79   1
   3  -3  16    2.96    2.51   1
   4  -3  16   -0.57    2.39   1
   5  -3  16    7.34    3.56   1
   6  -3  16   14.82    4.85   1
   7  -3  16   22.60    5.34   1
   8  -3  16   26.74    6.01   1
  -2  -2  16    7.03    3.53   1
  -1  -2  16    1.77    2.63   1
   0  -2  16   52.29    6.65   1
   1  -2  16   36.40    5.85   1
   2  -2  16    5.09    3.05   1
   3  -2  16    3.22    3.03   1
   4  -2  16   23.40    5.27   1
   5  -2  16   13.66    4.27   1
   6  -2  16   -0.60    2.55   1
   7  -2  16   -1.81    3.18   1
   8  -2  16   -1.30    2.90   1
  -3  -1  16    8.62    3.81   1
  -2  -1  16   27.23    5.48   1
  -1  -1  16   47.82    6.64   1
   0  -1  16    5.45    2.92   1
   1  -1  16    4.85    3.08   1
   2  -1  16   46.05    6.62   1
   3  -1  16   24.92    5.01   1
   4  -1  16    7.18    3.74   1
   5  -1  16    3.08    3.04   1
   6  -1  16   11.73    4.41   1
   7  -1  16   56.12    8.20   1
   8  -1  16   19.66    5.55   1
  -5   0  16    5.05    3.46   1
  -4   0  16    6.82    3.56   1
  -3   0  16    6.48    3.41   1
  -2   0  16    9.68    3.89   1
  -1   0  16   14.76    4.15   1
   0   0  16   63.92    7.38   1
   1   0  16   52.47    6.94   1
   2   0  16   35.49    5.96   1
   3   0  16    4.36    3.11   1
   4   0  16   14.90    4.28   1
   5   0  16   20.19    4.86   1
   6   0  16    5.64    3.17   1
   7   0  16    0.12    3.00   1
   8   0  16   22.94    5.90   1
  -5   1  16   29.54    6.04   1
  -4   1  16    1.94    2.90   1
  -3   1  16    1.56    2.78   1
  -2   1  16   40.47    6.43   1
  -1   1  16   41.47    6.42   1
   0   1  16    7.90    3.48   1
   1   1  16    6.33    3.26   1
   2   1  16   20.03    4.64   1
   3   1  16   70.18    7.98   1
   4   1  16   22.45    5.06   1
   5   1  16    0.13    2.53   1
   6   1  16   11.19    3.80   1
   7   1  16   39.01    7.05   1
   8   1  16   23.11    5.59   1
   9   1  16   11.62    4.78   1
  -5   2  16   19.13    4.93   1
  -4   2  16   22.75    5.39   1
  -3   2  16    7.78    3.60   1
  -2   2  16   29.74    5.80   1
  -1   2  16    9.60    3.63   1
   0   2  16    7.62    3.53   1
   1   2  16    8.46    3.50   1
   2   2  16    7.87    3.19   1
   3   2  16    1.51    2.65   1
   4   2  16   28.15    5.75   1
   5   2  16   57.74    7.80   1
   6   2  16   12.40    4.27   1
   7   2  16   -0.08    2.78   1
   8   2  16   19.69    5.22   1
   9   2  16    0.27    2.94   1
  -5   3  16    3.34    3.45   1
  -4   3  16   -0.38    3.16   1
  -3   3  16    2.09    2.90   1
  -2   3  16   31.26    5.88   1
  -1   3  16   19.09    4.94   1
   0   3  16   -0.39    2.69   1
   1   3  16   -1.13    2.71   1
   2   3  16    5.63    3.20   1
   3   3  16   61.79    7.96   1
   4   3  16   26.13    5.60   1
   5   3  16    5.94    2.91   1
   6   3  16   -2.08    2.52   1
   7   3  16   30.77    6.16   1
   8   3  16   -0.57    2.51   1
   9   3  16    3.05    2.64   1
  -4   4  16   26.53    5.99   1
  -3   4  16   20.99    4.96   1
  -2   4  16   12.98    4.02   1
  -1   4  16    4.25    3.15   1
   0   4  16    8.02    3.53   1
   1   4  16   29.12    5.88   1
   2   4  16   30.74    5.83   1
   3   4  16    9.56    3.78   1
   4   4  16   34.86    6.40   1
   5   4  16   48.62    7.37   1
   6   4  16   48.09    7.41   1
   7   4  16   21.52    4.86   1
   8   4  16    1.32    2.87   1
   9   4  16    3.03    2.84   1
  -4   5  16    1.05    3.66   1
  -3   5  16   31.20    6.35   1
  -2   5  16   18.22    4.66   1
  -1   5  16    4.99    3.49   1
   0   5  16    2.90    3.12   1
   1   5  16    2.26    2.94   1
   2   5  16   12.36    4.16   1
   3   5  16   34.05    6.22   1
   4   5  16    5.39    3.46   1
   5   5  16    3.31    2.95   1
   6   5  16   27.03    5.77   1
   7   5  16   21.06    5.10   1
   8   5  16   -1.96    2.38   1
   9   5  16   -0.70    2.46   1
  -3   6  16   30.20    6.58   1
  -2   6  16   -1.05    2.80   1
  -1   6  16    5.37    3.31   1
   0   6  16   17.75    4.95   1
   1   6  16    8.19    3.66   1
   2   6  16   14.87    4.60   1
   3   6  16    2.90    2.67   1
   4   6  16    2.97    2.88   1
   5   6  16    6.14    3.45   1
   6   6  16   16.08    4.98   1
   7   6  16   -1.38    2.42   1
   8   6  16   -1.47    2.48   1
   9   6  16   -0.55    2.63   1
  -3   7  16   10.38    4.54   1
  -2   7  16   48.05    7.72   1
  -1   7  16   67.05    8.38   1
   0   7  16    5.83    3.37   1
   1   7  16   -1.74    2.30   1
   2   7  16    5.36    2.76   1
   3   7  16   14.73    4.50   1
   4   7  16    3.10    2.69   1
   5   7  16    2.65    2.79   1
   6   7  16   31.62    6.05   1
   7   7  16   10.55    3.95   1
   8   7  16    5.06    2.56   1
   9   7  16    0.73    2.69   1
  -2   8  16    0.70    2.97   1
  -1   8  16   16.40    4.87   1
   1   8  16   32.16    5.97   1
   2   8  16    7.01    3.37   1
   3   8  16    5.66    3.13   1
   4   8  16    7.92    3.47   1
   5   8  16   15.68    4.39   1
  -6  -8 -16   10.48    4.90   3
   6   8  16    6.59    3.59   1
   7   8  16   -0.42    2.56   1
   8   8  16    4.65    3.10   1
   9   8  16   10.23    4.56   1
  -1   9  16    2.40    2.48   1
   0   9  16    2.36    2.45   1
   1   9  16   -0.12    2.64   1
   2   9  16   33.56    6.18   1
   3   9  16   43.24    6.99   1
   4   9  16    7.85    4.56   1
  -5  -9 -16   16.33    5.65   3
   5   9  16   19.64    5.03   1
  -6  -9 -16   30.92    7.12   3
   6   9  16   23.43    5.50   1
   7   9  16   11.35    4.26   1
   8   9  16   20.48    5.16   1
   0  10  16   -0.50    2.07   1
   1  10  16   -1.12    1.94   1
   2  10  16    6.58    3.50   1
   3  10  16    1.21    2.70   1
   4  10  16   19.65    4.97   1
  -5 -10 -16   15.87    6.15   3
   5  10  16   19.25    4.97   1
   6  10  16    0.57    2.71   1
  -6 -10 -16    2.38    4.38   3
   7  10  16    0.64    2.87   1
  -7 -10 -16   15.60    5.96   3
   8  10  16   25.99    6.26   1
   1  11  16    2.48    2.34   1
   2  11  16    0.66    2.05   1
   3  11  16   13.39    3.99   1
   4  11  16   20.46    4.98   1
  -4 -11 -16   23.41    7.21   3
   5  11  16    1.84    2.94   1
  -5 -11 -16    6.99    5.43   3
  -6 -11 -16    0.10    4.65   3
   6  11  16    0.80    2.98   1
  -7 -11 -16   23.81    7.04   3
   7  11  16   15.12    4.77   1
   2  12  16    0.00    2.23   1
   3  12  16   -0.17    2.82   1
  -4 -12 -16   19.16    6.82   3
   4  12  16   10.00    3.83   1
  -5 -12 -16   24.91    7.99   3
   5  12  16   29.99    5.87   1
   6  12  16   31.97    6.32   1
  -6 -12 -16   49.03    9.43   3
  -1  -9  17    9.46    4.55   2
   0  -9  17   15.12    5.75   2
   1  -9  17   22.65    6.07   2
  -3  -8  17    8.27    3.79   2
  -2  -8  17    7.83    4.87   2
  -1  -8  17    7.01    4.64   2
  -3  -7  17    8.02    4.86   2
  -2  -7  17    7.39    4.38   2
  -4  -6  17   -0.32    4.06   2
   4  -5  17    8.08    3.86   1
   5  -5  17   54.39    8.18   1
   6  -5  17    8.47    3.83   1
   2  -4  17   20.25    4.99   1
   3  -4  17   19.95    4.93   1
   4  -4  17   46.32    7.17   1
   5  -4  17    3.37    3.27   1
   6  -4  17    3.93    3.60   1
   0  -3  17   23.63    4.92   1
   1  -3  17   33.54    5.99   1
   2  -3  17    0.64    2.86   1
   3  -3  17    2.11    2.97   1
   4  -3  17    5.69    3.32   1
   5  -3  17   26.74    5.81   1
   6  -3  17   14.97    4.61   1
   7  -3  17    0.97    3.42   1
  -1  -2  17   42.07    6.44   1
   0  -2  17   10.16    3.76   1
   1  -2  17    2.93    3.12   1
   2  -2  17   21.13    5.02   1
   3  -2  17   10.76    3.91   1
   4  -2  17    6.11    3.41   1
   5  -2  17    5.20    3.56   1
   6  -2  17    4.35    3.18   1
   7  -2  17   12.81    4.88   1
  -2  -1  17   10.10    3.67   1
  -1  -1  17    4.30    3.27   1
   0  -1  17   46.52    6.73   1
   1  -1  17   78.48    8.50   1
   2  -1  17    6.81    3.60   1
   3  -1  17    3.04    3.32   1
   4  -1  17   16.26    4.63   1
   5  -1  17   19.80    4.94   1
   6  -1  17    8.08    3.68   1
   7  -1  17    4.41    3.67   1
  -4   0  17    3.21    3.10   1
  -3   0  17    6.33    3.48   1
  -2   0  17   11.77    4.10   1
  -1   0  17   28.22    5.52   1
   0   0  17    2.30    2.72   1
   1   0  17    8.24    3.67   1
   2   0  17   50.19    7.14   1
   3   0  17   62.76    7.96   1
   4   0  17   10.43    4.05   1
   5   0  17    2.95    3.55   1
   6   0  17   18.10    4.95   1
   7   0  17   22.06    5.63   1
   8   0  17    8.80    4.31   1
  -4   1  17   16.83    4.75   1
  -3   1  17   16.44    4.79   1
  -2   1  17   35.46    6.25   1
  -1   1  17    1.39    2.98   1
   0   1  17    3.53    3.10   1
   1   1  17   18.28    4.93   1
   2   1  17   16.23    4.64   1
   3   1  17    3.35    3.00   1
   4   1  17   30.10    5.83   1
   5   1  17   28.10    6.02   1
   6   1  17   22.98    5.47   1
   7   1  17    7.77    3.77   1
   8   1  17   11.31    4.40   1
  -4   2  17    4.01    3.68   1
  -3   2  17    2.25    3.25   1
  -2   2  17   32.02    5.98   1
  -1   2  17   10.24    4.14   1
   0   2  17    5.63    3.59   1
   1   2  17   -0.63    2.43   1
   2   2  17   12.18    3.84   1
   3   2  17   54.53    7.59   1
   4   2  17   86.74    9.27   1
   5   2  17    4.21    3.36   1
   6   2  17    1.33    2.86   1
   7   2  17    2.61    3.19   1
   8   2  17   12.18    4.97   1
  -4   3  17    6.27    3.70   1
  -3   3  17    7.73    3.87   1
  -2   3  17   17.94    5.08   1
  -1   3  17    8.46    3.52   1
   0   3  17    9.62    3.78   1
   1   3  17    2.38    2.91   1
   2   3  17    9.00    3.47   1
   3   3  17    1.10    3.13   1
   4   3  17    4.73    3.52   1
   5   3  17   20.77    5.05   1
   6   3  17   39.60    7.20   1
   7   3  17    3.83    3.43   1
   8   3  17    2.75    3.13   1
  -3   4  17   13.00    4.92   1
  -2   4  17    5.20    3.55   1
  -1   4  17    6.76    3.72   1
   0   4  17    1.82    2.93   1
   1   4  17    2.48    2.84   1
   2   4  17    4.88    3.14   1
   3   4  17   17.96    4.73   1
   4   4  17    1.19    2.95   1
   5   4  17    2.73    3.23   1
   6   4  17    3.38    3.15   1
   7   4  17    0.80    2.36   1
   8   4  17    1.84    2.67   1
  -3   5  17   15.38    4.58   1
  -2   5  17   -2.00    2.79   1
  -1   5  17   16.93    4.78   1
   0   5  17   31.61    6.11   1
   1   5  17   12.26    4.39   1
   2   5  17   -2.18    2.40   1
   3   5  17   10.17    4.10   1
   4   5  17    5.63    3.17   1
   5   5  17    8.38    3.73   1
   6   5  17   -1.29    2.31   1
   7   5  17   -1.13    2.24   1
   8   5  17   -0.72    2.33   1
  -2   6  17   41.50    7.14   1
  -1   6  17   26.09    5.70   1
   0   6  17   -0.78    2.61   1
   1   6  17    1.13    3.07   1
   2   6  17   15.67    4.53   1
   3   6  17   10.32    3.89   1
   4   6  17    0.37    2.61   1
   5   6  17    0.13    2.43   1
   6   6  17    7.78    3.84   1
   7   6  17   -1.49    1.82   1
   8   6  17   -4.01    1.95   1
  -2   7  17    3.47    3.14   1
  -1   7  17   10.94    4.42   1
   0   7  17   51.96    7.82   1
   1   7  17   25.07    5.45   1
   2   7  17    9.41    3.91   1
   3   7  17    8.02    3.50   1
   4   7  17   20.63    5.14   1
   5   7  17   15.71    4.42   1
   6   7  17    1.14    2.62   1
   7   7  17    2.94    2.32   1
   8   7  17    0.12    2.61   1
  -1   8  17   27.93    6.18   1
   0   8  17    3.12    3.18   1
   1   8  17   -1.66    1.88   1
   2   8  17    0.91    2.55   1
   3   8  17    5.41    3.30   1
   4   8  17    5.17    3.29   1
   5   8  17   -1.02    2.53   1
   6   8  17   -0.69    2.27   1
   7   8  17   -2.00    2.52   1
   8   8  17    2.72    2.93   1
   0   9  17    0.27    2.16   1
   1   9  17    0.15    2.06   1
   2   9  17    1.05    1.84   1
   3   9  17   -4.11    1.80   1
   4   9  17   -2.83    2.25   1
   5   9  17   -0.93    2.17   1
  -6  -9 -17   20.77    6.22   3
   6   9  17   -0.68    2.17   1
   7   9  17    2.39    2.90   1
   1  10  17   -0.68    2.18   1
   2  10  17   -0.24    2.29   1
   3  10  17    2.16    2.44   1
   4  10  17    3.27    2.48   1
   5  10  17   -1.59    2.14   1
  -6 -10 -17    7.43    4.88   3
   6  10  17    1.79    2.71   1
   3  11  17    1.33    2.54   1
   4  11  17   -0.76    2.29   1
   5  11  17   13.56    5.00   1
   3  -4  18    1.41    2.94   1
   4  -4  18   26.75    5.98   1
   5  -4  18   47.18    7.71   1
   1  -3  18    3.92    3.23   1
   2  -3  18    5.64    3.29   1
   3  -3  18    5.64    3.78   1
   4  -3  18    7.76    3.81   1
   5  -3  18    2.19    2.99   1
   0  -2  18   20.77    5.03   1
   1  -2  18   12.87    4.12   1
   2  -2  18    6.41    3.63   1
   3  -2  18    3.65    2.97   1
   4  -2  18    0.00    2.61   1
   5  -2  18    6.80    3.75   1
   6  -2  18   25.94    6.11   1
  -2  -1  18    2.55    3.20   1
  -1  -1  18    6.43    3.58   1
   0  -1  18    7.93    3.67   1
   1  -1  18    4.37    3.07   1
   2  -1  18   -1.61    2.65   1
   3  -1  18    3.94    3.08   1
   4  -1  18    4.24    3.13   1
   5  -1  18    7.18    3.77   1
   6  -1  18    8.91    3.92   1
  -3   0  18    2.96    3.24   1
  -2   0  18   12.88    4.40   1
  -1   0  18    6.67    3.62   1
   0   0  18    2.20    3.14   1
   1   0  18   30.31    6.22   1
   2   0  18    4.80    3.28   1
   3   0  18    0.74    2.94   1
   4   0  18    9.95    3.77   1
   5   0  18    5.29    3.83   1
   6   0  18    7.23    3.99   1
   7   0  18    2.95    3.34   1
  -3   1  18   17.50    4.80   1
  -2   1  18    8.49    4.28   1
  -1   1  18   10.37    3.99   1
   0   1  18    0.43    2.82   1
   1   1  18    0.56    2.88   1
   2   1  18    4.72    3.37   1
   3   1  18   31.62    6.24   1
   4   1  18    6.67    3.51   1
   5   1  18   18.41    5.05   1
   6   1  18    4.38    3.46   1
   7   1  18   11.86    4.25   1
  -3   2  18    8.08    3.95   1
  -2   2  18    1.60    3.09   1
  -1   2  18    0.62    2.83   1
   0   2  18   35.12    6.56   1
   1   2  18   17.03    4.61   1
   2   2  18    3.41    3.42   1
   3   2  18    5.14    3.18   1
   4   2  18   17.73    4.93   1
   5   2  18   26.53    5.71   1
   6   2  18   -0.16    3.23   1
   7   2  18   -0.41    3.16   1
  -2   3  18   39.40    7.01   1
  -1   3  18   21.07    5.14   1
   0   3  18    0.85    2.76   1
   1   3  18    3.25    3.12   1
   2   3  18   11.73    4.31   1
   3   3  18   11.48    4.26   1
   4   3  18    4.16    3.41   1
   5   3  18    2.90    3.16   1
   6   3  18    8.64    4.43   1
   7   3  18   50.43    8.45   1
  -2   4  18    6.92    4.00   1
  -1   4  18    7.74    3.95   1
   0   4  18   40.24    6.87   1
   1   4  18   25.26    5.60   1
   2   4  18   30.60    6.26   1
   3   4  18    1.55    2.74   1
   4   4  18    6.60    3.69   1
   5   4  18    5.15    3.52   1
   6   4  18   16.72    5.39   1
   7   4  18    9.03    4.06   1
  -2   5  18   27.83    5.95   1
  -1   5  18   27.13    6.05   1
   0   5  18   18.88    5.33   1
   1   5  18    7.76    3.63   1
   2   5  18   28.57    6.34   1
   3   5  18   11.56    4.42   1
   4   5  18    8.94    4.07   1
   5   5  18    0.02    2.98   1
   6   5  18    0.40    2.46   1
   7   5  18   -0.56    2.20   1
  -1   6  18   -0.67    2.88   1
   0   6  18    8.32    4.03   1
   1   6  18   20.66    5.39   1
   2   6  18   35.72    6.93   1
   3   6  18    1.72    2.93   1
   4   6  18    1.76    2.72   1
   5   6  18    1.61    2.35   1
   6   6  18   -2.91    2.17   1
   7   6  18   -0.74    2.76   1
   0   7  18    1.69    2.91   1
   1   7  18    3.32    3.49   1
   2   7  18   43.63    7.43   1
   3   7  18    0.91    1.93   1
   4   7  18    0.65    2.19   1
   5   7  18   -0.01    1.91   1
   6   7  18   -0.83    2.52   1
   1   8  18   -1.98    2.25   1
   2   8  18   -2.87    1.99   1
   3   8  18    1.57    2.21   1
   4   8  18    0.44    2.23   1
   5   8  18    0.50    2.35   1
   6   8  18    0.54    2.71   1
   3   9  18    1.93    2.49   1
   4   9  18    1.20    2.45   1
   5   9  18    2.39    2.64   1
   3  -3  19    0.87    2.96   1
   4  -3  19   -2.02    3.06   1
   1  -2  19    5.13    3.48   1
   2  -2  19    1.88    3.15   1
   3  -2  19    2.83    3.42   1
   4  -2  19   -3.37    2.74   1
  -1  -1  19   28.22    5.79   1
   0  -1  19   -0.25    3.15   1
   1  -1  19   33.89    6.51   1
   2  -1  19   -3.17    2.83   1
   3  -1  19   -2.51    3.07   1
   4  -1  19   17.62    5.17   1
   5  -1  19    3.35    3.80   1
  -1   0  19   16.71    4.67   1
   0   0  19   13.26    4.54   1
   1   0  19   13.65    4.27   1
   2   0  19    7.51    3.90   1
   3   0  19   18.54    5.40   1
   4   0  19    3.82    3.48   1
   5   0  19   -4.39    2.78   1
  -1   1  19    4.80    3.55   1
   0   1  19    5.96    3.51   1
   1   1  19   -1.06    3.02   1
   2   1  19    0.37    3.21   1
   3   1  19    3.22    3.25   1
   4   1  19   17.40    4.84   1
   5   1  19    3.14    3.47   1
  -1   2  19   12.84    4.43   1
   0   2  19   14.91    4.60   1
   1   2  19    4.62    3.45   1
   2   2  19   -0.06    2.94   1
   3   2  19    5.00    3.58   1
   4   2  19    1.63    3.06   1
   5   2  19    4.51    3.48   1
  -1   3  19    8.29    3.95   1
   0   3  19   -2.92    2.75   1
   1   3  19    8.38    3.61   1
   2   3  19    0.79    3.14   1
   3   3  19    2.33    3.15   1
   4   3  19   16.77    5.29   1
   5   3  19   13.23    4.73   1
   0   4  19   14.01    4.46   1
   1   4  19    0.07    3.12   1
   2   4  19   11.54    4.73   1
   3   4  19    7.15    3.97   1
   4   4  19    2.24    3.32   1
   5   4  19   16.48    4.53   1
   1   5  19   72.63    9.25   1
   2   5  19    9.90    4.38   1
   3   5  19    4.81    3.50   1
   4   5  19   14.30    4.62   1
   5   5  19   10.95    4.71   1
   2   6  19   24.57    5.61   1
   3   6  19    8.41    4.11   1
   4   6  19   -0.58    3.02   1
   0   0   0    0.00    0.00   0
;
_shelx_hkl_checksum              15634
loop_
_space_group_symop_operation_xyz
'x, y, z'
'-x, -y, -z'
loop_
_atom_site_label
_atom_site_type_symbol
_atom_site_fract_x
_atom_site_fract_y
_atom_site_fract_z
_atom_site_U_iso_or_equiv
_atom_site_adp_type
_atom_site_occupancy
_atom_site_site_symmetry_order
_atom_site_calc_flag
_atom_site_refinement_flags_posn
_atom_site_refinement_flags_adp
_atom_site_refinement_flags_occupancy
_atom_site_disorder_assembly
_atom_site_disorder_group
Zn1 Zn 0.11272(5) 0.25092(3) 0.74537(3) 0.02421(18) Uani 1 1 d . . . . .
N1 N 0.0922(4) 0.2404(2) 0.8849(2) 0.0231(8) Uani 1 1 d . . . . .
N2 N 0.1904(4) 0.1034(2) 0.7366(2) 0.0267(8) Uani 1 1 d . . . . .
N3 N 0.0682(4) 0.2505(3) 0.6137(2) 0.0274(8) Uani 1 1 d . . . . .
N4 N -0.0296(4) 0.3871(2) 0.7622(2) 0.0244(8) Uani 1 1 d . . . . .
C1 C 0.0317(4) 0.3119(3) 0.9480(3) 0.0250(9) Uani 1 1 d . . . . .
C2 C 0.0409(5) 0.2716(3) 1.0395(3) 0.0261(10) Uani 1 1 d . . . . .
C3 C 0.1118(5) 0.1770(3) 1.0297(3) 0.0276(10) Uani 1 1 d . . . . .
C4 C 0.1441(4) 0.1585(3) 0.9333(3) 0.0242(9) Uani 1 1 d . . . . .
C5 C 0.2184(5) 0.0698(3) 0.8952(3) 0.0273(10) Uani 1 1 d . . . . .
H5A H 0.2573 0.0209 0.9363 0.033 Uiso 1 1 calc R U . . .
C6 C 0.2429(5) 0.0439(3) 0.8045(3) 0.0281(10) Uani 1 1 d . . . . .
C7 C 0.3194(5) -0.0507(3) 0.7687(3) 0.0293(10) Uani 1 1 d . . . . .
C8 C 0.3096(5) -0.0474(3) 0.6795(3) 0.0312(10) Uani 1 1 d . . . . .
C9 C 0.2297(5) 0.0496(3) 0.6596(3) 0.0287(10) Uani 1 1 d . . . . .
C10 C 0.1979(5) 0.0853(3) 0.5743(3) 0.0305(10) Uani 1 1 d . . . . .
H10A H 0.2328 0.0416 0.5254 0.037 Uiso 1 1 calc R U . . .
C11 C 0.1213(5) 0.1770(3) 0.5529(3) 0.0279(10) Uani 1 1 d . . . . .
C12 C 0.0799(5) 0.2097(3) 0.4652(3) 0.0290(10) Uani 1 1 d . . . . .
C13 C -0.0008(5) 0.3014(3) 0.4744(3) 0.0289(10) Uani 1 1 d . . . . .
C14 C -0.0056(5) 0.3267(3) 0.5677(3) 0.0277(10) Uani 1 1 d . . . . .
C15 C -0.0797(5) 0.4160(3) 0.6060(3) 0.0273(10) Uani 1 1 d . . . . .
H15A H -0.1249 0.4640 0.5662 0.033 Uiso 1 1 calc R U . . .
C16 C -0.0941(4) 0.4421(3) 0.6959(3) 0.0240(9) Uani 1 1 d . . . . .
C17 C -0.1817(5) 0.5333(3) 0.7324(3) 0.0275(10) Uani 1 1 d . . . . .
C18 C -0.1729(4) 0.5331(3) 0.8220(3) 0.0254(10) Uani 1 1 d . . . . .
C19 C -0.0737(4) 0.4402(3) 0.8407(3) 0.0237(9) Uani 1 1 d . . . . .
C20 C -0.0322(4) 0.4076(3) 0.9260(3) 0.0263(10) Uani 1 1 d . . . . .
C21 C -0.0334(5) 0.3182(3) 1.1286(3) 0.0326(11) Uani 1 1 d . . . . .
H21A H -0.0171 0.3807 1.1311 0.039 Uiso 1 1 calc R U . . .
H21B H 0.0074 0.2781 1.1789 0.039 Uiso 1 1 calc R U . . .
C22 C -0.1931(6) 0.3326(4) 1.1418(4) 0.0485(14) Uani 1 1 d . . . . .
H22A H -0.2379 0.3648 1.1996 0.073 Uiso 1 1 calc R U . . .
H22B H -0.2100 0.2706 1.1424 0.073 Uiso 1 1 calc R U . . .
H22C H -0.2339 0.3716 1.0918 0.073 Uiso 1 1 calc R U . . .
C23 C 0.1415(5) 0.1018(3) 1.1025(3) 0.0328(11) Uani 1 1 d . . . . .
H23A H 0.1491 0.1315 1.1585 0.039 Uiso 1 1 calc R U . . .
H23B H 0.2338 0.0535 1.0826 0.039 Uiso 1 1 calc R U . . .
C24 C 0.0264(6) 0.0528(4) 1.1237(4) 0.0460(13) Uani 1 1 d . . . . .
H24A H 0.0562 -0.0010 1.1651 0.069 Uiso 1 1 calc R U . . .
H24B H 0.0109 0.0297 1.0672 0.069 Uiso 1 1 calc R U . . .
H24C H -0.0619 0.0983 1.1523 0.069 Uiso 1 1 calc R U . . .
C25 C 0.4013(5) -0.1327(3) 0.8227(3) 0.0343(11) Uani 1 1 d . . . . .
H25A H 0.4228 -0.1927 0.7892 0.041 Uiso 1 1 calc R U . . .
H25B H 0.3425 -0.1381 0.8817 0.041 Uiso 1 1 calc R U . . .
C26 C 0.5395(5) -0.1184(4) 0.8395(4) 0.0427(13) Uani 1 1 d . . . . .
H26A H 0.5918 -0.1735 0.8729 0.064 Uiso 1 1 calc R U . . .
H26B H 0.5181 -0.0606 0.8751 0.064 Uiso 1 1 calc R U . . .
H26C H 0.5972 -0.1121 0.7811 0.064 Uiso 1 1 calc R U . . .
C27 C 0.3713(5) -0.1273(3) 0.6119(3) 0.0372(12) Uani 1 1 d . . . . .
H27A H 0.3645 -0.1875 0.6423 0.045 Uiso 1 1 calc R U . . .
H27B H 0.3135 -0.1149 0.5622 0.045 Uiso 1 1 calc R U . . .
C28 C 0.5235(6) -0.1400(4) 0.5714(4) 0.0507(15) Uani 1 1 d . . . . .
H28A H 0.5568 -0.1934 0.5289 0.076 Uiso 1 1 calc R U . . .
H28B H 0.5820 -0.1532 0.6200 0.076 Uiso 1 1 calc R U . . .
H28C H 0.5309 -0.0817 0.5389 0.076 Uiso 1 1 calc R U . . .
C29 C 0.1161(5) 0.1491(4) 0.3817(3) 0.0377(12) Uani 1 1 d . . . . .
H29A H 0.1253 0.1897 0.3273 0.045 Uiso 1 1 calc R U . . .
H29B H 0.2092 0.1004 0.3829 0.045 Uiso 1 1 calc R U . . .
C30 C 0.0078(7) 0.1002(5) 0.3734(4) 0.0611(18) Uani 1 1 d . . . . .
H30A H 0.0413 0.0577 0.3210 0.092 Uiso 1 1 calc R U . . .
H30B H -0.0821 0.1480 0.3652 0.092 Uiso 1 1 calc R U . . .
H30C H -0.0065 0.0630 0.4288 0.092 Uiso 1 1 calc R U . . .
C31 C -0.0815(5) 0.3645(4) 0.4059(3) 0.0352(11) Uani 1 1 d . . . . .
H31A H -0.0359 0.3417 0.3439 0.042 Uiso 1 1 calc R U . . .
H31B H -0.0781 0.4303 0.4111 0.042 Uiso 1 1 calc R U . . .
C32 C -0.2366(6) 0.3648(5) 0.4206(4) 0.0570(16) Uani 1 1 d . . . . .
H32A H -0.2839 0.4009 0.3715 0.086 Uiso 1 1 calc R U . . .
H32B H -0.2848 0.3944 0.4790 0.086 Uiso 1 1 calc R U . . .
H32C H -0.2400 0.2991 0.4207 0.086 Uiso 1 1 calc R U . . .
C33 C -0.2743(5) 0.6111(3) 0.6788(3) 0.0314(11) Uani 1 1 d . . . . .
H33A H -0.2920 0.6731 0.7080 0.038 Uiso 1 1 calc R U . . .
H33B H -0.2224 0.6139 0.6168 0.038 Uiso 1 1 calc R U . . .
C34 C -0.4154(5) 0.5967(4) 0.6720(4) 0.0468(14) Uani 1 1 d . . . . .
H34A H -0.4701 0.6492 0.6370 0.070 Uiso 1 1 calc R U . . .
H34B H -0.4684 0.5952 0.7331 0.070 Uiso 1 1 calc R U . . .
H34C H -0.3989 0.5363 0.6415 0.070 Uiso 1 1 calc R U . . .
C35 C -0.2681(5) 0.6062(3) 0.8888(3) 0.0321(11) Uani 1 1 d . . . . .
H35A H -0.3037 0.6672 0.8564 0.039 Uiso 1 1 calc R U . . .
H35B H -0.2128 0.6167 0.9341 0.039 Uiso 1 1 calc R U . . .
C36 C -0.3938(5) 0.5760(4) 0.9377(4) 0.0470(14) Uani 1 1 d . . . . .
H36A H -0.4553 0.6269 0.9787 0.070 Uiso 1 1 calc R U . . .
H36B H -0.3592 0.5178 0.9730 0.070 Uiso 1 1 calc R U . . .
H36C H -0.4477 0.5641 0.8930 0.070 Uiso 1 1 calc R U . . .
C37 C -0.0507(5) 0.4809(3) 0.9961(3) 0.0287(10) Uani 1 1 d . . . . .
H37A H -0.1379 0.5009 1.0364 0.034 Uiso 1 1 calc R U . . .
C39 C 0.3568(8) 0.3518(5) 0.6999(4) 0.066(2) Uani 1 1 d . . . . .
C40 C 0.3577(6) 0.3808(4) 0.7966(4) 0.0448(13) Uani 1 1 d . . . . .
H40A H 0.3642 0.4464 0.7951 0.054 Uiso 1 1 calc R U . . .
H40B H 0.2668 0.3812 0.8346 0.054 Uiso 1 1 calc R U . . .
C41 C 0.4790(6) 0.3153(4) 0.8408(3) 0.0396(12) Uani 1 1 d . . . . .
C42 C 0.6070(6) 0.3341(4) 0.8350(4) 0.0443(13) Uani 1 1 d . . . . .
H42A H 0.6196 0.3891 0.8028 0.053 Uiso 1 1 calc R U . . .
C43 C 0.7182(6) 0.2738(5) 0.8756(4) 0.0527(15) Uani 1 1 d . . . . .
H43A H 0.8046 0.2885 0.8726 0.063 Uiso 1 1 calc R U . . .
C44 C 0.7012(7) 0.1924(5) 0.9204(4) 0.0570(16) Uani 1 1 d . . . . .
H44A H 0.7769 0.1501 0.9470 0.068 Uiso 1 1 calc R U . . .
C45 C 0.5751(7) 0.1729(5) 0.9263(4) 0.0602(17) Uani 1 1 d . . . . .
H45A H 0.5640 0.1167 0.9566 0.072 Uiso 1 1 calc R U . . .
C46 C 0.4630(6) 0.2347(4) 0.8882(4) 0.0484(14) Uani 1 1 d . . . . .
H46A H 0.3750 0.2215 0.8946 0.058 Uiso 1 1 calc R U . . .
N5 N 0.3222(4) 0.2622(3) 0.7009(3) 0.0424(11) Uani 1 1 d . . . . .
H5B H 0.3803 0.2206 0.7357 0.051 Uiso 1 1 calc R U . . .
H5C H 0.3490 0.2396 0.6432 0.051 Uiso 1 1 calc R U . . .
O1 O 0.4303(11) 0.3611(8) 0.5460(6) 0.081(3) Uani 0.5 1 d . . P A 1
H1A H 0.4922 0.3730 0.5061 0.122 Uiso 0.5 1 calc R U P A 1
C38 C 0.4606(11) 0.3722(8) 0.6321(7) 0.039(2) Uani 0.5 1 d . . P A 1
H38A H 0.4615 0.4383 0.6390 0.047 Uiso 0.5 1 calc R U P A 1
H38B H 0.5556 0.3286 0.6391 0.047 Uiso 0.5 1 calc R U P A 1
O1B O 0.2897(9) 0.3773(8) 0.5574(6) 0.070(3) Uani 0.5 1 d . . P A 2
H1BA H 0.2421 0.4219 0.5274 0.104 Uiso 0.5 1 calc R U P A 2
C38B C 0.2910(13) 0.4110(8) 0.6445(8) 0.049(3) Uani 0.5 1 d . . P A 2
H38C H 0.3328 0.4641 0.6353 0.059 Uiso 0.5 1 calc R U P A 2
H38D H 0.1913 0.4379 0.6738 0.059 Uiso 0.5 1 calc R U P A 2
N1S N 0.3974(7) -0.0777(4) 0.3401(5) 0.088(2) Uani 1 1 d . . . . .
C1S C 0.2976(9) -0.1182(6) 0.3423(7) 0.102(3) Uani 1 1 d . . . . .
C2S C 0.1987(8) -0.1632(6) 0.3629(8) 0.135(5) Uani 1 1 d . . . . .
H2SA H 0.1935 -0.1961 0.3090 0.203 Uiso 1 1 calc R U . . .
H2SB H 0.1064 -0.1166 0.3830 0.203 Uiso 1 1 calc R U . . .
H2SC H 0.2240 -0.2097 0.4117 0.203 Uiso 1 1 calc R U . . .
loop_
_atom_site_aniso_label
_atom_site_aniso_U_11
_atom_site_aniso_U_22
_atom_site_aniso_U_33
_atom_site_aniso_U_23
_atom_site_aniso_U_13
_atom_site_aniso_U_12
Zn1 0.0246(3) 0.0221(3) 0.0240(3) -0.00311(19) -0.0053(2) -0.0030(2)
N1 0.0242(19) 0.0215(19) 0.0240(19) -0.0036(15) -0.0065(15) -0.0058(15)
N2 0.029(2) 0.0213(19) 0.027(2) -0.0032(15) -0.0068(16) -0.0018(15)
N3 0.031(2) 0.0230(19) 0.027(2) -0.0050(15) -0.0054(16) -0.0048(16)
N4 0.0246(19) 0.0218(19) 0.0252(19) -0.0040(15) -0.0033(15) -0.0044(15)
C1 0.021(2) 0.028(2) 0.027(2) -0.0052(18) -0.0009(17) -0.0091(18)
C2 0.027(2) 0.030(2) 0.025(2) 0.0000(19) -0.0044(18) -0.0144(19)
C3 0.024(2) 0.031(2) 0.031(2) -0.0003(19) -0.0077(19) -0.0134(19)
C4 0.020(2) 0.028(2) 0.026(2) 0.0002(18) -0.0073(17) -0.0076(18)
C5 0.025(2) 0.025(2) 0.031(2) 0.0037(19) -0.0082(19) -0.0054(18)
C6 0.029(2) 0.024(2) 0.032(2) -0.0003(19) -0.0068(19) -0.0070(19)
C7 0.027(2) 0.026(2) 0.035(3) -0.0030(19) -0.0062(19) -0.0073(19)
C8 0.026(2) 0.027(2) 0.039(3) -0.004(2) -0.003(2) -0.0060(19)
C9 0.025(2) 0.026(2) 0.034(3) -0.0039(19) -0.0036(19) -0.0054(18)
C10 0.029(2) 0.029(2) 0.031(2) -0.008(2) -0.0039(19) -0.004(2)
C11 0.027(2) 0.032(3) 0.024(2) -0.0059(19) -0.0021(18) -0.0078(19)
C12 0.028(2) 0.037(3) 0.024(2) -0.0003(19) -0.0058(18) -0.012(2)
C13 0.027(2) 0.034(3) 0.027(2) -0.0026(19) -0.0045(19) -0.011(2)
C14 0.026(2) 0.030(2) 0.027(2) -0.0018(19) -0.0049(18) -0.0080(19)
C15 0.029(2) 0.024(2) 0.029(2) 0.0021(18) -0.0103(19) -0.0054(18)
C16 0.021(2) 0.023(2) 0.028(2) -0.0010(18) -0.0023(17) -0.0079(17)
C17 0.025(2) 0.022(2) 0.034(3) -0.0003(19) -0.0038(19) -0.0065(18)
C18 0.020(2) 0.022(2) 0.034(2) -0.0042(18) -0.0031(18) -0.0054(17)
C19 0.020(2) 0.021(2) 0.028(2) -0.0047(18) -0.0014(17) -0.0035(17)
C20 0.023(2) 0.028(2) 0.025(2) -0.0086(18) 0.0008(17) -0.0048(18)
C21 0.044(3) 0.034(3) 0.022(2) -0.0035(19) -0.003(2) -0.015(2)
C22 0.045(3) 0.052(3) 0.047(3) -0.020(3) 0.015(3) -0.021(3)
C23 0.038(3) 0.036(3) 0.028(2) 0.002(2) -0.012(2) -0.014(2)
C24 0.058(4) 0.047(3) 0.038(3) 0.010(2) -0.012(3) -0.023(3)
C25 0.034(3) 0.025(2) 0.043(3) 0.001(2) -0.009(2) -0.007(2)
C26 0.037(3) 0.031(3) 0.058(3) 0.003(2) -0.015(2) -0.003(2)
C27 0.041(3) 0.026(2) 0.041(3) -0.008(2) -0.009(2) -0.001(2)
C28 0.039(3) 0.041(3) 0.063(4) -0.009(3) 0.004(3) -0.004(2)
C29 0.042(3) 0.040(3) 0.028(3) -0.008(2) -0.006(2) -0.006(2)
C30 0.056(4) 0.077(5) 0.054(4) -0.035(3) -0.005(3) -0.021(3)
C31 0.037(3) 0.040(3) 0.026(2) -0.002(2) -0.009(2) -0.007(2)
C32 0.044(3) 0.065(4) 0.067(4) 0.006(3) -0.027(3) -0.016(3)
C33 0.031(2) 0.023(2) 0.037(3) 0.000(2) -0.006(2) -0.0021(19)
C34 0.034(3) 0.034(3) 0.073(4) 0.010(3) -0.023(3) -0.006(2)
C35 0.030(3) 0.024(2) 0.040(3) -0.007(2) -0.009(2) -0.0013(19)
C36 0.029(3) 0.059(4) 0.050(3) -0.022(3) 0.003(2) -0.010(2)
C37 0.024(2) 0.030(2) 0.029(2) -0.0083(19) -0.0017(19) -0.0040(18)
C39 0.097(5) 0.090(5) 0.038(3) 0.005(3) -0.009(3) -0.072(5)
C40 0.047(3) 0.042(3) 0.049(3) -0.004(3) -0.008(3) -0.017(3)
C41 0.042(3) 0.045(3) 0.033(3) -0.014(2) 0.002(2) -0.017(2)
C42 0.050(3) 0.055(3) 0.036(3) -0.011(3) 0.002(2) -0.031(3)
C43 0.035(3) 0.076(4) 0.054(4) -0.012(3) -0.005(3) -0.026(3)
C44 0.048(4) 0.068(4) 0.058(4) 0.004(3) -0.020(3) -0.017(3)
C45 0.066(4) 0.065(4) 0.064(4) 0.017(3) -0.029(3) -0.034(3)
C46 0.048(3) 0.055(4) 0.052(3) 0.004(3) -0.012(3) -0.028(3)
N5 0.032(2) 0.063(3) 0.034(2) -0.015(2) 0.0021(18) -0.019(2)
O1 0.093(8) 0.129(9) 0.044(5) 0.007(5) -0.001(5) -0.073(7)
C38 0.041(6) 0.041(6) 0.043(6) 0.002(5) -0.007(5) -0.023(5)
O1B 0.045(5) 0.118(8) 0.053(5) 0.033(5) -0.021(4) -0.036(5)
C38B 0.050(7) 0.045(7) 0.064(8) 0.021(6) -0.024(6) -0.025(5)
N1S 0.059(4) 0.040(3) 0.148(6) -0.040(4) -0.004(4) 0.012(3)
C1S 0.065(5) 0.061(5) 0.153(9) -0.048(5) 0.004(5) 0.016(4)
C2S 0.066(5) 0.062(5) 0.262(13) -0.058(7) 0.094(7) -0.047(4)
loop_
_atom_type_symbol
_atom_type_description
_atom_type_scat_dispersion_real
_atom_type_scat_dispersion_imag
_atom_type_scat_source
C C 0.0033 0.0016 'International Tables Vol C Tables 4.2.6.8 and 6.1.1.4'
H H 0.0000 0.0000 'International Tables Vol C Tables 4.2.6.8 and 6.1.1.4'
N N 0.0061 0.0033 'International Tables Vol C Tables 4.2.6.8 and 6.1.1.4'
O O 0.0106 0.0060 'International Tables Vol C Tables 4.2.6.8 and 6.1.1.4'
Zn Zn 0.2839 1.4301 'International Tables Vol C Tables 4.2.6.8 and 6.1.1.4'
loop_
_geom_angle_atom_site_label_1
_geom_angle_atom_site_label_2
_geom_angle_atom_site_label_3
_geom_angle
_geom_angle_site_symmetry_1
N1 Zn1 N4 87.47(14) .
N1 Zn1 N2 89.81(14) .
N4 Zn1 N2 160.38(15) .
N1 Zn1 N3 160.32(14) .
N4 Zn1 N3 89.05(14) .
N2 Zn1 N3 87.00(14) .
N1 Zn1 N5 105.43(15) .
N4 Zn1 N5 108.72(16) .
N2 Zn1 N5 90.73(16) .
N3 Zn1 N5 94.03(16) .
C4 N1 C1 106.3(3) .
C4 N1 Zn1 125.3(3) .
C1 N1 Zn1 128.3(3) .
C6 N2 C9 106.1(4) .
C6 N2 Zn1 124.9(3) .
C9 N2 Zn1 127.4(3) .
C14 N3 C11 106.4(4) .
C14 N3 Zn1 126.3(3) .
C11 N3 Zn1 126.9(3) .
C16 N4 C19 107.0(3) .
C16 N4 Zn1 125.8(3) .
C19 N4 Zn1 127.2(3) .
N1 C1 C20 124.3(4) .
N1 C1 C2 109.4(4) .
C20 C1 C2 126.3(4) .
C3 C2 C1 106.9(4) .
C3 C2 C21 124.3(4) .
C1 C2 C21 128.0(4) .
C2 C3 C4 106.7(4) .
C2 C3 C23 128.4(4) .
C4 C3 C23 124.6(4) .
N1 C4 C5 125.0(4) .
N1 C4 C3 110.6(4) .
C5 C4 C3 124.4(4) .
C6 C5 C4 128.0(4) .
C6 C5 H5A 116.0 .
C4 C5 H5A 116.0 .
N2 C6 C5 124.2(4) .
N2 C6 C7 110.1(4) .
C5 C6 C7 125.6(4) .
C8 C7 C6 106.8(4) .
C8 C7 C25 128.3(4) .
C6 C7 C25 124.8(4) .
C7 C8 C9 106.6(4) .
C7 C8 C27 127.6(4) .
C9 C8 C27 125.8(4) .
N2 C9 C10 123.8(4) .
N2 C9 C8 110.3(4) .
C10 C9 C8 125.9(4) .
C11 C10 C9 127.5(4) .
C11 C10 H10A 116.3 .
C9 C10 H10A 116.3 .
N3 C11 C10 124.4(4) .
N3 C11 C12 109.5(4) .
C10 C11 C12 126.0(4) .
C13 C12 C11 107.3(4) .
C13 C12 C29 127.4(4) .
C11 C12 C29 125.2(4) .
C12 C13 C14 106.3(4) .
C12 C13 C31 128.1(4) .
C14 C13 C31 125.4(4) .
N3 C14 C15 124.7(4) .
N3 C14 C13 110.4(4) .
C15 C14 C13 124.9(4) .
C16 C15 C14 127.0(4) .
C16 C15 H15A 116.5 .
C14 C15 H15A 116.5 .
N4 C16 C15 126.1(4) .
N4 C16 C17 109.9(4) .
C15 C16 C17 124.0(4) .
C18 C17 C16 108.0(4) .
C18 C17 C33 127.5(4) .
C16 C17 C33 124.4(4) .
C17 C18 C19 105.8(4) .
C17 C18 C35 125.0(4) .
C19 C18 C35 128.2(4) .
N4 C19 C20 124.6(4) .
N4 C19 C18 109.3(4) .
C20 C19 C18 126.1(4) .
C1 C20 C19 124.7(4) .
C1 C20 C37 117.6(4) .
C19 C20 C37 117.6(4) .
C2 C21 C22 112.1(4) .
C2 C21 H21A 109.2 .
C22 C21 H21A 109.2 .
C2 C21 H21B 109.2 .
C22 C21 H21B 109.2 .
H21A C21 H21B 107.9 .
C21 C22 H22A 109.5 .
C21 C22 H22B 109.5 .
H22A C22 H22B 109.5 .
C21 C22 H22C 109.5 .
H22A C22 H22C 109.5 .
H22B C22 H22C 109.5 .
C3 C23 C24 112.4(4) .
C3 C23 H23A 109.1 .
C24 C23 H23A 109.1 .
C3 C23 H23B 109.1 .
C24 C23 H23B 109.1 .
H23A C23 H23B 107.9 .
C23 C24 H24A 109.5 .
C23 C24 H24B 109.5 .
H24A C24 H24B 109.5 .
C23 C24 H24C 109.5 .
H24A C24 H24C 109.5 .
H24B C24 H24C 109.5 .
C7 C25 C26 111.2(4) .
C7 C25 H25A 109.4 .
C26 C25 H25A 109.4 .
C7 C25 H25B 109.4 .
C26 C25 H25B 109.4 .
H25A C25 H25B 108.0 .
C25 C26 H26A 109.5 .
C25 C26 H26B 109.5 .
H26A C26 H26B 109.5 .
C25 C26 H26C 109.5 .
H26A C26 H26C 109.5 .
H26B C26 H26C 109.5 .
C28 C27 C8 113.9(4) .
C28 C27 H27A 108.8 .
C8 C27 H27A 108.8 .
C28 C27 H27B 108.8 .
C8 C27 H27B 108.8 .
H27A C27 H27B 107.7 .
C27 C28 H28A 109.5 .
C27 C28 H28B 109.5 .
H28A C28 H28B 109.5 .
C27 C28 H28C 109.5 .
H28A C28 H28C 109.5 .
H28B C28 H28C 109.5 .
C30 C29 C12 113.4(4) .
C30 C29 H29A 108.9 .
C12 C29 H29A 108.9 .
C30 C29 H29B 108.9 .
C12 C29 H29B 108.9 .
H29A C29 H29B 107.7 .
C29 C30 H30A 109.5 .
C29 C30 H30B 109.5 .
H30A C30 H30B 109.5 .
C29 C30 H30C 109.5 .
H30A C30 H30C 109.5 .
H30B C30 H30C 109.5 .
C13 C31 C32 111.2(4) .
C13 C31 H31A 109.4 .
C32 C31 H31A 109.4 .
C13 C31 H31B 109.4 .
C32 C31 H31B 109.4 .
H31A C31 H31B 108.0 .
C31 C32 H32A 109.5 .
C31 C32 H32B 109.5 .
H32A C32 H32B 109.5 .
C31 C32 H32C 109.5 .
H32A C32 H32C 109.5 .
H32B C32 H32C 109.5 .
C34 C33 C17 113.5(4) .
C34 C33 H33A 108.9 .
C17 C33 H33A 108.9 .
C34 C33 H33B 108.9 .
C17 C33 H33B 108.9 .
H33A C33 H33B 107.7 .
C33 C34 H34A 109.5 .
C33 C34 H34B 109.5 .
H34A C34 H34B 109.5 .
C33 C34 H34C 109.5 .
H34A C34 H34C 109.5 .
H34B C34 H34C 109.5 .
C18 C35 C36 112.2(4) .
C18 C35 H35A 109.2 .
C36 C35 H35A 109.2 .
C18 C35 H35B 109.2 .
C36 C35 H35B 109.2 .
H35A C35 H35B 107.9 .
C35 C36 H36A 109.5 .
C35 C36 H36B 109.5 .
H36A C36 H36B 109.5 .
C35 C36 H36C 109.5 .
H36A C36 H36C 109.5 .
H36B C36 H36C 109.5 .
C37 C37 C20 122.3(5) 2_567
C37 C37 H37A 118.8 2_567
C20 C37 H37A 118.8 .
C38B C39 N5 110.4(7) .
C38 C39 N5 121.7(7) .
C38B C39 C40 121.4(9) .
C38 C39 C40 115.6(6) .
N5 C39 C40 110.6(5) .
C41 C40 C39 113.6(5) .
C41 C40 H40A 108.9 .
C39 C40 H40A 108.9 .
C41 C40 H40B 108.9 .
C39 C40 H40B 108.9 .
H40A C40 H40B 107.7 .
C42 C41 C46 118.4(5) .
C42 C41 C40 121.4(5) .
C46 C41 C40 120.2(5) .
C41 C42 C43 121.2(5) .
C41 C42 H42A 119.4 .
C43 C42 H42A 119.4 .
C44 C43 C42 119.4(5) .
C44 C43 H43A 120.3 .
C42 C43 H43A 120.3 .
C45 C44 C43 119.9(6) .
C45 C44 H44A 120.1 .
C43 C44 H44A 120.1 .
C44 C45 C46 120.6(6) .
C44 C45 H45A 119.7 .
C46 C45 H45A 119.7 .
C41 C46 C45 120.5(5) .
C41 C46 H46A 119.8 .
C45 C46 H46A 119.8 .
C39 N5 Zn1 123.5(4) .
C39 N5 H5B 106.5 .
Zn1 N5 H5B 106.5 .
C39 N5 H5C 106.5 .
Zn1 N5 H5C 106.5 .
H5B N5 H5C 106.5 .
C38 O1 H1A 109.5 .
O1 C38 C39 109.8(8) .
O1 C38 H38A 109.7 .
C39 C38 H38A 109.7 .
O1 C38 H38B 109.7 .
C39 C38 H38B 109.7 .
H38A C38 H38B 108.2 .
C38B O1B H1BA 109.5 .
C39 C38B O1B 117.9(10) .
C39 C38B H38C 107.8 .
O1B C38B H38C 107.8 .
C39 C38B H38D 107.8 .
O1B C38B H38D 107.8 .
H38C C38B H38D 107.2 .
N1S C1S C2S 168.1(12) .
C1S C2S H2SA 109.5 .
C1S C2S H2SB 109.5 .
H2SA C2S H2SB 109.5 .
C1S C2S H2SC 109.5 .
H2SA C2S H2SC 109.5 .
H2SB C2S H2SC 109.5 .
loop_
_geom_bond_atom_site_label_1
_geom_bond_atom_site_label_2
_geom_bond_distance
_geom_bond_site_symmetry_2
Zn1 N1 2.060(3) .
Zn1 N4 2.078(3) .
Zn1 N2 2.078(4) .
Zn1 N3 2.087(4) .
Zn1 N5 2.152(4) .
N1 C4 1.374(5) .
N1 C1 1.378(5) .
N2 C6 1.364(6) .
N2 C9 1.369(5) .
N3 C14 1.359(6) .
N3 C11 1.372(5) .
N4 C16 1.358(5) .
N4 C19 1.380(5) .
C1 C20 1.403(6) .
C1 C2 1.464(6) .
C2 C3 1.361(6) .
C2 C21 1.503(6) .
C3 C4 1.445(6) .
C3 C23 1.504(6) .
C4 C5 1.393(6) .
C5 C6 1.390(6) .
C5 H5A 0.9500 .
C6 C7 1.456(6) .
C7 C8 1.347(7) .
C7 C25 1.510(6) .
C8 C9 1.450(6) .
C8 C27 1.509(6) .
C9 C10 1.396(6) .
C10 C11 1.383(6) .
C10 H10A 0.9500 .
C11 C12 1.449(6) .
C12 C13 1.348(6) .
C12 C29 1.504(6) .
C13 C14 1.453(6) .
C13 C31 1.505(6) .
C14 C15 1.400(6) .
C15 C16 1.390(6) .
C15 H15A 0.9500 .
C16 C17 1.443(6) .
C17 C18 1.354(6) .
C17 C33 1.517(6) .
C18 C19 1.469(6) .
C18 C35 1.498(6) .
C19 C20 1.416(6) .
C20 C37 1.499(6) .
C21 C22 1.531(7) .
C21 H21A 0.9900 .
C21 H21B 0.9900 .
C22 H22A 0.9800 .
C22 H22B 0.9800 .
C22 H22C 0.9800 .
C23 C24 1.525(7) .
C23 H23A 0.9900 .
C23 H23B 0.9900 .
C24 H24A 0.9800 .
C24 H24B 0.9800 .
C24 H24C 0.9800 .
C25 C26 1.526(7) .
C25 H25A 0.9900 .
C25 H25B 0.9900 .
C26 H26A 0.9800 .
C26 H26B 0.9800 .
C26 H26C 0.9800 .
C27 C28 1.505(7) .
C27 H27A 0.9900 .
C27 H27B 0.9900 .
C28 H28A 0.9800 .
C28 H28B 0.9800 .
C28 H28C 0.9800 .
C29 C30 1.503(8) .
C29 H29A 0.9900 .
C29 H29B 0.9900 .
C30 H30A 0.9800 .
C30 H30B 0.9800 .
C30 H30C 0.9800 .
C31 C32 1.534(7) .
C31 H31A 0.9900 .
C31 H31B 0.9900 .
C32 H32A 0.9800 .
C32 H32B 0.9800 .
C32 H32C 0.9800 .
C33 C34 1.515(7) .
C33 H33A 0.9900 .
C33 H33B 0.9900 .
C34 H34A 0.9800 .
C34 H34B 0.9800 .
C34 H34C 0.9800 .
C35 C36 1.526(7) .
C35 H35A 0.9900 .
C35 H35B 0.9900 .
C36 H36A 0.9800 .
C36 H36B 0.9800 .
C36 H36C 0.9800 .
C37 C37 1.328(9) 2_567
C37 H37A 0.9500 .
C39 C38B 1.275(12) .
C39 C38 1.418(12) .
C39 N5 1.466(7) .
C39 C40 1.531(8) .
C40 C41 1.521(8) .
C40 H40A 0.9900 .
C40 H40B 0.9900 .
C41 C42 1.384(7) .
C41 C46 1.388(8) .
C42 C43 1.397(8) .
C42 H42A 0.9500 .
C43 C44 1.383(9) .
C43 H43A 0.9500 .
C44 C45 1.370(8) .
C44 H44A 0.9500 .
C45 C46 1.391(8) .
C45 H45A 0.9500 .
C46 H46A 0.9500 .
N5 H5B 0.9100 .
N5 H5C 0.9100 .
O1 C38 1.398(13) .
O1 H1A 0.8400 .
C38 H38A 0.9900 .
C38 H38B 0.9900 .
O1B C38B 1.421(15) .
O1B H1BA 0.8400 .
C38B H38C 0.9900 .
C38B H38D 0.9900 .
N1S C1S 1.310(11) .
C1S C2S 1.343(12) .
C2S H2SA 0.9800 .
C2S H2SB 0.9800 .
C2S H2SC 0.9800 .
