#------------------------------------------------------------------------------
#$Date: 2019-11-23 03:03:51 +0200 (Sat, 23 Nov 2019) $
#$Revision: 231955 $
#$URL: file:///home/coder/svn-repositories/cod/cif/4/34/67/4346750.cif $
#------------------------------------------------------------------------------
#
# This file is available in the Crystallography Open Database (COD),
# http://www.crystallography.net/
#
# All data on this site have been placed in the public domain by the
# contributors.
#
data_4346750
loop_
_publ_author_name
'Dey, Soumyajit'
'Sil, Debangsu'
'Pandit, Younis Ahmad'
'Rath, Sankar Prasad'
_publ_section_title
;
 Effect of Two Interacting Rings in Metalloporphyrin Dimers upon Stepwise
 Oxidations.
;
_journal_issue                   7
_journal_name_full               'Inorganic chemistry'
_journal_page_first              3229
_journal_page_last               3238
_journal_paper_doi               10.1021/acs.inorgchem.5b02065
_journal_volume                  55
_journal_year                    2016
_chemical_formula_sum            'C74 H92 F12 N8 O2 Sb2 Zn2'
_chemical_formula_weight         1727.79
_space_group_crystal_system      monoclinic
_space_group_IT_number           15
_space_group_name_Hall           '-C 2yc'
_space_group_name_H-M_alt        'C 1 2/c 1'
_atom_sites_solution_hydrogens   mixed
_audit_creation_method           SHELXL-2014
_cell_angle_alpha                90
_cell_angle_beta                 112.869(6)
_cell_angle_gamma                90
_cell_formula_units_Z            4
_cell_length_a                   27.198(9)
_cell_length_b                   13.915(5)
_cell_length_c                   21.678(5)
_cell_measurement_reflns_used    999
_cell_measurement_temperature    100(2)
_cell_measurement_theta_max      27.0
_cell_measurement_theta_min      2.5
_cell_volume                     7559(4)
_computing_cell_refinement       'Bruker SAINT'
_computing_data_collection       'Bruker APEX'
_computing_data_reduction        'Bruker SAINT'
_computing_molecular_graphics    'SHELXL 5.1, XP (Sheldrick, 1994)'
_computing_publication_material  SHELXS-97
_computing_structure_refinement  'SHELXL-2014 (Sheldrick, 2014)'
_computing_structure_solution    'SHELXS-97 (Sheldrick, 2008)'
_diffrn_ambient_temperature      100(2)
_diffrn_measured_fraction_theta_full 0.998
_diffrn_measured_fraction_theta_max 0.997
_diffrn_radiation_type           MoK\a
_diffrn_radiation_wavelength     0.71069
_diffrn_reflns_av_R_equivalents  0.0437
_diffrn_reflns_av_unetI/netI     0.0468
_diffrn_reflns_Laue_measured_fraction_full 0.998
_diffrn_reflns_Laue_measured_fraction_max 0.997
_diffrn_reflns_limit_h_max       32
_diffrn_reflns_limit_h_min       -31
_diffrn_reflns_limit_k_max       16
_diffrn_reflns_limit_k_min       -16
_diffrn_reflns_limit_l_max       12
_diffrn_reflns_limit_l_min       -26
_diffrn_reflns_number            19671
_diffrn_reflns_point_group_measured_fraction_full 0.998
_diffrn_reflns_point_group_measured_fraction_max 0.997
_diffrn_reflns_theta_full        25.000
_diffrn_reflns_theta_max         25.500
_diffrn_reflns_theta_min         1.625
_exptl_absorpt_coefficient_mu    1.413
_exptl_absorpt_correction_T_max  0.795
_exptl_absorpt_correction_T_min  0.724
_exptl_absorpt_correction_type   multi-scan
_exptl_absorpt_process_details   'SADABS 2.05 (Sheldrick, 2002)'
_exptl_crystal_colour            'dark red'
_exptl_crystal_density_diffrn    1.518
_exptl_crystal_description       block
_exptl_crystal_F_000             3512
_exptl_crystal_size_max          0.260
_exptl_crystal_size_mid          0.200
_exptl_crystal_size_min          0.160
_refine_diff_density_max         1.213
_refine_diff_density_min         -0.612
_refine_diff_density_rms         0.117
_refine_ls_extinction_method     none
_refine_ls_goodness_of_fit_ref   1.048
_refine_ls_hydrogen_treatment    mixed
_refine_ls_matrix_type           full
_refine_ls_number_parameters     483
_refine_ls_number_reflns         7016
_refine_ls_number_restraints     2
_refine_ls_restrained_S_all      1.047
_refine_ls_R_factor_all          0.0647
_refine_ls_R_factor_gt           0.0484
_refine_ls_shift/su_max          0.001
_refine_ls_shift/su_mean         0.000
_refine_ls_structure_factor_coef Fsqd
_refine_ls_weighting_details
'w=1/[\s^2^(Fo^2^)+(0.0565P)^2^+29.2838P] where P=(Fo^2^+2Fc^2^)/3'
_refine_ls_weighting_scheme      calc
_refine_ls_wR_factor_gt          0.1142
_refine_ls_wR_factor_ref         0.1237
_reflns_Friedel_coverage         0.000
_reflns_number_gt                5637
_reflns_number_total             7016
_reflns_threshold_expression     'I > 2\s(I)'
_cod_data_source_file            ic5b02065_si_002.cif
_cod_data_source_block           9augcm
_cod_original_sg_symbol_H-M      'C 2/c'
_cod_database_code               4346750
_shelx_space_group_comment
;
The symmetry employed for this shelxl refinement is uniquely defined
by the following loop, which should always be used as a source of
symmetry information in preference to the above space-group names.
They are only intended as comments.
;
_shelx_estimated_absorpt_t_min   0.710
_shelx_estimated_absorpt_t_max   0.805
_shelxl_version_number           2014-3
_shelx_res_file
;
TITL 9augcm in P -1              New: C2/c
CELL  0.71069   27.1980   13.9150   21.6780    90.000   112.869    90.000
ZERR        4    0.0090    0.0050    0.0050     0.000     0.006     0.000
LATT   7
SYMM             - X ,              Y ,    0.50000 - Z
SFAC  C    H    N    F    ZN   SB   O
UNIT  296  368  32   48   8    8    8
MERG   2
OMIT     4.00 180.00
omit -3 51.0
omit -27 5 20
omit 3 1 23
omit 7 1 21
omit 29 1 1
omit 29 3 1
omit 30 2 0
omit 30 0 0
omit -2 16 6
omit -13 11 19
omit 27 7 0
omit 0 16 7
omit 26 8 1
omit 2 16 6
TEMP -173.0
BOND $H
CONF
size 0.26 0.20 0.16 ! red block
bond $H
HTAB O1 F1
EQIV $1 -x+1, y, -z+1/2
HTAB O1 F5_$1
EQIV $2 -x+1/2, -y+1/2, -zHTAB

dfix 0.85 o1 h1a o1 h1b
plan 20
acta 50
LIST   1
L.S.   40
WGHT    0.056500   29.283800
FVAR       0.13295
ZN1   5    0.488802    0.232365    0.058013    11.00000    0.02752    0.02427 =
         0.02070    0.00171    0.01126   -0.00236
O1    7    0.485039    0.326242    0.131646    11.00000    0.02593    0.03245 =
         0.02762   -0.00502    0.01198   -0.00360
H1A   2    0.456234    0.311403    0.135299    11.00000   -1.50000
H1B   2    0.506719    0.333088    0.172299    11.00000   -1.50000
N1    3    0.539141    0.124761    0.115388    11.00000    0.03767    0.02523 =
         0.02495    0.00255    0.01719    0.00133
N2    3    0.552162    0.281052    0.037199    11.00000    0.03306    0.03078 =
         0.02806    0.00615    0.01772    0.00209
N3    3    0.437974    0.306493   -0.023097    11.00000    0.02821    0.03125 =
         0.02296    0.00004    0.00999   -0.00478
N4    3    0.424863    0.146205    0.055028    11.00000    0.03224    0.02740 =
         0.02147   -0.00058    0.00782   -0.01045
C1    1    0.525387    0.054167    0.146410    11.00000    0.04033    0.02276 =
         0.01878   -0.00161    0.01341    0.00044
C2    1    0.565296   -0.021284    0.168571    11.00000    0.05451    0.02642 =
         0.02928    0.00040    0.02482    0.00982
C3    1    0.605252    0.008322    0.150645    11.00000    0.05405    0.03653 =
         0.03503    0.00460    0.02880    0.01770
C4    1    0.589951    0.101905    0.118691    11.00000    0.04538    0.03506 =
         0.03512    0.00617    0.02824    0.00836
C5    1    0.619348    0.161370    0.097102    11.00000    0.04404    0.05543 =
         0.04849    0.02012    0.03503    0.02198
AFIX  43
H5A   2    0.655084    0.142071    0.106753    11.00000   -1.20000
AFIX   0
C6    1    0.602977    0.249054    0.061780    11.00000    0.04237    0.04162 =
         0.04982    0.01505    0.03528    0.00833
C7    1    0.636295    0.312960    0.042180    11.00000    0.03812    0.06419 =
         0.06033    0.02806    0.03535    0.01502
C8    1    0.604301    0.384693    0.005170    11.00000    0.03879    0.04142 =
         0.03732    0.00969    0.02338    0.00397
C9    1    0.551636    0.362385    0.000625    11.00000    0.03441    0.02963 =
         0.02973    0.00167    0.02070   -0.00250
C10   1    0.504650    0.408109   -0.040837    11.00000    0.03447    0.02688 =
         0.02511    0.00105    0.01335   -0.00206
AFIX  43
H10A  2    0.509009    0.465639   -0.061764    11.00000   -1.20000
AFIX   0
C11   1    0.452379    0.379851   -0.055232    11.00000    0.03502    0.02702 =
         0.02010    0.00120    0.01200   -0.00158
C12   1    0.406598    0.416669   -0.109270    11.00000    0.03520    0.02980 =
         0.02467    0.00000    0.01145   -0.00365
C13   1    0.363679    0.363847   -0.110580    11.00000    0.03596    0.03256 =
         0.02726    0.00169    0.01049    0.00152
C14   1    0.384487    0.295460   -0.055373    11.00000    0.03358    0.03164 =
         0.02203   -0.00382    0.00787   -0.00394
C15   1    0.354240    0.226145   -0.038089    11.00000    0.03286    0.04067 =
         0.02319   -0.00087    0.00383   -0.00733
AFIX  43
H15A  2    0.316986    0.226651   -0.064358    11.00000   -1.20000
AFIX   0
C16   1    0.371285    0.158167    0.011445    11.00000    0.03735    0.04033 =
         0.02477   -0.00202    0.00654   -0.01483
C17   1    0.338463    0.091386    0.030341    11.00000    0.04126    0.05066 =
         0.03465    0.00377    0.00776   -0.02423
C18   1    0.371796    0.043573    0.086170    11.00000    0.03837    0.04092 =
         0.02977    0.00067    0.00792   -0.01880
C19   1    0.425008    0.080825    0.100026    11.00000    0.03822    0.03017 =
         0.02223   -0.00471    0.01325   -0.01136
C20   1    0.475149    0.056869    0.156565    11.00000    0.03692    0.01771 =
         0.02661   -0.00249    0.01459   -0.00446
C21   1    0.558644   -0.117182    0.196274    11.00000    0.06043    0.02608 =
         0.03611    0.00541    0.02987    0.01028
AFIX  23
H21A  2    0.540087   -0.108484    0.227154    11.00000   -1.20000
H21B  2    0.594186   -0.145350    0.222003    11.00000   -1.20000
AFIX   0
C22   1    0.526621   -0.185348    0.140074    11.00000    0.08068    0.03194 =
         0.05979   -0.00625    0.03589   -0.00120
AFIX 137
H22A  2    0.520739   -0.245917    0.159248    11.00000   -1.50000
H22B  2    0.546376   -0.197980    0.111544    11.00000   -1.50000
H22C  2    0.492135   -0.156026    0.113255    11.00000   -1.50000
AFIX   0
C23   1    0.656070   -0.043790    0.160516    11.00000    0.06988    0.04312 =
         0.05741    0.01944    0.04231    0.03058
AFIX  23
H23A  2    0.648971   -0.113773    0.156512    11.00000   -1.20000
H23B  2    0.668029   -0.024854    0.124553    11.00000   -1.20000
AFIX   0
C24   1    0.699559   -0.023619    0.226485    11.00000    0.03700    0.05768 =
         0.10251   -0.03176    0.03020   -0.00226
AFIX 137
H24A  2    0.732631   -0.053970    0.228383    11.00000   -1.50000
H24B  2    0.689845   -0.049554    0.262251    11.00000   -1.50000
H24C  2    0.704881    0.045970    0.232326    11.00000   -1.50000
AFIX   0
PART   1
C25   1    0.692738    0.294346    0.055844    10.69000    0.03364    0.02623 =
         0.04452   -0.00155    0.02634   -0.00036
AFIX  23
H25A  2    0.701685    0.319049    0.018647    10.69000   -1.20000
H25B  2    0.699828    0.224364    0.060043    10.69000   -1.20000
AFIX   0
C26   1    0.726698    0.345108    0.121210    10.69000    0.02724    0.05792 =
         0.04137    0.00324    0.01712   -0.00295
AFIX 137
H26A  2    0.764467    0.330579    0.132532    10.69000   -1.50000
H26B  2    0.716308    0.322581    0.157257    10.69000   -1.50000
H26C  2    0.721062    0.414667    0.115693    10.69000   -1.50000
AFIX   0
PART   2
C25A  1    0.702418    0.330467    0.083445    10.31000    0.03233
AFIX  23
H25C  2    0.712590    0.398479    0.081966    10.31000   -1.20000
H25D  2    0.715083    0.308667    0.130553    10.31000   -1.20000
AFIX   0
C26A  1    0.722194    0.266735    0.041910    10.31000    0.05217
AFIX 137
H26D  2    0.761243    0.269494    0.059266    10.31000   -1.50000
H26E  2    0.707389    0.288764   -0.004689    10.31000   -1.50000
H26F  2    0.710833    0.200428    0.044094    10.31000   -1.50000
AFIX   0
PART   0
C27   1    0.618533    0.465649   -0.030808    11.00000    0.03397    0.04987 =
         0.04542    0.01555    0.02169   -0.00169
AFIX  23
H27A  2    0.656326    0.483792   -0.005962    11.00000   -1.20000
H27B  2    0.596171    0.522318   -0.032008    11.00000   -1.20000
AFIX   0
C28   1    0.610221    0.437464   -0.102070    11.00000    0.06242    0.05831 =
         0.05273    0.01559    0.03897   -0.00599
AFIX 137
H28A  2    0.619596    0.491751   -0.124182    11.00000   -1.50000
H28B  2    0.572742    0.420162   -0.126915    11.00000   -1.50000
H28C  2    0.632978    0.382344   -0.100965    11.00000   -1.50000
AFIX   0
C29   1    0.408188    0.492428   -0.157686    11.00000    0.03868    0.03199 =
         0.02809    0.00702    0.00969    0.00601
AFIX  23
H29A  2    0.430476    0.546801   -0.132548    11.00000   -1.20000
H29B  2    0.371633    0.516953   -0.182721    11.00000   -1.20000
AFIX   0
C30   1    0.431040    0.453087   -0.207670    11.00000    0.05384    0.03882 =
         0.03661    0.00888    0.02237    0.00144
AFIX 137
H30A  2    0.431104    0.504222   -0.238724    11.00000   -1.50000
H30B  2    0.408898    0.399562   -0.232891    11.00000   -1.50000
H30C  2    0.467623    0.430503   -0.183124    11.00000   -1.50000
AFIX   0
C31   1    0.307243    0.371122   -0.160528    11.00000    0.03366    0.03808 =
         0.03468    0.00813    0.00523    0.00058
AFIX  23
H31A  2    0.298343    0.439611   -0.171726    11.00000   -1.20000
H31B  2    0.282987    0.346138   -0.140074    11.00000   -1.20000
AFIX   0
C32   1    0.297907    0.315885   -0.224330    11.00000    0.05572    0.05980 =
         0.04965   -0.01282   -0.01005    0.01055
AFIX 137
H32A  2    0.260365    0.321680   -0.254730    11.00000   -1.50000
H32B  2    0.306700    0.248000   -0.213592    11.00000   -1.50000
H32C  2    0.320618    0.342244   -0.245938    11.00000   -1.50000
AFIX   0
PART   1
C33A  1    0.276175    0.088570   -0.001067    10.62000    0.02512    0.02369 =
         0.05486   -0.00033    0.01917   -0.00112
AFIX  23
H33A  2    0.262137    0.084139    0.034681    10.62000   -1.20000
H33B  2    0.262018    0.147907   -0.027130    10.62000   -1.20000
AFIX   0
C34A  1    0.258908    0.000774   -0.046797    10.62000    0.02505    0.05686 =
         0.04277   -0.01682    0.01404   -0.01600
AFIX 137
H34A  2    0.220062    0.001540   -0.070918    10.62000   -1.50000
H34B  2    0.269494   -0.057865   -0.019792    10.62000   -1.50000
H34C  2    0.276090    0.002328   -0.079016    10.62000   -1.50000
AFIX   0
PART   2
C33B  1    0.286016    0.059199   -0.012783    10.38000    0.03627
AFIX  23
H33C  2    0.281062   -0.010157   -0.006782    10.38000   -1.20000
H33D  2    0.278623    0.072210   -0.060465    10.38000   -1.20000
AFIX   0
C34B  1    0.252071    0.120078    0.012130    10.38000    0.04180
AFIX 137
H34D  2    0.214316    0.108248   -0.015285    10.38000   -1.50000
H34E  2    0.260259    0.188068    0.009093    10.38000   -1.50000
H34F  2    0.259456    0.103698    0.058862    10.38000   -1.50000
AFIX   0
PART   0
C35   1    0.356653   -0.034843    0.123269    11.00000    0.03668    0.04501 =
         0.04062    0.00445    0.01001   -0.01989
AFIX  23
H35A  2    0.317286   -0.037058    0.107611    11.00000   -1.20000
H35B  2    0.371212   -0.018964    0.171580    11.00000   -1.20000
AFIX   0
C36   1    0.376641   -0.132874    0.114181    11.00000    0.07792    0.04799 =
         0.05397    0.00049    0.02960   -0.02214
AFIX 137
H36A  2    0.365815   -0.180424    0.139812    11.00000   -1.50000
H36B  2    0.415655   -0.131651    0.130201    11.00000   -1.50000
H36C  2    0.361432   -0.150194    0.066628    11.00000   -1.50000
AFIX   0
C37   1    0.476065    0.050258    0.219944    11.00000    0.03602    0.01824 =
         0.02697    0.00108    0.01585   -0.00255
AFIX  43
H37A  2    0.442854    0.045330    0.224643    11.00000   -1.20000
AFIX   0
SB1   6    0.351879    0.285804    0.198564    11.00000    0.03473    0.04076 =
         0.02908   -0.00449    0.01142   -0.00651
F1    4    0.381790    0.294316    0.134053    11.00000    0.05195    0.05853 =
         0.06427   -0.00182    0.03990   -0.00675
F2    4    0.285133    0.259851    0.132455    11.00000    0.03073    0.08088 =
         0.06173   -0.00125    0.00415   -0.01810
F3    4    0.336765    0.417338    0.188768    11.00000    0.06644    0.04473 =
         0.05514    0.00207    0.03096    0.00375
F4    4    0.325105    0.281311    0.265100    11.00000    0.14656    0.06726 =
         0.06330   -0.00087    0.07330   -0.00162
F5    4    0.420111    0.311882    0.263419    11.00000    0.06305    0.06298 =
         0.07189    0.00475   -0.02978   -0.01555
F6    4    0.365886    0.155162    0.209202    11.00000    0.06248    0.03441 =
         0.05815   -0.00469    0.02987   -0.00753

HKLF 4 1 -1.0000 -2.0000  0.0000 -1.0000  0.0000  0.0000  0.0000  0.0000 -1.0000

REM  9augcm in P -1              New: C2/c
REM R1 =  0.0484 for    5637 Fo > 4sig(Fo)  and  0.0647 for all    7016 data
REM    483 parameters refined using      2 restraints

END

WGHT      0.0565     29.2724

REM Highest difference peak  1.213,  deepest hole -0.612,  1-sigma level  0.117
Q1    1   0.3530  0.3405  0.2283  11.00000  0.05    1.21
Q2    1   0.5009  0.3610  0.2086  11.00000  0.05    1.21
Q3    1   0.4910  0.2768  0.0914  11.00000  0.05    1.15
Q4    1   0.3560  0.3474  0.1692  11.00000  0.05    0.97
Q5    1   0.7828  0.2203  0.1587  11.00000  0.05    0.81
Q6    1   0.4899  0.3416  0.0586  11.00000  0.05    0.76
Q7    1   0.3600  0.2176  0.2307  11.00000  0.05    0.67
Q8    1   0.3050  0.2745  0.0438  11.00000  0.05    0.66
Q9    1   0.3502  0.2375  0.1628  11.00000  0.05    0.61
Q10   1   0.4309  0.2862  0.2289  11.00000  0.05    0.60
Q11   1   0.3667  0.2865  0.2610  11.00000  0.05    0.59
Q12   1   0.3465  0.1850  0.1912  11.00000  0.05    0.56
Q13   1   0.6435  0.3464  0.0746  11.00000  0.05    0.56
Q14   1   0.3779  0.2829  0.1893  11.00000  0.05    0.50
Q15   1   0.3682  0.1808  0.1773  11.00000  0.05    0.49
Q16   1   0.3619  0.1977  0.1289  11.00000  0.05    0.48
Q17   1   0.3304  0.2901  0.1399  11.00000  0.05    0.48
Q18   1   0.6244  0.2804 -0.0888  11.00000  0.05    0.47
Q19   1   0.3529  0.0417  0.0507  11.00000  0.05    0.46
Q20   1   0.3630  0.0174  0.1006  11.00000  0.05    0.44
;
_shelx_res_checksum              84302
_shelx_hkl_file
;
   1   0   0   57.64    2.40
   1   0   0   60.96    3.00
  -1   0   0   61.11    2.54
  -2   0   0   19.34    2.11
   2   0   0   15.61    1.84
   2   0   0   23.37    2.69
   3   0   0 2039.29   54.35
   3   0   0 2114.53   61.80
  -3   0   0 2096.32   55.24
  -4   0   0    1.97    2.00
   4   0   0    3.68    1.95
   4   0   0    4.06    2.68
   5   0   0  410.85   17.87
  -5   0   0  452.01   15.94
   6   0   0  680.10   26.10
  -6   0   0  665.24   22.86
   7   0   0  137.56   10.79
  -7   0   0  161.26    9.61
   8   0   0    5.56    4.79
  -8   0   0    7.28    3.93
  -9   0   0  259.96   14.19
 -10   0   0  150.33   11.49
 -11   0   0  282.74   16.43
 -12   0   0   77.72   10.38
 -13   0   0    7.97    6.41
 -14   0   0   51.62   10.45
 -15   0   0   30.24    8.25
 -16   1   0  104.33   13.68
 -15   1   0   22.14    7.97
 -14   1   0    4.97    6.74
 -13   1   0   79.63   10.76
 -12   1   0  476.43   22.70
 -11   1   0  258.14   15.23
 -10   1   0   45.56    7.14
  10  -1   0   68.22   10.09
   9  -1   0  256.18   16.27
  -9   1   0  248.54   13.65
  -8   1   0   41.75    5.92
   8  -1   0   29.87    6.99
  -7   1   0 1044.50   32.96
   7  -1   0 1068.45   38.11
  -6   1   0  412.70   15.33
   6  -1   0  380.74   17.66
   5  -1   0 2065.69   63.36
  -5   1   0 2052.08   56.01
   4  -1   0    9.18    3.08
  -4   1   0   12.74    2.61
   3  -1   0 1134.22   36.48
  -3   1   0 1232.40   32.29
  -2   1   0 5740.11  145.71
   2  -1   0 5792.33  162.32
  -1   1   0   66.51    2.49
   1  -1   0   62.71    2.90
   0   1   0 3551.05   85.93
   0   1   0 3150.49   85.35
   1   1   0  171.15    6.33
  -1  -1   0  161.92    5.96
   2   1   0   31.24    3.00
  -2  -1   0   30.44    2.77
   2   1   0   33.05    3.25
  -3  -1   0  690.16   21.09
   3   1   0  698.60   23.45
   3   1   0  696.54   21.02
  -4  -1   0 1350.91   39.04
   4   1   0 1361.67   38.63
   4   1   0 1398.96   43.52
  -5  -1   0    3.39    2.40
   5   1   0   -0.18    2.73
  -6  -1   0   52.51    5.88
  -7  -1   0  420.09   17.59
  -8  -1   0  127.75   10.04
  -9  -1   0  715.82   27.34
 -10  -1   0   70.53    9.00
 -11  -1   0    1.99    5.25
 -12  -1   0   19.01    7.40
 -13  -1   0   37.96    9.23
 -14  -1   0   19.04    8.31
 -15  -1   0   -5.30    7.40
 -16   2   0   12.18    7.17
 -15   2   0   26.51    7.93
 -14   2   0  126.51   12.92
 -13   2   0  131.57   12.07
 -12   2   0    1.38    5.26
  11  -2   0   69.13   10.85
 -11   2   0   66.89    8.69
 -10   2   0   -1.68    3.99
  10  -2   0    6.73    6.17
   9  -2   0  166.64   13.37
  -9   2   0  205.35   11.69
   8  -2   0  178.48   12.90
  -8   2   0  192.11   10.70
   7  -2   0 3416.73  106.32
  -7   2   0 3649.02   94.78
  -6   2   0  158.97    8.17
   6  -2   0  133.19    9.96
  -5   2   0  801.47   23.71
   5  -2   0  761.01   27.78
  -4   2   0 1496.58   39.77
   4  -2   0 1429.34   45.39
  -3   2   0 1257.88   33.58
   3  -2   0 1246.47   38.31
   2  -2   0   19.01    2.25
  -2   2   0   23.06    1.97
   1  -2   0  165.79    6.20
  -1   2   0  181.08    6.13
   0   2   0 6349.46  153.54
   0   2   0 5775.01  153.03
   1   2   0  209.07    8.00
  -1  -2   0  191.55    7.28
  -1  -2   0  193.08    7.42
   2   2   0 4077.68  102.96
  -2  -2   0 3875.32  102.46
  -3  -2   0    2.75    1.98
   3   2   0    2.84    2.26
  -4  -2   0  643.20   21.20
   4   2   0  637.71   21.39
   5   2   0  613.56   21.40
  -5  -2   0  595.31   21.27
  -6  -2   0   49.06    6.14
  -7  -2   0  553.65   21.83
  -8  -2   0    9.42    4.97
  -9  -2   0    0.73    4.51
 -10  -2   0   14.06    6.10
 -11  -2   0    8.50    5.61
 -12  -2   0   -3.11    5.76
 -13  -2   0   55.83   10.60
 -14  -2   0   -0.31    4.89
 -16   3   0   38.21    9.77
 -15   3   0   -1.72    6.31
 -14   3   0   24.03    7.98
 -13   3   0   10.94    6.18
 -12   3   0   83.09    9.69
  12  -3   0  100.54   13.07
 -11   3   0  181.20   12.27
  11  -3   0  194.00   15.51
  10  -3   0  308.92   19.20
 -10   3   0  329.53   15.82
   9  -3   0 1528.03   53.54
  -9   3   0 1537.37   46.31
  -8   3   0   58.10    6.15
   8  -3   0   43.85    7.77
   7  -3   0  491.73   21.51
  -7   3   0  489.91   17.80
   6  -3   0  254.20   13.75
  -6   3   0  268.04   11.07
   5  -3   0  760.83   27.50
  -5   3   0  800.58   23.45
   4  -3   0   10.41    2.90
  -4   3   0   13.81    2.45
   3  -3   0 2224.77   65.21
  -3   3   0 2230.53   58.18
  -2   3   0   26.78    2.53
  -2   3   0   29.11    2.59
   2  -3   0   30.28    2.96
  -1   3   0  221.50    8.00
  -1   3   0  207.85    7.65
   0   3   0 2681.57   68.16
   0   3   0 2515.32   67.41
   1   3   0   10.35    2.63
  -1  -3   0    6.79    2.20
  -1  -3   0    7.79    2.29
   2   3   0 1152.71   33.10
  -2  -3   0 1090.25   32.21
  -3  -3   0  307.17   12.19
   3   3   0  285.97   12.52
  -4  -3   0   52.83    5.34
   4   3   0   46.75    5.66
  -5  -3   0  784.51   26.52
  -6  -3   0  312.33   15.02
  -7  -3   0   48.89    7.23
  -8  -3   0   21.55    5.95
  -9  -3   0    7.69    5.16
 -10  -3   0   61.81    9.70
 -11  -3   0   15.61    7.52
 -12  -3   0   23.65    8.30
 -13  -3   0   -1.66    6.44
 -14  -3   0   16.27    6.95
 -17   4   0   15.14    8.32
 -16   4   0   36.01    9.65
 -15   4   0   93.96   12.02
 -14   4   0   23.73    8.02
 -13   4   0    5.16    5.68
  13  -4   0    3.39    8.42
  12  -4   0  217.68   17.47
 -12   4   0  228.93   14.37
  11  -4   0  658.00   30.82
 -11   4   0  632.13   25.12
  10  -4   0  132.80   12.60
 -10   4   0  124.03    9.66
   9  -4   0   94.51   10.28
  -9   4   0   84.98    8.12
  -8   4   0    7.51    3.40
   8  -4   0   -1.24    4.23
  -7   4   0  486.07   17.43
   7  -4   0  490.07   21.59
   6  -4   0  101.80    8.72
  -6   4   0  150.97    7.70
   5  -4   0 2089.54   65.42
  -5   4   0 2212.40   57.81
  -4   4   0    6.91    2.04
   4  -4   0    2.23    2.23
   3  -4   0  758.47   24.78
  -3   4   0  788.90   21.38
  -3   4   0  754.74   22.31
  -2   4   0 3937.10  102.42
   2  -4   0 4041.00  112.96
  -1   4   0    6.97    2.30
  -1   4   0    7.50    2.23
   0   4   0 3002.06   80.36
   0   4   0 3154.30   81.19
  -1  -4   0    3.79    2.38
  -1  -4   0    7.67    2.62
   1   4   0    2.60    2.25
  -2  -4   0  163.84    8.42
   2   4   0  163.53    9.21
  -2  -4   0  168.34    8.34
  -3  -4   0  373.78   14.80
   3   4   0  369.44   15.54
   4   4   0  152.97    9.98
  -4  -4   0  163.53    9.48
  -5  -4   0  270.43   13.37
  -6  -4   0   58.02    7.31
  -7  -4   0    6.44    4.94
  -8  -4   0   31.22    7.47
  -9  -4   0  305.09   17.87
 -10  -4   0    5.19    6.09
 -11  -4   0   12.48    7.67
 -12  -4   0   75.84   12.31
 -13  -4   0   -1.32    4.43
 -17   5   0  134.06   14.92
 -16   5   0   80.04   12.25
 -15   5   0   12.79    7.03
 -14   5   0  179.75   14.34
  14  -5   0  179.47   17.88
  13  -5   0  102.58   14.34
 -13   5   0   82.50   10.23
  12  -5   0   16.25    7.15
 -12   5   0    8.13    5.49
  11  -5   0  194.65   15.23
 -11   5   0  194.36   12.52
  10  -5   0   26.33    7.47
 -10   5   0   27.95    5.75
  -9   5   0   94.37    8.06
   9  -5   0   98.64   10.66
   8  -5   0   37.90    7.26
  -8   5   0   47.56    5.56
   7  -5   0 3772.64  115.06
  -7   5   0 3919.45  101.82
  -6   5   0  459.19   15.45
   6  -5   0  378.81   17.95
  -5   5   0  451.68   15.27
   5  -5   0  430.32   17.80
  -4   5   0 1541.31   42.35
   4  -5   0 1467.03   46.89
  -4   5   0 1580.74   40.58
  -3   5   0   -1.14    1.57
  -3   5   0    2.79    1.77
   3  -5   0    3.79    1.99
  -2   5   0 1139.82   32.95
   2  -5   0 1128.86   34.82
  -2   5   0 1228.80   33.28
  -1   5   0    0.92    1.97
  -1   5   0    2.94    2.08
   0   5   0  296.78   12.58
   0   5   0  307.56   11.98
   1   5   0  213.07   10.55
  -1  -5   0  211.63    9.84
  -1  -5   0  197.07    9.80
   2   5   0    3.01    3.06
  -2  -5   0   10.29    3.08
  -2  -5   0    4.28    2.66
  -3  -5   0  113.31    8.14
   3   5   0  123.74    9.05
  -4  -5   0  524.64   20.62
   4   5   0  540.99   21.56
  -5  -5   0    6.08    4.06
  -6  -5   0  115.51   10.02
  -7  -5   0   84.99    9.73
  -8  -5   0   45.91    8.87
  -9  -5   0    3.47    6.06
 -10  -5   0  145.58   14.31
 -11  -5   0   41.19   10.61
 -12  -5   0    1.21    5.00
 -17   6   0   51.53   10.79
 -16   6   0   55.11   10.85
 -15   6   0    1.37    6.06
  15  -6   0    1.02    8.06
  14  -6   0   55.11   11.41
 -14   6   0   26.43    7.94
 -13   6   0   84.35   10.21
  13  -6   0  103.02   14.11
  12  -6   0  323.90   20.59
 -12   6   0  291.40   16.34
  11  -6   0  195.94   15.63
 -11   6   0  212.73   12.89
  10  -6   0  118.23   11.65
 -10   6   0  128.24    9.47
  -9   6   0 1624.97   48.72
   9  -6   0 1685.41   57.54
  -8   6   0  206.56   10.63
   8  -6   0  199.68   13.41
  -7   6   0 1055.15   32.60
   7  -6   0 1125.83   38.79
  -6   6   0  753.21   24.25
   6  -6   0  775.05   28.31
  -5   6   0    0.46    2.20
   5  -6   0    1.08    2.48
  -4   6   0  718.30   22.79
  -4   6   0  751.85   21.73
   4  -6   0  719.30   24.93
   3  -6   0  292.97   11.85
  -3   6   0  305.25   11.73
  -2   6   0  168.25    8.17
  -2   6   0  182.99    8.67
   2  -6   0  151.46    7.25
  -1   6   0  185.59    9.06
  -1   6   0  206.28   10.06
   0   6   0   11.27    3.27
   0   6   0   20.80    4.00
  -1  -6   0    6.18    2.96
   1   6   0   10.88    3.74
  -1  -6   0   14.92    3.50
  -2  -6   0 1761.30   51.23
   2   6   0 1788.81   52.14
  -2  -6   0 1711.00   50.06
  -3  -6   0   24.74    4.82
   3   6   0   17.88    5.08
  -4  -6   0   46.53    6.76
  -5  -6   0  354.56   17.41
  -6  -6   0   62.03    8.61
  -7  -6   0   40.81    8.31
  -8  -6   0   29.11    8.27
  -9  -6   0   45.78    9.48
 -10  -6   0   -0.24    7.00
 -11  -6   0   -0.51    5.99
 -17   7   0    9.91    8.11
 -16   7   0   23.87    9.12
  16  -7   0   42.51   11.76
  15  -7   0  164.35   18.47
 -15   7   0  137.85   14.04
  14  -7   0  209.60   17.93
 -14   7   0  166.88   14.10
  13  -7   0  116.00   14.65
 -13   7   0   93.28   10.49
 -12   7   0    0.06    4.99
  12  -7   0   15.69    7.01
  11  -7   0  724.83   32.64
 -11   7   0  704.61   26.54
  10  -7   0  337.28   19.76
 -10   7   0  322.62   15.51
   9  -7   0  178.46   13.77
  -9   7   0  202.11   11.10
   8  -7   0   39.39    7.05
  -8   7   0   34.64    5.09
  -7   7   0  161.29    9.09
   7  -7   0  163.67   11.33
  -6   7   0   43.83    5.12
   6  -7   0   42.24    6.05
   5  -7   0  621.99   23.23
  -5   7   0  639.68   21.03
  -4   7   0   45.53    4.40
  -4   7   0   45.83    4.78
   4  -7   0   46.23    4.85
   3  -7   0  375.44   13.95
  -3   7   0  343.32   13.87
  -3   7   0  371.30   14.10
  -2   7   0    4.01    2.61
  -2   7   0    3.06    2.68
  -1   7   0    3.54    3.27
  -1   7   0    9.18    3.46
   0   7   0 2811.59   76.78
   0   7   0 2717.16   75.36
  -1  -7   0    7.39    3.62
   1   7   0   -3.15    2.94
  -1  -7   0    6.65    3.45
  -2  -7   0    3.96    3.34
   2   7   0    0.32    3.28
  -2  -7   0   -0.98    2.79
  -3  -7   0  222.00   12.74
  -4  -7   0    3.56    3.85
  -5  -7   0    5.04    4.78
  -6  -7   0   53.80    8.86
  -7  -7   0   45.19    9.25
  -8  -7   0   82.24   11.74
  -9  -7   0   25.56    8.66
 -10  -7   0   -1.20    6.45
 -11  -7   0    4.47    5.66
 -18   8   0   15.46    9.28
 -17   8   0  138.96   15.24
  16  -8   0   69.06   13.86
 -16   8   0   44.85   10.10
 -15   8   0  144.74   14.20
  15  -8   0  180.03   19.46
 -14   8   0   23.98    7.74
  14  -8   0   22.53    8.90
  13  -8   0   93.58   13.63
 -13   8   0   97.44   10.64
  12  -8   0  257.72   18.73
 -12   8   0  255.21   14.90
  11  -8   0  229.50   16.47
 -11   8   0  204.23   12.64
  10  -8   0    6.49    5.51
 -10   8   0    3.77    3.87
  -9   8   0  268.21   13.51
   9  -8   0  296.12   17.26
   8  -8   0    8.98    4.65
  -8   8   0    4.42    3.38
   7  -8   0  450.57   20.33
  -7   8   0  446.00   17.27
   6  -8   0   41.29    6.20
  -6   8   0   52.46    5.64
   5  -8   0  870.18   29.60
  -5   8   0  826.66   27.12
   4  -8   0  146.65    8.64
  -4   8   0  158.07    8.89
  -3   8   0  124.44    7.93
   3  -8   0  115.67    7.05
  -3   8   0  135.41    8.32
  -2   8   0 1760.87   51.61
  -2   8   0 1855.70   52.59
  -1   8   0    0.35    3.14
  -1   8   0    1.37    3.12
   0   8   0   42.00    6.31
   0   8   0   35.03    5.55
  -1  -8   0   21.43    5.16
  -1  -8   0    9.96    4.03
   1   8   0    1.23    4.96
  -2  -8   0    7.45    4.16
  -2  -8   0    9.99    4.44
  -3  -8   0   75.40    8.66
  -4  -8   0  190.09   13.19
  -5  -8   0    2.25    5.21
  -6  -8   0    1.23    5.42
  -7  -8   0  112.58   12.91
  -8  -8   0    0.66    6.94
  -9  -8   0    5.57    7.80
 -10  -8   0   -1.36    4.61
 -18   9   0   28.76   10.21
  17  -9   0  173.38   20.20
 -17   9   0  121.90   14.38
  16  -9   0   41.28   12.04
 -16   9   0   15.69    7.85
  15  -9   0   -0.23    7.95
 -15   9   0    3.20    6.34
 -14   9   0  182.55   14.15
  14  -9   0  214.34   18.37
 -13   9   0    6.83    5.41
  13  -9   0   22.03    8.58
  12  -9   0  106.43   13.46
 -12   9   0  103.07   10.03
 -11   9   0   51.53    7.56
  11  -9   0   84.19   11.45
 -10   9   0   59.63    7.47
  10  -9   0   68.95   10.22
  -9   9   0  271.51   13.93
   9  -9   0  297.04   17.37
   8  -9   0  130.09   11.30
  -8   9   0  146.86    9.68
  -7   9   0  596.52   21.89
   7  -9   0  624.58   25.24
  -6   9   0  345.99   15.19
   6  -9   0  369.06   17.00
   5  -9   0  286.05   13.45
  -5   9   0  275.68   12.93
   4  -9   0  538.13   20.08
  -4   9   0  535.66   19.95
  -3   9   0   18.95    4.41
  -3   9   0   21.49    4.68
  -2   9   0    5.34    3.21
  -2   9   0    7.43    3.59
  -1   9   0    2.64    4.06
  -1   9   0   10.58    4.63
  -1  -9   0  159.64   10.80
  -1  -9   0  152.89   10.75
  -2  -9   0  375.79   18.26
  -2  -9   0  375.58   17.80
  -3  -9   0  118.01   10.56
  -4  -9   0   36.22    7.61
  -5  -9   0   90.45   11.31
  -6  -9   0   14.87    7.22
  -7  -9   0   -8.53    6.07
  -8  -9   0   10.86    7.69
  -9  -9   0   -5.17    4.90
  17 -10   0   24.38   11.44
 -17  10   0    2.74    6.62
  16 -10   0  114.58   16.71
 -16  10   0   75.97   11.76
  15 -10   0   11.71    9.93
 -15  10   0   20.76    7.34
 -14  10   0   38.24    8.62
  14 -10   0   36.06   10.83
 -13  10   0    7.25    5.44
  13 -10   0    3.42    7.99
 -12  10   0    9.31    5.39
  12 -10   0    4.61    6.24
  11 -10   0  282.54   18.92
 -11  10   0  251.05   14.56
  10 -10   0  147.45   13.39
 -10  10   0  139.36   10.42
   9 -10   0  855.32   33.64
  -9  10   0  749.40   27.90
  -8  10   0   10.15    4.38
   8 -10   0   14.93    5.58
  -7  10   0   60.13    7.15
   7 -10   0   61.47    7.73
   6 -10   0   66.41    7.42
  -6  10   0   57.33    7.01
  -5  10   0   13.70    4.72
   5 -10   0   11.01    3.69
  -4  10   0   52.24    6.80
  -3  10   0  227.11   12.59
  -2  10   0    9.19    4.80
  -1  10   0  161.80   10.99
   0 -10   0  350.50   17.60
   0 -10   0  355.29   17.45
  -1 -10   0   56.22    8.27
  -1 -10   0   58.71    8.07
  -2 -10   0    8.78    4.61
  -2 -10   0    5.87    4.88
  -3 -10   0  250.10   15.97
  -4 -10   0  203.29   15.07
  -5 -10   0    6.50    6.20
  -6 -10   0   -1.50    6.21
  -7 -10   0   28.83    8.61
  -8 -10   0   -0.87    4.64
  17 -11   0   82.96   15.23
 -17  11   0   64.82   10.76
 -16  11   0   62.50   10.97
  16 -11   0   92.41   15.67
 -15  11   0   75.51   11.06
  15 -11   0  107.29   16.05
  14 -11   0   17.29    9.84
 -14  11   0   28.93    8.01
 -13  11   0  108.34   11.36
  13 -11   0  122.45   14.87
  12 -11   0  535.74   28.54
 -12  11   0  564.95   23.97
  11 -11   0  340.21   20.88
 -11  11   0  302.85   16.34
  10 -11   0   87.40   11.02
 -10  11   0   72.70    8.52
   9 -11   0    7.24    5.71
  -9  11   0    3.21    4.33
  -8  11   0   13.16    5.14
   8 -11   0   16.31    5.80
   7 -11   0   17.88    5.55
  -7  11   0    8.86    4.52
  -6  11   0  127.89    9.90
  -5  11   0  376.70   17.31
  -4  11   0    0.57    3.87
  -3  11   0   76.25    8.47
  -2  11   0  401.78   18.72
  -1  11   0   61.13    8.19
   0 -11   0   33.66    7.13
   0 -11   0   26.08    6.53
  -1 -11   0   -3.91    4.15
  -1 -11   0   -2.34    4.21
  -2 -11   0  184.15   13.12
  -2 -11   0  156.75   12.95
  -3 -11   0   13.25    6.51
  -4 -11   0    8.89    6.25
  -5 -11   0  127.39   13.98
  -6 -11   0   -0.30    5.91
  -7 -11   0   -3.76    4.31
 -17  12   0  156.71   14.88
  17 -12   0  233.77   22.21
  16 -12   0   55.90   13.27
 -16  12   0   28.70    8.88
  15 -12   0   11.97    9.25
 -15  12   0    6.74    6.61
 -14  12   0  129.21   12.00
  14 -12   0  123.05   15.80
 -13  12   0   83.02   10.76
  13 -12   0  110.19   14.31
 -12  12   0   65.55    9.16
  12 -12   0   95.73   12.90
  11 -12   0    4.32    6.21
 -11  12   0   -6.97    4.60
  10 -12   0    5.81    6.45
 -10  12   0    8.00    5.43
  -9  12   0   -0.68    4.58
  -8  12   0   34.65    6.93
  -7  12   0   78.05    8.90
  -6  12   0   58.58    7.89
  -5  12   0    8.65    4.82
  -4  12   0  191.51   12.68
  -3  12   0   97.69    9.88
  -2  12   0   12.46    5.61
   0 -12   0  283.91   16.64
   0 -12   0  272.00   16.75
  -1 -12   0    2.43    5.07
  -1 -12   0   -0.21    4.70
  -2 -12   0   21.40    7.37
  -3 -12   0   31.38    8.53
  -4 -12   0   20.25    7.38
  -5 -12   0    1.96    4.57
  17 -13   0   14.55   11.71
 -17  13   0    6.75    8.02
 -16  13   0   35.77    8.40
  16 -13   0   53.16   13.12
 -15  13   0   14.96    7.56
  15 -13   0   34.07   10.34
  14 -13   0   -3.04    8.45
 -14  13   0    3.83    6.04
 -13  13   0    5.87    5.72
  13 -13   0    3.96    8.16
 -12  13   0   23.50    7.34
 -11  13   0   15.19    6.77
 -10  13   0   49.60    8.46
  -9  13   0  303.56   16.46
  -8  13   0   45.35    8.02
  -7  13   0   52.26    8.33
  -6  13   0   57.17    8.51
  -5  13   0    6.17    5.17
  -4  13   0   34.99    7.62
  -3  13   0  252.55   15.56
  -2  13   0  173.65   13.21
   1 -13   0    0.98    5.56
   1 -13   0    0.28    4.95
   0 -13   0   26.80    7.66
   0 -13   0   13.84    6.57
  -1 -13   0    8.39    6.58
  -1 -13   0    9.49    6.16
  -2 -13   0   13.86    7.11
  -3 -13   0    1.86    6.45
  -4 -13   0    3.65    4.42
  17 -14   0   -1.40   10.64
  16 -14   0   36.19   11.79
 -16  14   0   -1.61    5.17
 -15  14   0   28.16    8.36
 -14  14   0   41.65    8.77
 -13  14   0   37.08    8.68
 -12  14   0    5.55    5.87
 -11  14   0   26.03    7.66
 -10  14   0   -1.67    4.99
  -9  14   0   -3.39    5.11
  -8  14   0   36.21    8.05
  -7  14   0   34.08    8.06
  -6  14   0    2.02    5.37
  -5  14   0   78.03   10.10
  -4  14   0  210.59   14.75
  -3  14   0   22.91    7.72
  -2  14   0   22.70    7.35
   1 -14   0   15.77    7.08
   1 -14   0    9.73    7.14
   0 -14   0    6.61    6.16
   0 -14   0   -3.24    5.26
  -1 -14   0   15.94    7.64
  -1 -14   0   10.37    6.63
  -2 -14   0   10.24    4.83
  -3 -14   0    3.35    4.19
 -16  15   0   26.64    7.13
 -15  15   0    0.99    4.50
 -14  15   0   30.41    8.83
 -13  15   0   52.63    9.69
 -12  15   0   29.13    8.07
 -11  15   0   14.21    7.18
 -10  15   0  139.75   12.52
  -9  15   0   20.31    7.39
  -8  15   0   73.37   10.31
  -7  15   0   97.63   11.36
  -6  15   0   13.25    6.42
  -5  15   0   -1.75    5.65
  -4  15   0    1.52    6.08
  -3  15   0   55.51    9.76
   2 -15   0   26.73    9.53
   2 -15   0   17.10    8.15
   1 -15   0    7.77    6.79
   1 -15   0    1.25    5.87
   0 -15   0   -3.59    4.24
   0 -15   0    2.11    5.04
  -1 -15   0    8.12    5.17
  -1 -15   0   -0.21    3.96
 -15  16   0   -0.38    4.54
 -14  16   0    3.82    4.27
 -13  16   0    0.45    5.47
 -12  16   0   67.57   10.59
 -11  16   0   49.97    9.68
 -10  16   0    1.42    6.10
  -9  16   0   24.82    8.14
  -8  16   0   13.54    7.11
  -7  16   0    4.26    6.29
  -6  16   0    9.33    6.56
  -5  16   0  142.40   13.30
  -4  16   0    6.09    6.68
   1 -16   0   -8.17    4.15
   1 -16   0   -1.58    4.54
 -13  17   0    0.11    4.17
 -12  17   0    2.10    4.20
 -11  17   0    3.42    4.75
 -10  17   0    7.50    5.97
  -9  17   0    0.21    6.07
  -8  17   0    0.06    6.20
  -7  17   0    7.58    5.86
  -6  17   0   -0.34    4.95
  -5  17   0   -1.35    4.02
  -4  17   0   -1.77    4.01
   3 -17   0   34.55   11.91
   3 -17   0   18.39   10.73
 -11  18   0   -3.46    4.43
 -10  18   0   -1.08    4.18
  -9  18   0   -0.26    4.50
  -8  18   0    3.40    4.07
  -7  18   0   -7.05    3.94
  -6  18  -1    3.27    4.24
  -7  18  -1   -4.01    3.89
  -8  18  -1    3.89    4.41
  -9  18  -1    0.74    4.53
 -10  18  -1   -5.05    4.15
 -11  18  -1   -1.42    4.35
 -12  18  -1   -2.74    4.53
   2 -17   1   13.19    8.84
   2 -17   1    7.77    8.36
   3 -17   1   38.32   11.00
   3 -17   1   36.02   11.39
  -4  17  -1   -5.62    3.55
  -5  17  -1    0.20    5.09
  -6  17  -1    7.51    6.50
  -7  17  -1   36.28    9.00
  -8  17  -1    3.52    6.67
  -9  17  -1   30.83    8.53
 -10  17  -1  170.87   14.54
 -11  17  -1   26.61    8.19
 -12  17  -1    4.56    4.91
 -13  17  -1   -1.10    4.56
 -14  17  -1    0.28    4.56
   0 -16   1   -2.40    6.16
   0 -16   1   -8.49    5.46
   1 -16   1   71.73   12.32
   1 -16   1   59.18   11.21
   2 -16   1   44.66   11.20
   2 -16   1   50.86   11.05
  -4  16  -1   32.69    8.45
  -5  16  -1   44.83    9.15
  -6  16  -1    2.72    6.04
  -7  16  -1   12.69    6.98
  -8  16  -1  287.13   17.67
  -9  16  -1   97.60   11.76
 -10  16  -1   42.34    8.86
 -11  16  -1   64.55   10.28
 -12  16  -1   10.56    6.80
 -13  16  -1    1.40    6.61
 -14  16  -1   73.21   10.41
 -15  16  -1   19.88    8.19
  -1 -15   1   -2.28    4.44
   0 -15   1    1.28    6.87
   0 -15   1   -5.30    6.21
   1 -15   1   26.64    8.05
   1 -15   1   20.37    7.65
   2 -15   1    1.53    6.02
   2 -15   1    9.46    7.35
  -3  15  -1  201.79   14.66
  -4  15  -1    5.06    6.05
  -5  15  -1    6.35    6.27
  -6  15  -1  261.73   16.29
  -7  15  -1   23.55    7.40
  -8  15  -1   68.47    9.83
  -9  15  -1    8.39    6.38
 -10  15  -1   17.62    7.03
 -11  15  -1    1.05    6.08
 -12  15  -1   49.84    9.44
 -13  15  -1   99.16   11.61
 -14  15  -1   48.32    9.61
 -15  15  -1   85.15   11.41
 -16  15  -1   57.61   10.86
  -3 -14   1    0.83    4.31
  -2 -14   1   -1.41    6.16
  -1 -14   1   15.94    6.89
  -1 -14   1   22.62    7.77
   0 -14   1   -5.25    5.85
   0 -14   1    1.30    6.10
   1 -14   1  256.70   17.46
   1 -14   1  302.22   18.69
  -3  14  -1    0.05    5.62
  -4  14  -1  482.61   22.52
  -5  14  -1   13.22    6.13
  -6  14  -1    0.54    4.86
  -7  14  -1   25.68    7.38
  -8  14  -1   -2.64    4.62
  -9  14  -1   -1.75    5.59
 -10  14  -1  301.89   16.95
 -11  14  -1  169.60   13.01
 -12  14  -1  135.48   12.08
 -13  14  -1   13.70    6.90
  14 -14   1   41.33   11.64
 -14  14  -1   23.97    8.38
 -15  14  -1   56.38   10.23
  15 -14   1  101.12   15.13
  16 -14   1   51.17   13.50
 -16  14  -1   46.08    9.19
 -17  14  -1    9.92    8.20
  17 -14   1   15.53   11.40
  -4 -13   1   -3.97    3.88
  -3 -13   1   59.69   10.66
  -2 -13   1    2.13    5.89
  -1 -13   1  258.44   17.49
  -1 -13   1  297.92   17.60
   0 -13   1   -7.53    4.06
   0 -13   1    3.96    5.21
   1 -13   1   -2.87    4.20
   1 -13   1   -4.50    4.60
  -2  13  -1   68.04    9.51
  -3  13  -1    5.15    5.00
  -4  13  -1   15.95    6.25
  -5  13  -1  124.83   10.79
  -6  13  -1  298.02   16.22
  -7  13  -1  117.75   10.45
  -8  13  -1  320.84   16.90
  -9  13  -1  392.46   18.69
 -10  13  -1   82.69    9.78
  11 -13   1   78.66   11.26
 -11  13  -1   61.15    9.09
 -12  13  -1    6.52    5.89
  12 -13   1    5.59    7.39
  13 -13   1   22.45    9.27
 -13  13  -1   19.14    7.21
  14 -13   1   55.15   12.31
 -14  13  -1   48.62    9.17
  15 -13   1  108.43   15.90
 -15  13  -1   85.64   11.61
  16 -13   1   14.06   10.47
 -16  13  -1   20.59    7.69
 -17  13  -1   19.32    8.39
  17 -13   1   26.98   12.00
  -6 -12   1   -0.83    4.36
  -5 -12   1  -10.48    4.37
  -4 -12   1   40.89    9.29
  -3 -12   1  228.57   16.47
  -2 -12   1    8.27    5.97
  -1 -12   1    1.57    4.98
  -1 -12   1   -5.47    4.24
   0 -12   1   -3.60    4.08
   0 -12   1   -1.47    4.08
  -2  12  -1   11.07    5.52
  -3  12  -1 1059.18   36.25
  -4  12  -1  146.33   10.90
  -5  12  -1   79.02    8.70
  -6  12  -1  409.01   18.35
  -7  12  -1   40.76    6.90
  -8  12  -1  234.02   13.51
  -9  12  -1   20.80    5.86
   9 -12   1   19.06    6.39
 -10  12  -1   34.99    7.05
  10 -12   1   33.85    7.69
  11 -12   1   10.21    6.05
 -11  12  -1   10.07    5.87
  12 -12   1   35.43    9.46
 -12  12  -1   51.61    8.44
  13 -12   1  146.24   15.05
 -13  12  -1  113.11   11.76
  14 -12   1   69.14   12.71
 -14  12  -1   54.94    9.15
  15 -12   1   42.20   12.13
 -15  12  -1   29.77    8.28
  16 -12   1   49.18   12.85
 -16  12  -1   36.62    9.06
  17 -12   1   73.85   15.02
 -17  12  -1   56.12   10.54
  -7 -11   1   -3.87    4.44
  -6 -11   1    4.22    6.23
  -5 -11   1   32.57    9.10
  -4 -11   1    0.25    5.41
  -3 -11   1   10.35    6.62
  -2 -11   1   70.91    9.65
  -2 -11   1   77.76    9.78
  -1 -11   1    6.30    4.89
  -1 -11   1    7.20    4.86
   0 -11   1    1.25    4.03
   0 -11   1   -1.11    3.78
  -1  11  -1  557.29   22.70
  -2  11  -1   16.61    5.46
  -3  11  -1  507.52   20.96
  -4  11  -1  229.62   12.95
  -5  11  -1   21.46    5.44
  -6  11  -1  366.73   16.68
   6 -11   1  364.09   17.27
  -7  11  -1  102.41    8.73
   7 -11   1  101.07    9.30
   8 -11   1   11.45    5.46
  -8  11  -1   17.08    5.31
  -9  11  -1   51.12    7.25
   9 -11   1   69.35    9.59
  10 -11   1  262.17   17.24
 -10  11  -1  258.93   14.32
 -11  11  -1  129.45   10.59
  11 -11   1  150.85   13.85
  12 -11   1  122.36   14.68
 -12  11  -1  114.18   10.51
  13 -11   1   50.29   10.68
 -13  11  -1   23.16    6.66
 -14  11  -1  100.83   11.39
  14 -11   1  124.80   15.94
  15 -11   1   26.12   11.11
 -15  11  -1   18.71    7.71
  16 -11   1   38.33   12.24
 -16  11  -1   31.03    8.48
 -17  11  -1    7.07    7.39
  17 -11   1   16.91   11.80
 -18  11  -1    0.08    8.25
  -8 -10   1   -2.03    4.58
  -7 -10   1   16.28    8.39
  -6 -10   1   -3.21    5.91
  -5 -10   1    4.12    6.25
  -4 -10   1  432.60   22.06
  -3 -10   1    2.40    5.28
  -2 -10   1    7.20    4.86
  -2 -10   1    7.36    4.40
  -1 -10   1  562.68   23.60
  -1 -10   1  550.23   22.97
   0 -10   1    1.52    3.70
   0 -10   1    0.26    3.36
  -1  10  -1  385.29   17.25
  -2  10  -1   29.51    5.68
  -3  10  -1    4.20    3.68
   4 -10   1  576.23   21.73
  -4  10  -1  602.19   22.18
  -5  10  -1  338.61   15.12
   5 -10   1  319.40   15.15
  -6  10  -1  489.67   19.02
   6 -10   1  454.44   20.04
   7 -10   1   53.62    7.22
  -7  10  -1   58.10    6.86
   8 -10   1  400.85   19.60
  -8  10  -1  350.62   16.10
  -9  10  -1   92.29    8.31
   9 -10   1   81.85   10.23
 -10  10  -1  407.90   18.15
  10 -10   1  406.96   21.99
  11 -10   1   41.59    8.88
 -11  10  -1   33.19    6.62
  12 -10   1   16.44    7.23
 -12  10  -1   18.35    5.92
  13 -10   1   52.77   10.63
 -13  10  -1   44.61    8.22
  14 -10   1   18.72    9.68
 -14  10  -1   24.33    7.14
 -15  10  -1   47.57    9.40
  15 -10   1   62.76   13.26
 -16  10  -1    1.64    6.73
  16 -10   1   14.68    9.94
 -17  10  -1   30.55    9.02
  17 -10   1   33.64   11.80
 -18  10  -1   -5.56    7.44
  -9  -9   1   -1.34    5.19
  -8  -9   1   -7.33    6.38
  -7  -9   1   11.35    7.42
  -6  -9   1  275.69   17.89
  -5  -9   1    3.18    5.74
  -4  -9   1   15.78    5.87
  -3  -9   1 1046.74   37.18
  -2  -9   1   15.56    5.30
  -2  -9   1   16.67    5.57
  -1  -9   1  369.36   17.18
  -1  -9   1  390.54   17.69
  -1   9  -1    0.73    3.07
  -2   9  -1  155.96    9.62
   3  -9   1 1339.35   42.13
  -3   9  -1 1371.32   40.86
  -4   9  -1   55.74    5.99
   4  -9   1   59.59    6.17
  -5   9  -1  135.16    8.39
   5  -9   1  117.10    8.59
   6  -9   1  157.03   10.41
  -6   9  -1  169.60    9.61
   7  -9   1   65.09    7.57
  -7   9  -1   63.41    6.49
  -8   9  -1 1305.40   40.56
   8  -9   1 1363.52   47.21
  -9   9  -1  255.12   13.35
   9  -9   1  294.41   17.35
  10  -9   1   12.59    6.20
 -10   9  -1   13.62    4.94
  11  -9   1   58.93   10.43
 -11   9  -1   65.37    7.86
 -12   9  -1   64.73    8.43
  12  -9   1   63.94   11.41
 -13   9  -1   36.45    7.71
  13  -9   1   43.73   10.01
  14  -9   1   -4.71    6.45
 -14   9  -1   -6.91    5.20
 -15   9  -1   91.67   12.39
  15  -9   1  138.48   17.15
  16  -9   1   58.60   13.62
 -16   9  -1   50.22   10.03
  17  -9   1   64.97   13.62
 -17   9  -1   49.97   10.67
 -18   9  -1   18.24    9.32
 -10  -8   1    0.34    4.59
  -9  -8   1   29.06    9.80
  -8  -8   1  268.76   18.88
  -7  -8   1   18.49    7.38
  -6  -8   1   -0.80    5.33
  -5  -8   1  129.39   11.46
  -4  -8   1  151.67   11.81
  -3  -8   1  481.02   21.03
  -2  -8   1   27.27    5.34
  -2  -8   1   26.12    5.58
  -1  -8   1    4.82    3.51
  -1  -8   1    2.49    3.29
   0   8  -1   -0.25    2.91
  -1   8  -1 1641.46   47.84
  -2   8  -1   98.16    7.25
   3  -8   1 1231.55   38.44
  -3   8  -1 1226.44   36.73
  -4   8  -1   13.87    3.46
   4  -8   1   15.45    3.65
   5  -8   1    8.95    3.41
  -5   8  -1    8.66    3.28
   6  -8   1 2176.43   67.43
  -6   8  -1 2144.30   60.14
  -7   8  -1   33.93    4.90
   7  -8   1   35.09    6.15
   8  -8   1   18.74    5.18
  -8   8  -1    7.14    3.20
  -9   8  -1    7.42    3.91
   9  -8   1   -1.07    4.38
 -10   8  -1   11.52    4.82
  10  -8   1   18.47    6.26
  11  -8   1   91.10   11.84
 -11   8  -1   96.92    9.01
 -12   8  -1  392.50   18.92
  12  -8   1  421.83   24.10
  13  -8   1   47.61   10.33
 -13   8  -1   28.86    7.40
  14  -8   1   42.24   11.07
 -14   8  -1   37.35    8.43
 -15   8  -1   86.19   12.43
  15  -8   1  111.77   16.23
 -16   8  -1   57.60   10.87
  16  -8   1   64.74   14.04
 -17   8  -1   15.68    8.13
  17  -8   1   29.58   12.32
 -18   8  -1   -3.09    7.94
 -11  -7   1   -6.89    4.80
  -9  -7   1   98.64   13.08
  -8  -7   1   60.69   10.45
  -7  -7   1   31.03    7.82
  -6  -7   1  289.52   16.81
  -5  -7   1   92.54    9.88
  -4  -7   1  211.07   12.98
  -3  -7   1    3.12    3.19
  -2  -7   1  167.55   10.11
  -2  -7   1  173.91   10.51
  -1  -7   1 1695.37   48.62
  -1  -7   1 1671.05   49.44
   0   7  -1    0.63    2.69
  -1   7  -1 2039.98   56.74
  -2   7  -1  330.45   13.09
  -3   7  -1  235.00   10.38
   3  -7   1  228.66   10.36
   4  -7   1   72.47    6.06
  -4   7  -1   66.81    5.32
   5  -7   1  144.77    9.22
  -5   7  -1  165.10    8.29
   6  -7   1   48.75    6.38
  -6   7  -1   54.29    5.35
  -7   7  -1    8.77    3.11
   7  -7   1    6.88    4.06
   8  -7   1   20.49    5.77
  -8   7  -1   18.23    3.97
  -9   7  -1   97.68    7.55
   9  -7   1   88.13   10.18
  10  -7   1 1077.10   41.20
 -10   7  -1  989.42   33.55
 -11   7  -1  192.89   12.31
  11  -7   1  212.32   16.22
 -12   7  -1  241.20   14.43
  12  -7   1  274.62   19.02
  13  -7   1  190.52   16.61
 -13   7  -1  160.44   12.89
 -14   7  -1   -5.39    5.61
  14  -7   1    8.03    7.28
 -15   7  -1    0.48    7.08
  15  -7   1    2.80    8.11
 -16   7  -1   22.18    8.70
  16  -7   1   12.22   10.98
 -17   7  -1    9.54    8.03
 -18   7  -1    4.55    9.12
 -12  -6   1   -7.88    5.18
 -11  -6   1    6.94    7.25
 -10  -6   1   46.94   10.28
  -9  -6   1    6.76    7.45
  -8  -6   1    3.92    5.50
  -7  -6   1  121.39   11.81
  -6  -6   1  413.87   19.77
  -5  -6   1   24.54    5.82
  -4  -6   1  581.63   22.82
  -3  -6   1 1375.42   42.45
  -2  -6   1  111.38    7.98
  -2  -6   1  100.76    7.50
  -1  -6   1 2069.09   57.13
  -1  -6   1 2077.73   58.27
   0   6  -1    2.46    2.22
  -1   6  -1  296.16   11.81
  -2   6  -1  593.24   19.22
  -3   6  -1  728.08   22.57
   3  -6   1  741.28   24.37
  -4   6  -1   81.57    5.37
   4  -6   1   74.11    5.99
  -5   6  -1 1006.06   29.27
   5  -6   1  954.22   33.06
   6  -6   1  110.65    8.58
  -6   6  -1  111.84    6.95
  -7   6  -1   33.48    4.42
   7  -6   1   33.02    6.06
  -8   6  -1 1513.59   44.82
   8  -6   1 1581.75   53.00
  -9   6  -1  158.60    9.92
   9  -6   1  161.79   12.66
 -10   6  -1   81.52    8.20
  10  -6   1   80.82   10.55
  11  -6   1    7.47    6.10
 -11   6  -1    6.23    4.75
  12  -6   1   26.40    8.05
 -12   6  -1   20.06    5.98
 -13   6  -1   40.60    8.11
  13  -6   1   48.98   11.01
  14  -6   1   -3.31    8.61
 -14   6  -1    9.53    6.75
  15  -6   1  349.60   24.37
 -15   6  -1  303.56   19.47
 -16   6  -1   -5.38    6.45
  16  -6   1    0.86   10.85
 -17   6  -1   19.35    8.69
 -12  -5   1   -3.34    4.54
 -11  -5   1   90.11   12.85
 -10  -5   1   11.57    7.45
  -9  -5   1   -3.19    5.41
  -8  -5   1  320.89   18.21
  -7  -5   1   28.27    6.97
  -6  -5   1  325.20   16.45
  -5  -5   1  316.44   15.35
  -4  -5   1   49.74    6.30
  -3  -5   1 1208.74   37.08
  -2  -5   1  325.02   13.51
  -2  -5   1  324.85   13.24
  -1  -5   1  304.74   12.07
  -1  -5   1  288.96   12.12
   0   5  -1    1.07    2.27
   0   5  -1   -1.09    1.70
  -1   5  -1  830.01   24.62
  -2   5  -1   61.94    4.33
  -3   5  -1  602.49   18.41
   3  -5   1  585.20   20.16
   4  -5   1   94.14    6.60
  -4   5  -1   98.32    5.66
   5  -5   1  401.07   17.00
  -5   5  -1  434.77   14.49
  -6   5  -1 2360.78   64.12
   6  -5   1 2402.41   73.53
   7  -5   1  251.21   14.45
  -7   5  -1  285.34   11.84
   8  -5   1   26.55    6.34
  -8   5  -1   15.60    4.43
  -9   5  -1  218.23   11.61
   9  -5   1  219.21   15.18
 -10   5  -1  247.26   13.39
  10  -5   1  274.21   17.22
  11  -5   1    9.54    5.90
 -11   5  -1    7.45    5.07
 -12   5  -1   63.85    8.57
  12  -5   1   69.99   12.30
  13  -5   1  110.36   14.79
 -13   5  -1   93.52   10.66
  14  -5   1   24.85   10.49
 -14   5  -1   37.62    8.37
  15  -5   1   12.81   10.44
 -15   5  -1   18.43    8.11
 -16   5  -1   71.97   11.11
 -17   5  -1   41.06   10.87
 -13  -4   1    4.64    4.67
 -12  -4   1    4.49    6.81
 -11  -4   1    3.47    7.28
 -10  -4   1  287.17   17.97
  -9  -4   1  394.89   20.42
  -8  -4   1  199.39   13.86
  -7  -4   1   82.76    9.12
  -6  -4   1  457.71   19.66
  -5  -4   1  119.61    8.66
  -4  -4   1   12.01    3.57
  -3  -4   1  210.58   10.13
  -2  -4   1  546.36   18.52
  -1  -4   1  812.05   23.91
  -1  -4   1  785.52   24.22
   0   4  -1   -1.06    1.44
  -1   4  -1 6312.31  160.38
  -2   4  -1  127.71    5.66
   2  -4   1  124.82    6.20
   3  -4   1   90.24    5.82
  -3   4  -1  102.53    5.15
  -4   4  -1  466.64   14.51
   4  -4   1  437.42   17.03
  -5   4  -1   14.87    2.74
   5  -4   1   10.71    3.41
  -6   4  -1  560.72   18.36
   6  -4   1  545.19   22.13
   7  -4   1   22.68    5.48
   8  -4   1  940.69   36.44
  -8   4  -1 1010.44   30.96
   9  -4   1   14.61    5.78
  -9   4  -1    5.38    4.16
 -10   4  -1  246.18   13.39
  10  -4   1  273.23   17.54
  11  -4   1  244.80   17.34
 -11   4  -1  201.83   12.95
 -12   4  -1    6.20    5.18
  12  -4   1    6.01    7.20
  13  -4   1  118.06   15.07
 -13   4  -1  109.36   11.51
 -14   4  -1   42.69    8.77
  14  -4   1   38.28   12.09
 -15   4  -1  154.27   14.40
 -16   4  -1   13.66    8.10
 -17   4  -1    8.38    8.35
 -14  -3   1   -0.60    4.44
 -13  -3   1   -5.95    6.55
 -12  -3   1   46.90    9.77
 -11  -3   1  169.55   14.10
 -10  -3   1   66.60   10.06
  -9  -3   1   18.72    6.54
  -8  -3   1   13.14    5.25
  -7  -3   1   41.79    6.71
  -6  -3   1  152.99   10.13
  -5  -3   1    9.82    3.31
  -4  -3   1   59.98    5.55
  -3  -3   1  739.15   23.41
  -2  -3   1   59.45    4.64
  -1  -3   1 6148.15  158.45
  -1  -3   1 6290.42  155.41
   0   3  -1   -0.95    1.23
  -1   3  -1    1.27    1.26
  -2   3  -1  190.20    6.70
   2  -3   1  178.09    7.57
  -3   3  -1  776.76   21.41
   3  -3   1  743.00   24.59
   4  -3   1 1711.32   52.37
  -4   3  -1 1729.21   45.99
   5  -3   1  725.43   26.42
  -5   3  -1  760.63   22.40
  -6   3  -1 2074.55   55.95
   6  -3   1 2027.56   63.99
  -7   3  -1   43.48    5.10
   7  -3   1   50.74    7.22
  -8   3  -1  618.07   21.86
   8  -3   1  618.52   26.42
  -9   3  -1  729.94   25.91
   9  -3   1  737.16   30.93
  10  -3   1  139.46   12.80
 -10   3  -1  129.78   10.11
 -11   3  -1    4.55    4.41
  11  -3   1   -7.92    5.68
  12  -3   1   66.77   12.01
 -12   3  -1   47.23    8.08
 -13   3  -1  210.02   15.21
  13  -3   1  256.83   19.64
 -14   3  -1   11.58    6.72
 -15   3  -1   59.38   10.59
 -16   3  -1   60.05   11.04
 -14  -2   1    1.07    4.48
 -13  -2   1   84.80   11.96
 -12  -2   1  124.02   12.91
 -11  -2   1   62.12    9.57
 -10  -2   1   26.79    7.07
  -9  -2   1   48.69    7.91
  -8  -2   1  319.12   16.04
  -7  -2   1   54.94    6.80
  -6  -2   1 1956.97   56.58
  -5  -2   1  144.12    8.60
  -4  -2   1   83.33    6.13
  -3  -2   1  528.61   17.33
  -2  -2   1  106.33    5.54
  -1  -2   1    1.76    1.26
  -1  -2   1    0.75    1.30
   0   2  -1    3.06    1.16
  -1   2  -1  838.43   22.33
   2  -2   1  517.86   17.16
  -2   2  -1  539.80   14.89
   3  -2   1 1719.70   51.37
  -3   2  -1 1729.18   45.24
   4  -2   1 3697.14  108.17
   4  -2   1 3627.54   94.79
  -4   2  -1 3882.53   96.39
   5  -2   1   19.07    2.50
  -5   2  -1   30.01    3.46
   5  -2   1   24.55    4.51
   6  -2   1  661.16   26.10
  -6   2  -1  718.16   22.46
  -7   2  -1   25.54    4.43
   7  -2   1   20.16    5.40
  -8   2  -1  964.08   31.36
   8  -2   1  966.55   36.25
  -9   2  -1    6.44    4.39
   9  -2   1    2.53    5.98
 -10   2  -1  198.65   12.27
  10  -2   1  162.73   14.23
 -11   2  -1  178.74   12.72
  11  -2   1  180.17   15.17
  12  -2   1   11.34    7.74
 -12   2  -1   18.59    6.88
 -13   2  -1  108.87   11.80
 -14   2  -1   -2.11    5.66
 -15   2  -1   30.86    8.87
 -16   2  -1   10.22    7.56
 -15  -1   1   -0.98    4.72
 -14  -1   1   43.90    9.74
 -13  -1   1   14.44    7.24
 -12  -1   1   11.26    6.95
 -11  -1   1    7.07    5.83
 -10  -1   1  228.73   14.42
  -9  -1   1   83.72    8.93
  -8  -1   1 1218.22   39.40
  -7  -1   1   42.44    6.04
  -6  -1   1   41.93    5.39
  -5  -1   1  896.62   28.07
  -4  -1   1   95.29    6.30
  -3  -1   1  103.92    5.89
  -2  -1   1  158.41    6.39
  -1  -1   1  765.03   20.83
   0   1  -1    3.67    0.55
   1  -1   1 9060.49  241.15
   1  -1   1 9391.17  259.11
   2  -1   1   64.16    3.97
  -2   1  -1   68.48    3.16
   2  -1   1   59.31    2.58
   3  -1   1 1404.00   42.57
  -3   1  -1 1378.65   37.48
   3  -1   1 1414.45   36.78
  -4   1  -1   22.76    2.99
   4  -1   1   21.06    2.58
   4  -1   1   18.71    3.73
  -5   1  -1   11.20    2.72
   5  -1   1    8.84    3.51
   5  -1   1    2.62    2.20
  -6   1  -1 1372.06   39.53
   6  -1   1 1331.32   37.89
   6  -1   1 1360.60   45.12
   7  -1   1  143.90   11.14
  -7   1  -1  149.07    9.19
  -8   1  -1 1170.72   37.21
   8  -1   1 1199.24   42.73
   9  -1   1  106.72   11.54
  -9   1  -1  107.68    9.31
  10  -1   1   10.79    6.51
 -10   1  -1    5.60    4.87
  11  -1   1   57.62   10.49
 -11   1  -1   49.24    8.18
 -12   1  -1    6.94    6.30
 -13   1  -1   30.95    8.40
 -14   1  -1    7.32    6.93
 -15   1  -1   42.85    9.68
 -16   1  -1   16.46    8.53
 -15   0   1    5.60    5.26
 -14   0   1   34.00    8.98
 -13   0   1   17.86    7.27
 -12   0   1   31.47    7.93
 -11   0   1  133.32   11.57
 -10   0   1  335.86   17.21
  -9   0   1  239.71   13.66
  -8   0   1    5.15    3.78
  -7   0   1   11.19    3.89
  -6   0   1  103.65    7.10
   6   0  -1   90.77    8.43
  -5   0   1  393.89   14.81
   5   0  -1  411.48   17.27
   4   0  -1  400.60   16.18
  -4   0   1  411.14   14.26
  -3   0   1  718.02   21.34
   3   0  -1  731.20   24.20
  -2   0   1  515.07   15.09
  -1   0   1 9088.34  229.96
   0   0   1    0.05    0.22
   1   0   1 1130.65   28.31
   1   0   1 1016.01   31.44
   2   0   1  152.94    5.80
  -2   0  -1  158.41    6.04
   2   0   1  155.31    6.87
   3   0   1 3486.59   99.52
  -3   0  -1 3389.21   89.32
   3   0   1 3483.47   88.73
  -4   0  -1  117.88    6.55
   4   0   1  120.90    6.50
   4   0   1  120.65    7.72
  -5   0  -1  360.67   13.84
   5   0   1  380.20   16.02
   5   0   1  327.09   13.02
   6   0   1 1420.85   46.32
   6   0   1 1365.27   39.85
  -6   0  -1 1381.83   41.03
  -7   0  -1  125.42    8.78
   7   0   1  119.49   10.07
   8   0   1  159.51   12.49
  -8   0  -1  160.53   10.54
  -9   0  -1  261.70   14.29
   9   0   1  255.94   16.56
 -10   0  -1  217.98   13.67
 -11   0  -1   -0.28    4.65
 -12   0  -1    9.30    6.71
 -13   0  -1   92.73   11.52
 -14   0  -1    9.37    6.96
 -15   0  -1   -4.39    6.21
 -16   1   1   -1.45    4.77
 -15   1   1   50.14   10.13
 -14   1   1   35.19    8.48
 -13   1   1  121.07   12.56
 -12   1   1  111.00   11.36
 -11   1   1   33.26    7.39
 -10   1   1    8.13    4.97
   9  -1  -1    6.44    5.68
  -9   1   1    3.11    3.98
  -8   1   1   18.22    4.64
   8  -1  -1    8.86    4.94
  -7   1   1   27.20    4.79
   7  -1  -1   26.78    6.00
   6  -1  -1 2246.98   68.57
  -6   1   1 2138.48   60.36
   5  -1  -1   12.76    3.82
  -5   1   1   19.53    3.23
   4  -1  -1 1617.37   49.90
  -4   1   1 1612.00   43.95
   3  -1  -1 1573.73   48.12
  -3   1   1 1626.64   42.57
   2  -1  -1   66.65    4.18
  -2   1   1   68.12    3.26
  -2   1   1   61.51    2.44
   1  -1  -1 1211.47   36.03
  -1   1   1 1253.11   32.31
   0   1   1    2.12    0.85
   0   1   1    0.79    0.71
  -1  -1  -1 3235.57   80.95
   1   1   1 3413.16   82.80
   1   1   1 3027.95   91.37
  -1  -1  -1 3248.22   82.65
   2   1   1  131.52    6.11
  -2  -1  -1  112.49    5.45
   3   1   1   31.51    4.03
  -3  -1  -1   25.63    3.21
   3   1   1   34.07    3.70
  -4  -1  -1  685.70   21.82
   4   1   1  695.00   24.28
   4   1   1  663.65   21.56
   5   1   1   40.48    4.90
   5   1   1   43.59    5.75
  -5  -1  -1   39.07    4.86
   6   1   1   84.20    7.33
   6   1   1   79.19    8.27
  -6  -1  -1   89.27    7.26
   7   1   1   54.52    7.66
  -7  -1  -1   50.31    6.52
  -8  -1  -1  504.90   21.05
  -9  -1  -1    8.73    5.27
 -10  -1  -1   71.12    9.33
 -11  -1  -1  144.65   12.23
 -12  -1  -1   63.18   10.06
 -13  -1  -1    8.33    7.01
 -14  -1  -1   13.24    8.10
 -15  -1  -1    9.63    8.84
 -16   2   1   10.11    5.39
 -15   2   1   92.69   12.02
 -14   2   1   60.66   10.04
 -13   2   1   34.68    7.99
 -12   2   1   11.25    5.30
 -11   2   1   58.64    7.99
 -10   2   1    5.69    4.52
  10  -2  -1   13.13    6.53
  -9   2   1   90.50    8.18
   9  -2  -1   75.11    9.94
  -8   2   1 1407.19   42.01
   8  -2  -1 1374.05   48.27
  -7   2   1  257.06   11.77
   7  -2  -1  232.10   14.14
   6  -2  -1  517.79   21.53
  -6   2   1  532.67   18.12
  -5   2   1  746.72   22.30
   5  -2  -1  695.78   25.93
   4  -2  -1 3951.29  114.32
  -4   2   1 3946.04  101.68
   3  -2  -1 1370.81   43.27
  -3   2   1 1492.98   38.47
  -2   2   1  167.63    6.19
  -2   2   1  168.82    5.27
   2  -2  -1  172.54    7.15
  -1   2   1 3402.29   86.34
  -1   2   1 3398.33   86.76
   0   2   1   -4.82    1.32
   0   2   1   -4.44    1.42
   1   2   1  142.95    6.73
  -1  -2  -1  150.44    6.39
  -1  -2  -1  140.19    6.12
   2   2   1  848.40   25.24
  -2  -2  -1  844.65   24.77
   3   2   1  326.57   12.84
  -3  -2  -1  315.19   12.07
   4   2   1  174.50    9.76
  -4  -2  -1  175.08    8.93
   4   2   1  182.05    9.58
  -5  -2  -1  178.45    9.83
   5   2   1  171.73   10.11
   6   2   1  436.07   17.91
  -6  -2  -1  435.88   17.93
  -7  -2  -1   10.74    4.57
  -8  -2  -1   74.70    8.63
  -9  -2  -1  164.49   12.49
 -10  -2  -1  300.27   17.57
 -11  -2  -1    7.65    6.25
 -12  -2  -1    2.99    6.68
 -13  -2  -1   70.41   11.35
 -14  -2  -1   14.64    7.86
 -16   3   1    2.74    6.21
 -15   3   1   39.40    9.21
 -14   3   1  104.45   12.35
 -13   3   1   41.39    8.29
 -12   3   1   58.04    8.74
 -11   3   1   76.98    8.91
  11  -3  -1   87.55   11.77
  10  -3  -1  973.97   38.71
 -10   3   1  948.58   32.81
   9  -3  -1  176.88   13.53
  -9   3   1  167.62   10.65
   8  -3  -1   30.85    6.43
  -8   3   1   21.35    4.60
   7  -3  -1   30.80    6.00
  -7   3   1   33.86    4.59
  -6   3   1 2108.71   55.85
   6  -3  -1 1950.87   63.49
  -5   3   1   30.66    3.56
   5  -3  -1   19.25    4.26
   4  -3  -1   23.62    3.82
  -4   3   1   21.81    2.92
  -3   3   1 3674.20   94.04
  -3   3   1 3724.61   92.76
   3  -3  -1 3568.11  104.59
  -2   3   1  143.68    6.02
   2  -3  -1  124.14    5.81
  -1   3   1  156.09    6.56
  -1   3   1  159.71    6.63
   0   3   1   -0.27    1.57
   0   3   1    1.87    1.71
  -1  -3  -1 1064.71   30.80
   1   3   1 1092.29   31.24
  -1  -3  -1 1073.60   30.29
  -2  -3  -1   40.44    4.10
   2   3   1   43.48    4.70
  -2  -3  -1   39.09    4.08
   3   3   1  827.69   26.25
  -3  -3  -1  795.68   25.44
  -4  -3  -1  368.28   15.01
   4   3   1  387.31   15.90
   5   3   1   99.65    8.44
  -5  -3  -1  132.08    8.62
   6   3   1  323.71   15.76
  -6  -3  -1  321.42   15.34
  -7  -3  -1    1.87    4.39
  -8  -3  -1  435.72   20.36
  -9  -3  -1   39.75    7.70
 -10  -3  -1   10.59    6.33
 -11  -3  -1   16.49    7.64
 -12  -3  -1   31.43    9.32
 -13  -3  -1   30.13    9.64
 -17   4   1   16.68    6.87
 -16   4   1   47.56   10.35
 -15   4   1   13.05    7.79
 -14   4   1   22.36    7.91
 -13   4   1   42.52    8.31
 -12   4   1  394.21   19.26
  12  -4  -1  374.13   23.14
  11  -4  -1  194.37   15.23
 -11   4   1  167.69   11.86
 -10   4   1   65.48    7.72
  10  -4  -1   49.59    8.61
  -9   4   1  207.92   11.61
   9  -4  -1  208.76   14.37
   8  -4  -1 1028.29   38.14
  -8   4   1 1026.75   32.27
   7  -4  -1   49.38    7.41
  -7   4   1   74.19    6.18
  -6   4   1  714.15   22.55
   6  -4  -1  698.92   26.80
  -5   4   1    8.53    2.42
   5  -4  -1    3.63    3.16
  -4   4   1  116.80    4.71
   4  -4  -1  123.21    7.35
  -4   4   1  137.21    6.44
  -3   4   1   39.73    3.70
   3  -4  -1   36.22    3.79
  -3   4   1   36.95    3.13
  -2   4   1  886.70   24.93
  -2   4   1  874.78   25.16
   2  -4  -1  864.21   26.48
  -1   4   1 1035.76   30.19
  -1   4   1 1107.42   30.68
   0   4   1   -5.10    1.73
   0   4   1   -2.12    2.26
  -1  -4  -1 1273.38   35.99
   1   4   1 1272.49   37.08
  -1  -4  -1 1251.56   36.55
  -2  -4  -1  431.41   15.93
  -2  -4  -1  459.47   16.51
   2   4   1  465.61   17.30
  -3  -4  -1 1207.44   36.47
   3   4   1 1200.01   37.07
   4   4   1  219.28   12.01
  -4  -4  -1  215.33   11.28
   5   4   1    4.13    3.99
  -5  -4  -1    9.92    3.97
   6   4   1  312.61   16.35
  -6  -4  -1  361.08   16.70
  -7  -4  -1   58.21    8.32
  -8  -4  -1   16.63    6.18
  -9  -4  -1   38.93    8.26
 -10  -4  -1   20.94    7.87
 -11  -4  -1   46.98   10.37
 -12  -4  -1  158.45   14.88
 -13  -4  -1   17.79    8.87
 -17   5   1   14.61    6.31
 -16   5   1    7.34    7.04
 -15   5   1   40.17    9.27
 -14   5   1   -0.26    5.83
 -13   5   1   44.25    8.46
  13  -5  -1   47.15   10.60
  12  -5  -1  263.76   18.61
 -12   5   1  256.64   15.09
 -11   5   1   -1.28    4.37
  11  -5  -1   11.47    5.64
 -10   5   1  230.56   12.80
  10  -5  -1  211.78   15.37
  -9   5   1   11.04    4.40
   9  -5  -1    0.93    5.36
   8  -5  -1  645.62   27.00
  -8   5   1  625.60   22.21
   7  -5  -1   28.23    6.19
  -7   5   1   35.64    4.53
  -6   5   1 1461.96   41.51
   6  -5  -1 1456.50   47.88
   5  -5  -1  403.78   16.86
  -5   5   1  404.71   14.46
  -4   5   1  736.84   22.57
  -4   5   1  752.98   21.14
   4  -5  -1  713.33   24.86
   3  -5  -1  316.61   12.17
  -3   5   1  324.96   11.89
  -2   5   1   38.76    3.91
  -2   5   1   44.63    4.29
  -1   5   1 1202.03   35.83
  -1   5   1 1331.10   36.74
   0   5   1    4.31    2.75
   0   5   1   -0.49    2.36
   1   5   1  298.08   12.84
  -1  -5  -1  284.64   12.26
  -1  -5  -1  251.79   11.57
   2   5   1   77.74    7.18
  -2  -5  -1   80.54    6.33
  -2  -5  -1   70.01    6.20
  -3  -5  -1  158.81    9.64
   3   5   1  162.40   10.41
   4   5   1  233.41   13.24
  -4  -5  -1  236.06   12.45
  -5  -5  -1  331.91   16.07
   5   5   1  320.83   16.24
  -6  -5  -1   73.28    8.63
  -7  -5  -1   30.83    7.34
  -8  -5  -1   -2.64    5.37
  -9  -5  -1   12.92    6.98
 -10  -5  -1  370.58   21.53
 -11  -5  -1   33.83    9.34
 -12  -5  -1   47.61   10.33
 -17   6   1   11.70    5.37
 -16   6   1    5.67    7.03
 -15   6   1   77.34   11.38
 -14   6   1   40.76    8.50
  14  -6  -1   57.35   11.58
 -13   6   1  174.08   13.47
  13  -6  -1  190.86   16.54
 -12   6   1   18.97    6.28
  12  -6  -1   21.22    8.34
 -11   6   1    5.65    4.79
  11  -6  -1   -1.79    4.93
  10  -6  -1  270.33   17.23
 -10   6   1  259.01   13.78
  -9   6   1  737.19   25.54
   9  -6  -1  730.40   31.14
  -8   6   1  978.63   30.54
   8  -6  -1  922.28   35.80
   7  -6  -1  156.13   11.48
  -7   6   1  162.70    8.85
  -6   6   1 1506.27   43.10
   6  -6  -1 1504.46   49.13
   5  -6  -1   44.93    5.33
  -5   6   1   36.00    3.37
  -5   6   1   50.86    4.90
  -4   6   1  193.39    9.21
  -4   6   1  220.24    8.83
   4  -6  -1  196.61    9.78
  -3   6   1  706.67   24.25
  -3   6   1  911.21   25.80
   3  -6  -1  847.17   26.23
  -2   6   1  453.07   16.45
  -2   6   1  467.30   16.43
  -1   6   1  299.93   12.78
  -1   6   1  280.28   11.91
   0   6   1   -0.17    2.27
   0   6   1    2.47    2.90
   1   6   1  962.07   31.41
  -1  -6  -1  966.62   30.45
  -1  -6  -1  964.70   30.98
  -2  -6  -1  293.57   13.68
   2   6   1  257.41   13.72
  -2  -6  -1  286.37   13.23
  -3  -6  -1    6.39    3.38
   3   6   1    1.39    3.32
  -4  -6  -1  155.70   10.76
   4   6   1  138.96   10.63
  -5  -6  -1  153.67   11.31
   5   6   1  146.47   11.31
  -6  -6  -1   -0.37    3.96
  -7  -6  -1   -2.40    4.74
  -8  -6  -1  245.59   16.84
  -9  -6  -1   15.81    7.64
 -10  -6  -1   31.18    9.36
 -11  -6  -1    1.94    5.28
 -17   7   1    8.03    6.53
 -16   7   1   48.27   10.25
  15  -7  -1  136.51   16.93
 -15   7   1   92.56   12.40
 -14   7   1    0.05    5.55
  14  -7  -1   -0.74    6.98
  13  -7  -1   45.95   10.44
 -13   7   1   46.48    8.83
  12  -7  -1   95.57   12.88
 -12   7   1   85.78    9.57
  11  -7  -1  232.47   16.78
 -11   7   1  203.61   12.75
 -10   7   1  154.06   10.51
  10  -7  -1  155.66   13.10
  -9   7   1   12.34    4.23
   9  -7  -1    9.53    5.56
   8  -7  -1 1321.07   45.58
  -8   7   1 1219.17   38.26
  -7   7   1  122.68    8.04
   7  -7  -1  113.45    9.54
   6  -7  -1   89.32    7.92
  -6   7   1   81.21    6.40
  -6   7   1   84.18    5.14
  -5   7   1  187.12    8.47
   5  -7  -1  196.53   10.48
  -5   7   1  171.37    9.16
  -4   7   1  371.35   13.91
  -4   7   1  383.78   14.52
   4  -7  -1  369.98   14.97
  -3   7   1 1271.69   37.17
  -3   7   1 1252.04   37.31
  -2   7   1   68.68    6.31
  -2   7   1   84.32    6.54
  -1   7   1  946.46   30.00
  -1   7   1  960.30   30.76
   0   7   1   -0.94    2.92
   0   7   1    1.42    3.19
   1   7   1  744.70   26.73
  -1  -7  -1  753.85   26.24
  -1  -7  -1  741.50   25.69
  -2  -7  -1   41.09    6.33
   2   7   1   37.84    6.60
  -2  -7  -1   52.98    6.83
   3   7   1  447.51   20.26
  -3  -7  -1  465.79   19.98
  -4  -7  -1   64.68    8.33
   4   7   1   74.56    8.69
  -5  -7  -1   14.87    5.82
  -6  -7  -1  324.80   18.12
  -7  -7  -1    9.42    6.40
  -8  -7  -1   27.99    8.54
  -9  -7  -1    6.81    7.31
 -10  -7  -1    3.78    6.89
 -17   8   1   34.31    8.50
 -16   8   1   42.36    9.86
 -15   8   1    1.84    6.98
  15  -8  -1   19.05    9.53
  14  -8  -1    8.73    7.84
 -14   8   1    3.02    5.94
  13  -8  -1  130.40   15.14
 -13   8   1   87.97   10.54
  12  -8  -1    8.63    7.62
 -12   8   1    0.22    4.91
  11  -8  -1    9.92    6.15
 -11   8   1    1.54    4.11
  10  -8  -1  205.78   14.96
 -10   8   1  175.20   11.42
   9  -8  -1  110.00   11.10
  -9   8   1  100.67    8.62
   8  -8  -1  173.79   12.59
  -8   8   1  162.45   10.07
  -7   8   1   63.96    6.54
   7  -8  -1   70.27    7.92
   6  -8  -1  442.84   19.63
  -6   8   1  494.99   16.12
  -6   8   1  482.57   18.02
  -5   8   1  132.48    8.20
  -5   8   1  126.55    7.64
   5  -8  -1  129.19    8.60
   4  -8  -1  231.83   10.88
  -4   8   1  242.17   11.44
  -3   8   1  176.87    9.85
  -3   8   1  177.27    9.83
  -2   8   1  311.54   14.26
  -2   8   1  295.56   13.58
  -1   8   1  762.86   25.71
  -1   8   1  725.26   26.21
   0   8   1    5.25    3.87
   0   8   1    6.20    4.13
   1   8   1 1854.36   55.18
  -1  -8  -1 1799.34   53.36
  -1  -8  -1 1796.46   54.27
  -2  -8  -1  127.02    9.91
   2   8   1  137.12   10.80
  -2  -8  -1  132.97   10.26
  -3  -8  -1   10.24    4.84
   3   8   1    7.37    5.36
  -4  -8  -1    6.43    4.90
  -5  -8  -1   42.82    8.42
  -6  -8  -1    5.43    6.21
  -7  -8  -1   22.75    7.63
  -8  -8  -1    7.88    7.85
  -9  -8  -1   28.50    8.62
 -10  -8  -1   -4.58    4.98
 -17   9   1   11.16    6.37
 -16   9   1    7.64    7.45
  16  -9  -1   24.85   10.59
  15  -9  -1  336.45   23.54
 -15   9   1  280.03   18.45
  14  -9  -1   28.00    9.95
 -14   9   1   32.55    7.94
 -13   9   1  116.18   11.28
  13  -9  -1  141.82   15.67
 -12   9   1   52.14    8.29
  12  -9  -1   65.73   11.37
  11  -9  -1  197.59   15.56
 -11   9   1  180.44   12.13
  10  -9  -1   10.39    5.81
 -10   9   1    9.70    4.82
  -9   9   1  290.50   14.44
   9  -9  -1  273.76   17.30
   8  -9  -1  560.64   24.65
  -8   9   1  534.87   20.94
   7  -9  -1   11.04    4.60
  -7   9   1    4.33    3.80
   6  -9  -1  343.42   16.45
  -6   9   1  367.06   14.01
  -6   9   1  341.45   15.28
   5  -9  -1    4.66    3.08
  -5   9   1    8.71    3.37
  -5   9   1    5.18    3.39
  -4   9   1  241.99   12.08
   4  -9  -1  239.55   11.15
  -4   9   1  243.92   12.00
  -3   9   1    6.73    3.24
  -3   9   1   10.32    4.21
  -2   9   1   48.44    6.54
  -2   9   1   44.08    6.48
  -1   9   1 1883.51   56.17
  -1   9   1 1879.54   55.46
   0   9   1   -1.36    3.92
   0   9   1    1.68    4.08
  -1  -9  -1   31.59    6.49
  -1  -9  -1   32.73    6.50
   1   9   1   28.44    6.63
  -2  -9  -1  156.98   11.23
  -2  -9  -1  161.76   11.70
   2   9   1  154.34   12.29
  -3  -9  -1    5.65    4.82
  -4  -9  -1    2.40    5.24
  -5  -9  -1  149.27   13.21
  -6  -9  -1    0.29    5.91
  -7  -9  -1   13.39    8.34
  -8  -9  -1   17.49    8.02
  -9  -9  -1   -3.53    4.50
 -17  10   1   -1.26    4.37
 -16  10   1   -1.96    6.09
  16 -10  -1    3.93    9.76
  15 -10  -1   23.47   10.49
 -15  10   1   17.82    7.88
 -14  10   1   39.60    8.66
  14 -10  -1   41.20   11.27
 -13  10   1  234.35   15.51
  13 -10  -1  261.43   19.71
  12 -10  -1   22.11    8.58
 -12  10   1   23.37    6.76
  11 -10  -1   45.45    9.39
 -11  10   1   46.79    7.62
 -10  10   1  239.61   13.95
  10 -10  -1  243.99   16.67
  -9  10   1   15.22    5.25
   9 -10  -1   14.21    6.05
  -8  10   1   79.32    8.18
   8 -10  -1   65.74    8.59
  -7  10   1    0.85    4.00
   7 -10  -1    4.12    3.83
  -6  10   1  390.43   17.00
   6 -10  -1  375.99   17.24
  -6  10   1  387.28   15.69
  -4  10   1  146.56    9.69
  -4  10   1  133.11   10.00
  -3  10   1  507.15   20.73
  -3  10   1  496.63   20.34
  -2  10   1  124.19    9.85
  -2  10   1  130.16   10.25
  -1  10   1   23.65    6.10
  -1  10   1   28.51    6.40
   0  10   1   -3.74    4.28
  -1 -10  -1   44.11    7.39
  -1 -10  -1   38.23    7.24
  -2 -10  -1    2.28    4.52
  -2 -10  -1    7.46    5.13
  -3 -10  -1  380.89   20.09
  -4 -10  -1    7.10    6.31
  -5 -10  -1   70.40   11.13
  -6 -10  -1  293.99   19.68
  -7 -10  -1   -1.00    6.03
  -8 -10  -1   -3.26    4.71
  17 -11  -1   40.65   12.97
  16 -11  -1  115.79   16.85
 -16  11   1   87.36   12.24
 -15  11   1  153.77   13.90
  15 -11  -1  196.30   18.57
  14 -11  -1   18.66    9.55
 -14  11   1    2.12    6.20
 -13  11   1  108.63   11.64
  13 -11  -1  100.68   14.26
  12 -11  -1   15.01    7.20
 -12  11   1   12.75    6.14
 -11  11   1    4.88    5.37
  11 -11  -1    1.16    5.58
  10 -11  -1  103.45   11.43
 -10  11   1   86.28    9.21
   9 -11  -1  180.73   13.89
  -9  11   1  166.11   11.67
  -8  11   1  409.21   18.65
  -7  11   1   50.15    7.38
  -6  11   1   70.38    8.37
  -5  11   1  115.28    9.63
  -4  11   1   72.99    8.43
  -4  11   1   72.88    7.94
  -3  11   1    9.45    4.90
  -3  11   1   11.20    5.41
  -2  11   1  173.14   12.26
  -2  11   1  162.90   12.19
  -1  11   1   64.62    8.50
   0 -11  -1    3.09    4.62
   0 -11  -1    5.92    4.39
  -1 -11  -1  295.26   17.11
  -1 -11  -1  283.51   16.64
  -2 -11  -1   17.14    6.94
  -2 -11  -1   17.91    6.66
  -3 -11  -1   64.30   10.25
  -4 -11  -1   87.84   11.71
  -5 -11  -1    1.84    6.84
  -6 -11  -1   -4.22    4.05
  17 -12  -1   69.59   14.72
 -16  12   1   10.77    7.36
  16 -12  -1   18.66   10.56
  15 -12  -1   68.04   13.12
 -15  12   1   42.14    9.50
  14 -12  -1    7.78    8.22
 -14  12   1    6.49    5.91
 -13  12   1   25.83    7.48
  13 -12  -1   25.66    9.58
  12 -12  -1   30.46    9.06
 -12  12   1   13.11    6.47
 -11  12   1  126.49   11.19
  11 -12  -1  140.57   13.62
 -10  12   1  323.68   17.19
  -9  12   1   42.65    7.85
  -8  12   1   30.49    7.00
  -7  12   1   44.91    7.55
  -6  12   1    8.72    5.08
  -5  12   1    9.69    5.51
  -4  12   1    0.85    4.57
  -3  12   1    0.36    5.18
  -2  12   1    8.19    5.90
   0 -12  -1    3.94    5.15
   0 -12  -1   -5.80    4.41
  -1 -12  -1   63.69    9.93
  -1 -12  -1   64.58   10.02
  -2 -12  -1   28.07    7.36
  -2 -12  -1   24.68    7.54
  -3 -12  -1    7.57    6.41
  -4 -12  -1   -1.54    6.40
  -5 -12  -1   -5.31    4.03
  17 -13  -1   63.37   14.78
  16 -13  -1   68.48   14.46
  15 -13  -1   43.84   12.14
 -15  13   1   23.36    7.95
 -14  13   1   14.07    6.89
  14 -13  -1    4.23    7.99
 -13  13   1  117.17   12.14
 -12  13   1   47.93    8.93
 -11  13   1   12.17    6.63
 -10  13   1   13.20    6.50
  -9  13   1   35.05    7.33
  -8  13   1    5.18    5.30
  -7  13   1    0.23    5.00
  -6  13   1  342.12   17.95
  -5  13   1   37.60    7.94
  -4  13   1    2.02    5.34
  -3  13   1  389.97   20.06
  -2  13   1   20.36    7.23
   1 -13  -1   65.63   10.24
   1 -13  -1   78.09   10.90
   0 -13  -1   -6.26    5.23
   0 -13  -1    0.59    5.18
  -1 -13  -1   28.81    7.95
  -1 -13  -1   17.57    7.51
  -2 -13  -1   -1.49    6.13
  -3 -13  -1   -2.17    5.25
  -4 -13  -1    2.29    4.41
 -16  14   1   -0.60    4.45
 -15  14   1   10.23    6.60
 -14  14   1    5.41    6.41
 -13  14   1   11.99    6.91
 -12  14   1   -1.20    5.49
 -11  14   1   -4.54    5.70
 -10  14   1   35.62    8.23
  -9  14   1   25.73    7.50
  -8  14   1  218.27   14.74
  -7  14   1    5.14    6.15
  -6  14   1    0.90    5.82
  -5  14   1  155.49   12.83
  -4  14   1   15.65    6.85
  -3  14   1   65.26   10.27
  -2  14   1   18.99    7.27
   1 -14  -1   30.49    8.12
   1 -14  -1   23.64    8.05
   0 -14  -1    4.64    6.87
   0 -14  -1   -2.38    5.62
  -1 -14  -1   22.47    6.79
  -2 -14  -1    0.30    4.17
 -15  15   1   -0.31    4.53
 -14  15   1    4.25    5.87
 -13  15   1   71.41   10.50
 -12  15   1   43.72    8.93
 -11  15   1   47.19    9.34
 -10  15   1  370.45   20.28
  -9  15   1   15.78    7.42
  -8  15   1   18.98    7.74
  -7  15   1   31.39    8.36
  -6  15   1    0.58    6.02
  -5  15   1   77.02   10.71
  -4  15   1   94.56   11.70
  -3  15   1    3.73    7.09
   2 -15  -1   13.24    6.70
   2 -15  -1    7.07    7.71
   1 -15  -1   15.52    7.35
   1 -15  -1    8.61    7.13
   0 -15  -1    4.81    4.52
   0 -15  -1   -9.30    3.67
  -1 -15  -1    3.28    4.65
  -1 -15  -1   -0.02    4.01
 -14  16   1    4.16    4.67
 -13  16   1    1.14    3.74
 -12  16   1   43.71    9.12
 -11  16   1   13.74    7.33
 -10  16   1   17.48    7.38
  -9  16   1   12.02    7.27
  -8  16   1    2.64    6.15
  -7  16   1   15.38    7.38
  -6  16   1  274.83   18.00
  -5  16   1    9.06    7.25
  -4  16   1   -7.24    6.20
   2 -16  -1    0.01    5.11
   2 -16  -1   10.72    4.97
   1 -16  -1   -4.96    4.20
   1 -16  -1    1.04    4.89
 -13  17   1   -3.57    4.31
 -12  17   1    1.26    4.29
 -11  17   1    1.46    4.40
 -10  17   1   -1.93    3.79
  -9  17   1    0.60    4.27
  -8  17   1   -0.29    4.15
  -7  17   1    3.48    4.14
  -6  17   1   -3.24    3.51
  -5  17   1    2.27    4.34
  -4  17   1   15.39    7.82
  -5  18  -2   -4.60    4.23
  -6  18  -2   -0.66    4.29
  -7  18  -2   -2.14    3.61
  -8  18  -2    4.45    4.03
  -9  18  -2   -1.75    3.92
 -10  18  -2    0.17    4.32
 -11  18  -2   -0.96    4.22
 -12  18  -2   13.55    5.22
 -13  18  -2   19.09    8.95
   2 -17   2   -4.87    6.70
   2 -17   2    9.24    8.63
   3 -17   2   95.80   15.28
   3 -17   2  111.69   15.20
  -4  17  -2    1.64    5.26
  -5  17  -2    7.02    6.64
  -6  17  -2   36.14    8.68
  -7  17  -2   36.61    8.83
  -8  17  -2    2.94    6.52
  -9  17  -2  173.76   14.36
 -10  17  -2   76.09   11.19
 -11  17  -2   51.80    9.62
 -12  17  -2    6.18    6.13
 -13  17  -2    1.70    5.75
 -14  17  -2   20.89    7.59
   0 -16   2    2.89    7.35
   0 -16   2   -2.24    6.76
   1 -16   2    6.03    7.29
   1 -16   2   19.33    8.60
   2 -16   2   -6.82    6.14
   2 -16   2    5.76    7.44
  -4  16  -2  220.63   15.61
  -5  16  -2   24.93    7.73
  -6  16  -2    9.48    6.56
  -7  16  -2  219.41   15.44
  -8  16  -2   29.94    8.10
  -9  16  -2  103.82   11.74
 -10  16  -2   13.35    6.66
 -11  16  -2   13.38    6.66
 -12  16  -2   -3.57    5.60
 -13  16  -2   16.24    6.88
 -14  16  -2   48.92   10.02
 -15  16  -2   11.43    7.49
 -16  16  -2   10.41    8.16
  -2 -15   2   -1.66    6.68
  -1 -15   2    8.06    7.13
   0 -15   2   47.32    9.60
   0 -15   2   35.60    9.12
   1 -15   2   -1.84    5.57
   1 -15   2   16.98    7.31
   2 -15   2  340.41   20.24
   2 -15   2  318.79   20.30
  -3  15  -2   57.24    9.50
  -4  15  -2   27.33    7.90
  -5  15  -2  187.46   14.02
  -6  15  -2   -2.79    5.11
  -7  15  -2   42.38    8.29
  -8  15  -2   11.30    6.59
  -9  15  -2   12.19    6.49
 -10  15  -2   32.15    8.02
 -11  15  -2   84.45   10.41
 -12  15  -2  102.04   11.39
 -13  15  -2   13.97    6.89
 -14  15  -2   13.63    7.33
 -15  15  -2    4.31    6.32
  16 -15   2   40.93   12.06
 -16  15  -2   23.46    8.65
  17 -15   2   22.50   13.27
  -3 -14   2    4.07    4.18
  -2 -14   2   -1.40    6.31
  -1 -14   2   11.25    6.33
  -1 -14   2    7.73    6.76
   0 -14   2  389.57   21.38
   0 -14   2  422.86   22.68
   1 -14   2   13.08    6.31
   1 -14   2   19.97    7.04
  -3  14  -2    5.98    6.13
  -4  14  -2    4.80    5.55
  -5  14  -2   58.71    8.64
  -6  14  -2   10.05    5.98
  -7  14  -2   73.95    9.45
  -8  14  -2    5.69    5.50
  -9  14  -2  148.60   11.94
 -10  14  -2   78.57    9.53
 -11  14  -2  185.51   13.39
 -12  14  -2   34.03    7.93
 -13  14  -2    5.54    6.19
  13 -14   2   30.15    9.63
  14 -14   2   56.89   12.94
 -14  14  -2   45.09    9.08
 -15  14  -2   10.93    6.73
  15 -14   2   17.75   10.17
  16 -14   2   19.40   10.71
 -16  14  -2    5.31    7.09
 -17  14  -2   35.28   10.18
  17 -14   2   37.37   12.84
  -5 -13   2   -2.56    4.43
  -4 -13   2   -6.77    4.71
  -3 -13   2   11.12    6.78
  -2 -13   2  291.55   18.61
  -1 -13   2    9.49    5.71
  -1 -13   2   24.36    7.40
   0 -13   2   45.38    8.35
   0 -13   2   63.02    9.43
   1 -13   2    7.95    5.73
   1 -13   2    4.06    5.45
  -2  13  -2   -1.38    4.84
  -3  13  -2   72.72    9.17
  -4  13  -2   88.89    9.81
  -5  13  -2  339.39   17.24
  -6  13  -2   19.62    6.44
  -7  13  -2    8.48    5.51
  -8  13  -2   51.45    7.92
  -9  13  -2  341.48   17.08
  10 -13   2   65.54   10.20
 -10  13  -2   60.63    8.71
 -11  13  -2  125.50   10.95
  11 -13   2  127.44   13.01
  12 -13   2  194.96   16.25
 -12  13  -2  182.68   13.41
  13 -13   2    5.15    7.58
 -13  13  -2    8.19    6.07
  14 -13   2   39.61   11.40
 -14  13  -2   28.90    8.20
 -15  13  -2    4.56    6.84
  15 -13   2   11.35    9.45
 -16  13  -2   58.26   10.21
  16 -13   2   52.38   13.04
 -17  13  -2    8.10    7.63
  17 -13   2    3.96   11.36
  -6 -12   2   -4.15    4.01
  -5 -12   2   -6.27    6.04
  -4 -12   2  246.38   17.58
  -3 -12   2   51.25   10.01
  -2 -12   2  103.26   11.51
  -1 -12   2    6.14    4.84
  -1 -12   2    3.83    4.72
   0 -12   2   63.40    8.99
   0 -12   2   69.48    9.07
  -2  12  -2  338.61   17.16
  -3  12  -2   15.51    5.74
  -4  12  -2   96.18    9.47
  -5  12  -2    9.74    5.00
  -6  12  -2   -1.58    3.83
  -7  12  -2  458.50   19.73
  -8  12  -2  192.32   12.26
   8 -12   2  232.04   14.54
  -9  12  -2   64.14    7.96
   9 -12   2   61.32    9.42
 -10  12  -2   80.55    9.11
  10 -12   2   80.27   10.60
  11 -12   2   13.94    6.40
 -11  12  -2   14.26    5.71
  12 -12   2   11.43    6.81
 -12  12  -2    0.07    4.88
  13 -12   2    8.26    7.62
 -13  12  -2    9.85    5.90
 -14  12  -2  102.28   11.71
  14 -12   2   90.00   14.13
 -15  12  -2    0.97    6.36
  15 -12   2   15.46    9.61
  16 -12   2   57.03   12.85
 -16  12  -2   55.38   10.36
 -17  12  -2   10.96    6.76
  17 -12   2   17.43   10.39
  -7 -11   2   -2.24    4.09
  -6 -11   2    5.44    6.95
  -5 -11   2   21.15    8.00
  -4 -11   2   47.29    9.33
  -3 -11   2    5.27    5.68
  -2 -11   2    6.51    5.27
  -1 -11   2   11.81    5.04
  -1 -11   2    8.80    4.62
   0 -11   2   24.39    6.12
   0 -11   2   22.56    6.14
  -1  11  -2   58.18    7.64
  -2  11  -2  369.38   17.22
  -3  11  -2   82.39    8.33
  -4  11  -2  164.46   10.79
  -5  11  -2  377.15   16.56
   5 -11   2  353.38   16.63
   6 -11   2   42.78    6.52
  -6  11  -2   43.00    6.37
   7 -11   2  249.31   14.68
  -7  11  -2  262.29   13.38
   8 -11   2    8.58    4.77
  -8  11  -2   14.08    4.80
  -9  11  -2   15.42    5.17
   9 -11   2   20.36    6.96
 -10  11  -2   38.32    6.80
  10 -11   2   48.85    8.99
  11 -11   2   77.93   10.84
 -11  11  -2   68.54    8.47
  12 -11   2   32.37    8.89
 -12  11  -2   23.11    6.55
 -13  11  -2   12.08    5.98
  13 -11   2    1.87    7.78
  14 -11   2  217.62   19.12
 -14  11  -2  186.91   14.13
 -15  11  -2   11.37    6.78
  15 -11   2   -9.61    7.71
  16 -11   2    8.91    9.63
 -16  11  -2   -6.73    6.33
  17 -11   2   70.84   16.00
 -17  11  -2   33.46    9.35
 -18  11  -2   41.71   10.27
  -8 -10   2   -1.48    4.61
  -7 -10   2   30.73    9.22
  -6 -10   2    2.14    6.60
  -5 -10   2  165.84   13.89
  -4 -10   2   12.27    5.74
  -3 -10   2   59.54    8.78
  -2 -10   2  332.76   17.52
  -2 -10   2  360.05   17.59
  -1 -10   2   63.86    8.15
  -1 -10   2   64.51    8.05
   0 -10   2  723.42   27.08
   0 -10   2  707.07   26.55
  -1  10  -2    8.42    4.60
  -2  10  -2  238.79   12.59
  -3  10  -2  538.49   20.57
   3 -10   2  531.77   20.12
   4 -10   2    9.98    3.79
  -4  10  -2    7.10    3.69
   5 -10   2  179.05   11.09
  -5  10  -2  196.04   10.74
   6 -10   2    5.64    3.79
  -6  10  -2   11.94    3.95
  -7  10  -2  119.11    8.53
   7 -10   2  108.59    9.71
   8 -10   2   48.66    7.63
  -8  10  -2   55.03    6.80
  -9  10  -2  357.46   16.34
   9 -10   2  393.39   20.64
  10 -10   2   74.33   10.23
 -10  10  -2   60.07    7.40
  11 -10   2   -0.76    5.23
 -11  10  -2    4.73    4.52
  12 -10   2   20.62    7.98
 -12  10  -2   16.57    6.00
  13 -10   2   41.99   10.42
 -13  10  -2   38.98    7.87
  14 -10   2   26.31    9.48
 -14  10  -2   28.53    7.79
  15 -10   2   27.89   11.35
 -15  10  -2   18.33    7.23
 -16  10  -2   47.60    9.97
  16 -10   2   92.54   15.75
 -17  10  -2   42.68    9.95
  17 -10   2   40.05   12.55
 -18  10  -2    7.21    7.94
  -9  -9   2   -1.41    4.57
  -8  -9   2    3.22    7.00
  -7  -9   2  201.41   16.00
  -6  -9   2    8.78    6.23
  -5  -9   2   45.86    8.65
  -4  -9   2   95.47   10.16
  -3  -9   2   11.09    5.37
  -2  -9   2  342.05   16.98
  -2  -9   2  359.15   16.93
  -1  -9   2    8.72    4.29
  -1  -9   2    8.49    3.86
  -1   9  -2  340.65   15.06
  -2   9  -2    1.71    3.07
  -3   9  -2  198.06   10.52
   3  -9   2  211.59   10.58
   4  -9   2  131.99    8.78
  -4   9  -2  144.59    8.52
  -5   9  -2  204.08   10.27
   5  -9   2  194.00   11.23
   6  -9   2   67.48    7.39
  -6   9  -2   77.42    6.51
  -7   9  -2  647.22   23.08
   7  -9   2  691.38   27.08
   8  -9   2   25.17    5.74
  -8   9  -2   23.64    4.73
  -9   9  -2   29.49    5.65
   9  -9   2   33.84    7.69
 -10   9  -2  190.52   11.63
  10  -9   2  193.03   14.70
  11  -9   2  220.98   16.42
 -11   9  -2  205.97   12.53
 -12   9  -2   29.85    6.62
  12  -9   2   23.86    8.29
 -13   9  -2    7.34    5.38
  13  -9   2    3.62    7.44
 -14   9  -2  138.86   12.55
  14  -9   2  144.91   16.82
 -15   9  -2   52.03    9.89
  15  -9   2   67.41   13.39
 -16   9  -2    1.88    6.88
  16  -9   2    9.95    8.99
 -17   9  -2   -2.09    7.02
  17  -9   2    8.06   10.60
 -18   9  -2   12.60    8.55
 -10  -8   2   -8.15    4.45
  -9  -8   2  187.86   16.56
  -8  -8   2   35.78    9.04
  -7  -8   2   37.09    9.03
  -6  -8   2    5.85    5.32
  -5  -8   2  350.25   18.53
  -4  -8   2   71.71    8.67
  -3  -8   2   68.75    8.24
  -2  -8   2  226.38   12.77
  -2  -8   2  227.71   12.52
  -1  -8   2  340.92   15.23
  -1  -8   2  330.79   15.27
  -1   8  -2   28.55    4.63
  -2   8  -2 1245.09   37.11
  -3   8  -2  476.08   17.28
   3  -8   2  468.35   17.77
  -4   8  -2   49.51    5.22
   4  -8   2   55.27    5.70
  -5   8  -2   95.02    6.63
   5  -8   2  101.40    7.88
   6  -8   2  245.53   13.58
  -6   8  -2  270.47   11.77
  -7   8  -2   15.21    3.66
   7  -8   2   18.42    4.94
   8  -8   2  125.52   10.79
  -8   8  -2  127.55    8.33
  -9   8  -2  914.77   29.18
   9  -8   2  832.84   34.69
  10  -8   2    2.19    4.39
 -10   8  -2    3.09    4.06
 -11   8  -2    4.67    4.31
  11  -8   2    9.47    5.81
  12  -8   2   70.31   11.45
 -12   8  -2   51.26    7.87
 -13   8  -2    9.00    5.68
  13  -8   2   14.48    6.66
  14  -8   2   12.53    8.02
 -14   8  -2   12.28    7.48
 -15   8  -2   44.30    9.63
  15  -8   2   53.53   12.66
  16  -8   2   23.80   10.54
 -16   8  -2   10.39    7.93
 -17   8  -2    1.45    7.05
  17  -8   2   23.76   10.43
 -18   8  -2    4.26    8.32
 -11  -7   2   -0.89    4.65
 -10  -7   2   57.38   11.47
  -9  -7   2   81.08   12.40
  -8  -7   2    8.44    7.08
  -7  -7   2   94.40   11.26
  -6  -7   2   28.91    7.42
  -5  -7   2   12.24    5.31
  -4  -7   2  137.47   10.49
  -3  -7   2  579.14   22.69
  -2  -7   2   16.48    4.35
  -2  -7   2   15.48    4.27
  -1  -7   2   28.31    4.64
  -1  -7   2   26.80    4.62
   0   7  -2 1478.66   42.67
  -1   7  -2 1243.19   36.46
  -2   7  -2   24.56    3.78
   3  -7   2   42.57    4.60
  -3   7  -2   51.03    4.62
  -4   7  -2    8.41    2.52
   4  -7   2    3.16    2.63
  -5   7  -2  224.37   10.07
   5  -7   2  246.56   12.21
   6  -7   2   35.62    5.60
   7  -7   2  834.78   31.36
  -7   7  -2  822.43   26.31
   8  -7   2    6.84    4.24
  -8   7  -2    5.76    3.00
   9  -7   2    1.23    4.30
  -9   7  -2   -1.57    3.09
 -10   7  -2  566.31   21.50
  10  -7   2  556.73   26.56
  11  -7   2   16.05    6.94
 -11   7  -2    9.09    4.95
  12  -7   2   39.68    9.05
 -12   7  -2   32.82    7.06
  13  -7   2  288.92   20.59
 -13   7  -2  264.86   16.08
 -14   7  -2   64.76   10.54
  14  -7   2   93.71   14.01
 -15   7  -2   39.37    9.50
  15  -7   2   50.08   12.27
 -16   7  -2  143.44   14.92
  16  -7   2  107.68   17.34
 -17   7  -2   34.06   10.41
  17  -7   2   -3.90    6.65
 -18   7  -2   17.81    9.17
 -12  -6   2   -5.78    4.90
 -11  -6   2   23.79    8.98
 -10  -6   2    3.24    6.87
  -9  -6   2   12.23    7.08
  -8  -6   2    5.58    5.94
  -7  -6   2   12.11    5.50
  -6  -6   2    2.77    4.31
  -5  -6   2  313.71   15.88
  -4  -6   2   -3.09    2.99
  -3  -6   2  215.69   11.69
  -2  -6   2 1226.80   37.52
  -2  -6   2 1304.88   38.74
  -1  -6   2 1263.24   37.12
  -1  -6   2 1278.83   37.89
   0   6  -2   30.99    3.94
  -1   6  -2    6.07    2.37
  -2   6  -2  530.85   17.39
  -3   6  -2  640.74   19.58
   3  -6   2  596.34   21.27
   4  -6   2   26.26    4.05
  -4   6  -2   33.84    3.71
  -5   6  -2  809.39   24.15
   5  -6   2  765.57   27.85
   6  -6   2   26.42    5.12
  -6   6  -2   19.79    3.46
  -7   6  -2  630.10   20.95
   7  -6   2  637.01   25.54
   8  -6   2  151.10   11.70
  -8   6  -2  166.84    9.18
   9  -6   2   49.56    8.39
  -9   6  -2   43.62    6.12
 -10   6  -2    0.86    4.32
  10  -6   2   17.31    6.16
 -11   6  -2  218.25   12.97
  11  -6   2  223.80   16.62
  12  -6   2  195.48   15.86
 -12   6  -2  166.76   12.22
 -13   6  -2  169.01   12.75
  13  -6   2  172.02   16.29
 -14   6  -2  150.80   13.16
  14  -6   2  155.21   17.84
 -15   6  -2   55.00   10.09
  15  -6   2   28.48   11.69
 -16   6  -2   22.65    8.89
  16  -6   2   31.74   11.11
 -17   6  -2    7.30    7.35
 -12  -5   2  -10.09    4.68
 -11  -5   2    5.24    7.19
 -10  -5   2   27.22    8.32
  -9  -5   2  150.28   12.95
  -8  -5   2   61.52    9.40
  -7  -5   2  462.01   21.34
  -6  -5   2   38.01    6.88
  -5  -5   2  157.26   10.42
  -4  -5   2  140.54    9.37
  -3  -5   2  487.43   18.47
  -2  -5   2   21.66    3.85
  -1  -5   2    8.62    2.85
  -1  -5   2    7.37    2.70
   0   5  -2   19.92    3.07
  -1   5  -2   -0.59    1.87
  -2   5  -2  360.60   12.26
  -3   5  -2 1327.81   36.41
   3  -5   2 1321.47   40.76
   4  -5   2   10.63    3.00
  -4   5  -2   12.99    2.49
  -5   5  -2  225.27    8.92
   5  -5   2  192.47   10.90
  -6   5  -2  613.40   19.57
   6  -5   2  594.16   23.51
   7  -5   2  606.64   25.37
  -7   5  -2  646.90   21.06
  -8   5  -2  683.39   23.07
   8  -5   2  684.42   28.29
   9  -5   2 1132.39   42.73
  -9   5  -2 1174.74   36.02
  10  -5   2  129.16   12.56
 -10   5  -2  128.47    9.59
 -11   5  -2  100.23    8.92
  11  -5   2   68.51   11.35
  12  -5   2   96.88   13.54
 -12   5  -2   76.89    9.17
 -13   5  -2   48.70    8.32
  13  -5   2   48.47   11.95
  14  -5   2   95.56   15.05
 -14   5  -2   95.78   11.41
 -15   5  -2   20.43    7.72
  15  -5   2   -1.83    9.33
  16  -5   2    3.00    9.37
 -16   5  -2   40.01    9.78
 -17   5  -2   28.73   10.03
 -13  -4   2    1.23    4.75
 -12  -4   2   -1.02    6.29
 -11  -4   2   99.51   12.33
 -10  -4   2   71.94   10.74
  -9  -4   2  341.34   18.77
  -8  -4   2  190.37   13.16
  -7  -4   2  227.65   13.66
  -6  -4   2    1.59    3.62
  -5  -4   2  194.62   11.00
  -4  -4   2   49.31    5.54
  -3  -4   2   42.49    4.73
  -2  -4   2  535.25   18.21
  -1  -4   2    0.72    1.90
  -1  -4   2   -2.90    1.71
   0   4  -2  102.83    5.36
  -1   4  -2   78.72    4.40
  -2   4  -2   99.83    4.91
  -3   4  -2   34.06    3.08
   3  -4   2   24.34    3.53
  -4   4  -2 1735.21   45.43
   4  -4   2 1658.55   51.77
  -5   4  -2    1.58    1.88
   5  -4   2    3.40    2.56
   6  -4   2    6.90    3.27
   7  -4   2 2432.46   76.74
  -7   4  -2 2486.09   66.86
  -8   4  -2  475.22   18.09
   8  -4   2  511.88   22.76
   9  -4   2   14.42    6.13
  -9   4  -2   14.82    4.51
 -10   4  -2    1.12    4.04
  10  -4   2   -5.83    5.34
  11  -4   2    7.80    6.69
 -11   4  -2    3.35    4.71
  12  -4   2    2.96    7.15
 -12   4  -2   -7.38    4.86
 -13   4  -2  180.07   13.53
  13  -4   2  161.49   16.81
  14  -4   2  164.83   17.77
 -14   4  -2  151.08   13.45
  15  -4   2   56.38   13.58
 -15   4  -2   45.94    9.37
 -16   4  -2   22.28    8.26
 -17   4  -2   89.73   13.20
 -14  -3   2   -1.81    4.55
 -13  -3   2   -5.88    6.08
 -12  -3   2  120.26   13.31
 -11  -3   2  178.44   14.36
 -10  -3   2   58.76    9.62
  -9  -3   2   49.00    8.50
  -8  -3   2    9.23    4.92
  -7  -3   2  102.36    9.11
  -6  -3   2   72.94    7.50
  -5  -3   2   91.05    7.32
  -4  -3   2    3.52    2.46
  -3  -3   2  574.89   19.06
  -2  -3   2  317.46   11.66
  -1  -3   2   79.41    4.64
  -1  -3   2   69.02    4.37
   0   3  -2  120.93    5.32
  -1   3  -2    1.60    1.28
   2  -3   2 2157.87   63.61
  -2   3  -2 2231.12   56.72
  -3   3  -2  204.85    7.24
   3  -3   2  198.86    9.18
  -4   3  -2   14.69    2.31
   4  -3   2   13.01    3.18
  -5   3  -2 2441.37   62.89
   5  -3   2 2295.49   71.44
  -6   3  -2  280.08   10.98
   6  -3   2  226.19    8.95
   6  -3   2  282.56   14.02
  -7   3  -2   23.27    4.13
   7  -3   2   10.18    2.50
   7  -3   2   25.48    5.61
   8  -3   2   -1.79    4.58
  -8   3  -2   13.66    4.00
  -9   3  -2  222.90   12.39
   9  -3   2  220.33   15.23
 -10   3  -2    9.32    4.87
  10  -3   2    7.65    6.33
 -11   3  -2  203.68   13.26
  11  -3   2  229.03   16.95
 -12   3  -2  718.06   28.99
  12  -3   2  767.46   34.88
  13  -3   2  176.80   16.59
 -13   3  -2  161.08   13.34
 -14   3  -2   -2.77    6.28
  14  -3   2   -3.44    7.96
 -15   3  -2   87.95   12.01
 -16   3  -2   80.60   12.13
 -14  -2   2   -1.62    3.88
 -13  -2   2    8.95    6.58
 -12  -2   2   34.60    8.57
 -11  -2   2  114.87   12.02
 -10  -2   2   72.74    9.41
  -9  -2   2   12.04    5.66
  -8  -2   2   48.95    7.05
  -7  -2   2  590.71   22.60
  -6  -2   2  233.54   11.96
  -5  -2   2  213.43   10.78
  -4  -2   2   29.25    4.11
  -3  -2   2 1236.96   35.16
  -2  -2   2   81.44    4.87
  -1  -2   2    3.54    1.35
  -1   2  -2    0.49    0.30
   2  -2   2  959.27   29.22
   2  -2   2  947.60   24.87
   3  -2   2  169.36    8.18
  -3   2  -2  176.10    6.30
   3  -2   2  159.90    5.39
   4  -2   2  303.00   13.04
   4  -2   2  303.54    9.53
  -4   2  -2  314.98   10.67
   5  -2   2   59.07    6.06
  -5   2  -2   63.66    4.82
   5  -2   2   44.19    3.98
   6  -2   2  782.04   28.50
   6  -2   2  728.56   22.61
  -6   2  -2  794.82   24.38
  -7   2  -2  780.90   25.58
   7  -2   2  812.48   30.36
   7  -2   2  757.84   23.74
  -8   2  -2   34.41    5.25
   8  -2   2   29.14    4.53
   8  -2   2   32.96    6.94
   9  -2   2  793.05   32.05
  -9   2  -2  745.76   27.16
  10  -2   2  219.30   15.99
 -10   2  -2  226.76   13.43
  11  -2   2  555.40   27.53
 -11   2  -2  539.88   23.23
  12  -2   2   32.12    9.98
 -12   2  -2   37.18    8.12
  13  -2   2   34.38   10.54
 -13   2  -2   24.52    7.58
 -14   2  -2   21.81    7.69
 -15   2  -2    5.67    6.49
 -16   2  -2    5.73    6.78
 -15  -1   2    0.02    4.12
 -14  -1   2   16.86    7.87
 -13  -1   2   13.50    6.67
 -12  -1   2  183.16   14.10
 -11  -1   2   14.31    6.18
 -10  -1   2   43.03    7.62
  -9  -1   2  327.45   16.50
  -8  -1   2   24.79    5.37
  -7  -1   2   13.22    4.26
  -6  -1   2   45.67    5.52
  -5  -1   2  694.08   22.92
  -4  -1   2    6.45    2.45
  -3  -1   2   21.72    3.07
  -2  -1   2 2006.67   52.88
  -1  -1   2  786.53   21.48
   0  -1   2 1046.03   27.92
   0  -1   2 1071.74   27.81
   1  -1   2  257.30    7.82
  -1   1  -2  259.56    7.61
   2  -1   2   79.74    3.32
   2  -1   2   74.29    4.55
  -3   1  -2  721.73   21.23
   3  -1   2  760.31   24.63
   3  -1   2  769.05   20.77
   4  -1   2  868.34   24.06
   4  -1   2  838.52   28.38
  -4   1  -2  829.92   24.68
   5  -1   2  147.59    9.20
  -5   1  -2  141.90    7.55
   5  -1   2  145.73    7.18
   6  -1   2  133.92    9.55
   6  -1   2   87.35    6.57
  -6   1  -2  120.39    7.52
  -7   1  -2 1804.60   51.79
   7  -1   2 1815.47   58.79
   7  -1   2 1787.72   50.22
   8  -1   2  262.01   15.64
   8  -1   2  245.61   12.33
  -8   1  -2  259.85   13.07
   9  -1   2 1474.51   52.27
  -9   1  -2 1498.98   46.14
 -10   1  -2   23.11    6.36
  10  -1   2    7.14    6.65
  11  -1   2   53.81   10.41
 -11   1  -2   60.24    8.74
  12  -1   2   80.99   12.51
 -12   1  -2   89.36   10.66
 -13   1  -2   17.80    7.44
 -14   1  -2  110.33   12.81
 -15   1  -2    7.12    7.40
 -16   1  -2    5.84    7.90
 -15   0   2    7.93    4.85
 -14   0   2   38.69    9.89
 -13   0   2   -0.06    6.55
 -12   0   2    1.09    5.70
 -11   0   2   61.97    8.65
 -10   0   2   69.43    8.60
  -9   0   2   24.37    5.75
  -8   0   2  106.18    8.65
  -7   0   2  736.07   25.29
  -6   0   2   21.46    4.08
  -5   0   2  189.52    9.13
  -4   0   2 1614.12   44.47
  -3   0   2  182.66    7.54
  -2   0   2  859.61   23.60
  -1   0   2  245.57    7.70
  -1   0   2  253.81    7.79
   0   0   2   43.74    2.06
   0   0   2   41.71    1.72
   2   0   2 5333.84  149.50
   2   0   2 5266.44  133.97
  -2   0  -2 5311.83  134.59
   3   0   2 1494.81   45.45
   3   0   2 1500.32   40.39
  -3   0  -2 1505.60   40.80
   4   0   2  286.07   10.92
   4   0   2  269.10   12.48
  -4   0  -2  291.75   11.19
   5   0   2  509.35   20.56
  -5   0  -2  534.96   18.21
   5   0   2  521.43   17.73
   6   0   2  128.06    9.64
  -6   0  -2  146.61    8.72
   6   0   2  118.85    8.00
   7   0   2 1261.64   43.31
  -7   0  -2 1259.35   38.62
   7   0   2 1207.30   37.35
   8   0   2   13.25    4.68
  -8   0  -2   19.23    5.20
   8   0   2    6.24    5.39
  -9   0  -2   29.15    6.26
   9   0   2   31.53    7.62
 -10   0  -2   -4.66    4.46
  10   0   2   -1.14    5.39
 -11   0  -2  145.40   12.13
 -12   0  -2  119.77   12.36
 -13   0  -2  142.36   13.83
 -14   0  -2   10.50    7.46
 -15   0  -2   55.14   10.27
 -16   1   2    2.01    4.69
 -15   1   2   20.10    7.80
 -14   1   2   34.02    8.74
 -13   1   2    4.49    5.62
 -12   1   2   24.49    6.87
 -11   1   2   -1.31    4.39
 -10   1   2  177.53   12.05
  -9   1   2  842.60   29.64
  -8   1   2    6.92    3.72
  -7   1   2  596.19   21.25
   6  -1  -2  544.24   22.29
  -6   1   2  538.23   18.90
   5  -1  -2    5.38    3.18
  -5   1   2    6.11    2.46
   4  -1  -2   12.56    3.31
  -4   1   2    9.68    2.33
  -3   1   2  158.19    5.60
  -3   1   2  168.98    6.79
  -2   1   2   39.13    1.99
  -1   1   2   98.23    3.84
  -1   1   2  102.45    4.09
   0   1   2 2345.79   61.43
   0   1   2 2457.42   61.71
   1   1   2  566.75   16.18
   1   1   2  549.21   16.93
  -1  -1  -2  522.65   15.41
  -1  -1  -2  542.25   15.78
   2   1   2 1779.72   46.95
  -2  -1  -2 1733.03   46.66
   3   1   2  649.28   23.25
  -3  -1  -2  717.58   21.23
   3   1   2  728.48   21.63
  -4  -1  -2  105.28    6.66
   4   1   2  114.05    7.01
   4   1   2  116.92    7.59
   5   1   2 1191.79   39.58
  -5  -1  -2 1183.17   35.80
   5   1   2 1200.45   35.71
  -6  -1  -2  129.72    8.80
   6   1   2  147.69   10.31
   6   1   2  136.32    8.91
   7   1   2  472.39   19.06
  -7  -1  -2  478.06   19.32
   7   1   2  486.82   21.61
  -8  -1  -2   11.69    5.00
   8   1   2    7.03    5.30
   8   1   2   11.71    5.01
  -9  -1  -2  107.19   10.42
 -10  -1  -2  238.37   14.93
 -11  -1  -2  402.92   20.59
 -12  -1  -2   52.37    9.40
 -13  -1  -2   58.98   10.43
 -14  -1  -2   80.72   12.06
 -15  -1  -2    9.49    8.33
 -16   2   2   -1.92    3.99
 -15   2   2    5.52    6.83
 -14   2   2   66.59   10.35
 -13   2   2    0.61    5.58
 -12   2   2   19.31    6.57
 -11   2   2  193.93   12.97
 -10   2   2    1.37    4.14
   9  -2  -2   -3.33    4.47
  -9   2   2    0.85    3.66
   8  -2  -2  129.75   10.97
  -8   2   2  150.75    9.44
   7  -2  -2  634.81   25.75
  -7   2   2  633.81   21.87
   6  -2  -2    0.76    3.36
  -6   2   2    9.05    2.94
   5  -2  -2 2350.61   70.50
  -5   2   2 2264.60   59.42
  -5   2   2 2328.35   61.98
  -4   2   2  333.91   11.27
   4  -2  -2  309.85   13.42
  -4   2   2  301.71    9.25
  -3   2   2  851.68   22.41
   3  -2  -2  832.99   27.18
  -3   2   2  854.72   23.92
  -2   2   2 5627.81  140.44
   2  -2  -2 5444.31  155.72
  -1   2   2  564.61   16.62
  -1   2   2  591.33   16.55
   0   2   2  162.49    6.40
   0   2   2  154.96    6.54
   1   2   2   22.71    2.90
  -1  -2  -2   22.19    2.75
   1   2   2   17.88    2.31
  -2  -2  -2   47.88    4.12
   2   2   2   61.65    4.92
   2   2   2   52.82    4.38
   3   2   2  196.26    9.39
   3   2   2  180.27    9.16
  -3  -2  -2  213.59    9.12
  -4  -2  -2  942.58   28.66
   4   2   2  911.52   29.03
   5   2   2  173.05   10.35
   5   2   2  182.19   10.74
  -5  -2  -2  202.18   10.35
  -6  -2  -2  854.32   28.90
   6   2   2  868.54   31.63
   6   2   2  827.32   28.79
   7   2   2   21.90    5.53
  -7  -2  -2   17.27    5.22
   8   2   2  145.11   11.58
  -8  -2  -2  171.11   11.90
  -9  -2  -2 1079.27   37.86
 -10  -2  -2   49.82    8.71
 -11  -2  -2   84.40   10.85
 -12  -2  -2   52.65   10.00
 -13  -2  -2    6.47    7.18
 -14  -2  -2   -7.83    7.29
 -16   3   2    8.48    6.63
 -15   3   2    6.67    6.51
 -14   3   2  161.80   13.90
 -13   3   2   27.57    7.61
 -12   3   2   13.37    6.10
 -11   3   2    4.27    4.65
  10  -3  -2  506.08   25.15
 -10   3   2  495.77   20.81
   9  -3  -2   44.31    7.87
  -9   3   2   40.59    5.96
   8  -3  -2  560.71   25.37
  -8   3   2  635.82   21.79
  -7   3   2 2495.14   66.48
   7  -3  -2 2331.25   75.46
   6  -3  -2  297.79   15.12
  -6   3   2  310.03   12.26
  -5   3   2   68.33    5.19
   5  -3  -2   58.48    6.18
   4  -3  -2  881.85   30.38
  -4   3   2  960.46   24.61
  -4   3   2  935.95   26.75
  -3   3   2 1698.11   44.76
  -3   3   2 1675.60   43.17
   3  -3  -2 1614.28   49.56
  -2   3   2 1851.73   49.07
   2  -3  -2 1842.66   53.57
  -1   3   2   20.27    2.54
  -1   3   2   27.65    2.94
   0   3   2 5142.22  127.32
   0   3   2 4785.25  126.85
   1   3   2   30.40    3.74
  -2  -3  -2   22.82    3.44
   2   3   2   19.70    3.72
  -2  -3  -2   18.48    3.28
   3   3   2  312.99   13.67
  -3  -3  -2  341.54   13.39
  -4  -3  -2 2087.33   59.57
   4   3   2 2168.30   60.47
   5   3   2   18.72    5.11
  -5  -3  -2   33.68    5.34
  -6  -3  -2   73.90    7.91
   6   3   2   75.63    8.20
   7   3   2 1564.09   48.71
  -7  -3  -2 1550.05   48.93
  -8  -3  -2   10.43    5.56
  -9  -3  -2   14.19    6.18
 -10  -3  -2   11.76    6.59
 -11  -3  -2   49.96   10.16
 -12  -3  -2   -0.81    6.36
 -13  -3  -2   39.09   10.00
 -17   4   2   11.73    4.79
 -16   4   2   59.03   10.74
 -15   4   2   -1.31    6.34
 -14   4   2   38.75    9.30
 -13   4   2   12.59    6.43
 -12   4   2   57.12    8.49
 -11   4   2   11.11    5.01
  11  -4  -2   17.61    6.68
  10  -4  -2    0.76    4.87
 -10   4   2   11.29    4.87
  -9   4   2 1108.00   35.84
   9  -4  -2 1148.91   42.30
   8  -4  -2  471.10   22.51
  -8   4   2  514.44   18.80
   7  -4  -2   19.20    5.52
  -7   4   2   18.16    4.18
   6  -4  -2  751.31   28.01
  -6   4   2  757.71   23.84
   5  -4  -2  149.08    9.22
  -5   4   2  163.31    7.77
   4  -4  -2  269.89   12.41
  -4   4   2  297.97   11.01
  -4   4   2  286.87    9.21
   3  -4  -2  740.35   24.50
  -3   4   2  776.06   21.64
  -3   4   2  762.31   22.68
  -2   4   2   56.71    4.05
  -2   4   2   58.64    4.43
  -1   4   2   27.85    3.41
  -1   4   2   30.01    3.46
   0   4   2 5634.79  141.96
   0   4   2 5398.31  141.53
   1   4   2  263.56   11.55
   2   4   2 1702.40   48.48
  -2  -4  -2 1685.19   46.88
  -2  -4  -2 1653.95   47.71
   3   4   2  166.14   10.17
  -3  -4  -2  170.43    9.46
   4   4   2    2.10    3.74
  -4  -4  -2   -0.33    2.66
  -5  -4  -2 1045.67   34.28
   5   4   2 1044.63   35.12
  -6  -4  -2   90.48    9.02
   6   4   2   87.71    9.05
   7   4   2   12.36    5.15
  -7  -4  -2   19.72    6.08
  -8  -4  -2    4.81    5.57
  -9  -4  -2   41.90    8.83
 -10  -4  -2   32.72    8.80
 -11  -4  -2  149.96   15.07
 -12  -4  -2   51.61   11.09
 -13  -4  -2    9.44    8.78
 -17   5   2    7.14    4.68
 -16   5   2    1.77    6.66
 -15   5   2   13.83    7.70
 -14   5   2  108.17   12.37
 -13   5   2   -1.19    4.50
  12  -5  -2   34.44    9.01
 -12   5   2   38.19    7.23
  11  -5  -2  198.56   15.39
 -11   5   2  202.32   12.86
  10  -5  -2  112.41   11.38
 -10   5   2  124.60    9.53
  -9   5   2    6.23    4.23
   9  -5  -2    4.43    5.05
   8  -5  -2   10.02    4.88
  -8   5   2    2.46    3.14
  -7   5   2  834.87   26.49
   7  -5  -2  810.32   31.12
  -6   5   2  113.24    6.84
   6  -5  -2   78.76    8.02
   5  -5  -2  534.61   21.29
  -5   5   2  580.10   16.52
  -5   5   2  584.67   19.00
  -4   5   2  111.67    5.50
   4  -5  -2  108.82    7.10
  -4   5   2  111.32    6.58
  -3   5   2  209.98    9.12
   3  -5  -2  201.06    8.98
  -2   5   2   16.22    3.16
  -2   5   2   21.56    3.27
  -1   5   2  263.46   10.94
  -1   5   2  255.65   11.17
   0   5   2 3337.81   90.47
   0   5   2 3514.13   91.40
   1   5   2   10.41    3.32
   2   5   2   47.23    6.09
  -2  -5  -2   53.53    5.86
  -2  -5  -2   42.60    5.28
  -3  -5  -2  260.82   12.80
   3   5   2  257.04   13.48
  -4  -5  -2    7.76    3.57
   4   5   2   -1.60    3.86
  -5  -5  -2    0.48    4.16
   5   5   2    3.71    4.15
  -6  -5  -2   59.67    8.19
   6   5   2   56.32    8.11
  -7  -5  -2   60.36    8.92
  -8  -5  -2   37.27    8.35
  -9  -5  -2  186.10   15.10
 -10  -5  -2   33.71    9.37
 -11  -5  -2   54.28   10.89
 -12  -5  -2   17.00    9.44
 -17   6   2    3.19    4.78
 -16   6   2   69.50   11.53
 -15   6   2   45.80    9.49
 -14   6   2    0.95    6.59
  13  -6  -2  309.84   21.11
 -13   6   2  272.30   16.70
 -12   6   2  166.77   12.49
  12  -6  -2  207.33   16.21
  11  -6  -2   92.21   11.70
 -11   6   2   95.28    9.54
 -10   6   2   -0.10    3.75
  10  -6  -2    2.00    5.13
  -9   6   2  250.53   12.52
   9  -6  -2  216.28   15.05
  -8   6   2   35.69    5.10
   8  -6  -2   33.57    7.14
  -7   6   2 1916.84   53.91
   7  -6  -2 1896.49   61.63
  -6   6   2  132.01    6.00
   6  -6  -2  138.48    9.83
  -6   6   2  149.37    8.24
  -5   6   2 1266.36   34.95
   5  -6  -2 1258.84   41.23
  -5   6   2 1279.99   37.17
  -4   6   2 1050.41   30.33
  -4   6   2 1068.23   31.74
   4  -6  -2 1047.56   34.00
  -3   6   2  337.84   13.08
  -3   6   2  313.33   12.51
  -2   6   2 1687.69   47.60
  -2   6   2 1691.79   47.62
  -1   6   2    8.79    3.32
  -1   6   2    8.93    3.40
   0   6   2  307.19   13.29
   0   6   2  324.49   14.05
  -1  -6  -2  143.03    9.14
   1   6   2  183.38   10.68
  -1  -6  -2  171.17    9.88
  -2  -6  -2  140.66    9.43
   2   6   2  146.30   10.26
  -2  -6  -2  151.42    9.52
   3   6   2   57.41    7.36
  -3  -6  -2   54.83    6.78
  -4  -6  -2  678.85   25.83
   4   6   2  674.55   26.38
   5   6   2  142.36   11.28
  -5  -6  -2  151.66   11.35
   6   6   2   63.03    8.86
  -6  -6  -2   56.14    8.44
  -7  -6  -2  480.67   23.16
  -8  -6  -2   77.73   11.46
  -9  -6  -2  107.79   13.31
 -10  -6  -2    6.77    7.07
 -11  -6  -2    4.22    6.91
 -17   7   2    3.18    4.80
 -16   7   2    1.50    6.79
 -15   7   2   41.24    8.92
  14  -7  -2   57.35   11.81
 -14   7   2   52.61    9.89
 -13   7   2  179.96   13.43
  13  -7  -2  180.74   16.44
  12  -7  -2   90.23   12.64
 -12   7   2   62.85    9.02
 -11   7   2   10.37    4.94
  11  -7  -2    1.72    5.30
  10  -7  -2   -4.16    5.06
 -10   7   2   11.15    4.76
   9  -7  -2  803.40   32.71
  -9   7   2  775.44   27.14
   8  -7  -2  262.20   15.53
  -8   7   2  262.39   12.68
   7  -7  -2 1337.88   45.82
  -7   7   2 1344.39   40.29
   6  -7  -2  157.49   10.66
  -6   7   2  165.16    9.29
  -6   7   2  179.25    7.73
   5  -7  -2  188.79   10.89
  -5   7   2  202.18   10.19
  -5   7   2  204.86    9.00
   4  -7  -2 2177.99   64.86
  -4   7   2 2174.84   60.20
  -3   7   2  169.62    9.27
  -3   7   2  181.93    9.64
  -2   7   2   58.08    5.93
  -2   7   2   54.45    5.90
  -1   7   2  159.55    9.81
  -1   7   2  168.56    9.59
   0   7   2   32.32    5.47
   0   7   2   35.63    5.84
  -1  -7  -2    6.72    3.55
  -1  -7  -2    6.37    3.61
   1   7   2    5.74    3.62
  -2  -7  -2 1654.38   49.33
  -2  -7  -2 1666.86   50.30
   2   7   2 1617.88   50.67
   3   7   2  103.27    9.93
  -3  -7  -2  103.44    9.06
   4   7   2   18.24    5.75
  -4  -7  -2    4.17    4.33
   5   7   2  178.13   13.08
  -5  -7  -2  181.42   13.03
  -6  -7  -2   87.88   10.51
  -7  -7  -2   93.07   11.75
  -8  -7  -2   18.46    7.84
  -9  -7  -2   46.70   10.68
 -10  -7  -2   12.23    7.87
 -17   8   2   11.33    4.93
 -16   8   2    6.08    6.54
 -15   8   2   42.99    9.39
 -14   8   2  128.73   13.15
  14  -8  -2  166.65   16.39
  13  -8  -2   33.25    9.50
 -13   8   2   60.96    9.10
  12  -8  -2    2.13    6.04
 -12   8   2    1.31    4.67
  11  -8  -2  231.74   16.95
 -11   8   2  196.36   12.67
 -10   8   2  225.14   13.00
  10  -8  -2  252.61   16.86
  -9   8   2 1504.82   46.74
   9  -8  -2 1585.34   54.44
   8  -8  -2   27.27    6.41
  -8   8   2   22.78    5.02
   7  -8  -2  516.22   22.67
  -7   8   2  528.66   19.92
  -7   8   2  541.87   17.11
  -6   8   2  914.87   27.21
  -6   8   2  905.53   29.26
   6  -8  -2  864.07   32.01
  -5   8   2   34.70    4.50
  -5   8   2   39.36    5.44
   5  -8  -2   34.36    5.10
   4  -8  -2    5.17    2.75
  -4   8   2    6.17    2.81
  -4   8   2    4.05    3.39
  -3   8   2  266.48   12.90
  -3   8   2  292.49   13.23
  -2   8   2  141.32    9.55
  -2   8   2  139.10    9.34
  -1   8   2    2.76    3.70
  -1   8   2    0.86    3.16
   0   8   2 3349.40   92.20
   0   8   2 3298.72   90.98
  -1  -8  -2   24.58    5.64
   1   8   2   32.40    6.63
  -1  -8  -2   31.50    6.12
  -2  -8  -2   56.07    7.68
  -2  -8  -2   50.85    7.50
   2   8   2   60.46    8.07
  -3  -8  -2   59.24    8.16
   3   8   2   52.66    8.27
   4   8   2   11.72    5.44
  -4  -8  -2   13.10    6.10
  -5  -8  -2   85.28   10.58
  -6  -8  -2   26.54    7.46
  -7  -8  -2   45.67   10.19
  -8  -8  -2   -0.89    7.30
  -9  -8  -2    9.75    6.17
 -17   9   2   -1.31    4.52
 -16   9   2  126.94   13.85
 -15   9   2   37.18    8.78
  15  -9  -2   42.10   12.44
 -14   9   2   67.86   10.54
  14  -9  -2  111.83   14.88
 -13   9   2  178.32   13.25
  13  -9  -2  202.06   17.56
 -12   9   2  715.97   28.99
  12  -9  -2  838.28   36.49
 -11   9   2  509.44   22.34
  11  -9  -2  576.58   27.77
 -10   9   2   17.38    5.68
  10  -9  -2   21.24    7.06
   9  -9  -2   27.17    6.60
  -9   9   2   30.28    6.03
   8  -9  -2   12.14    5.70
  -8   9   2   10.32    4.70
  -7   9   2   13.49    4.54
   7  -9  -2   26.32    5.79
  -6   9   2   69.00    6.25
  -6   9   2   71.12    7.44
   6  -9  -2   73.32    7.55
   5  -9  -2 1060.56   35.87
  -5   9   2 1108.13   34.77
  -4   9   2    4.92    3.21
  -4   9   2    2.47    3.74
  -3   9   2   72.46    7.24
  -3   9   2   63.88    7.26
  -2   9   2 1659.52   49.88
  -2   9   2 1628.01   49.27
  -1   9   2   27.51    5.88
  -1   9   2   22.62    5.75
   0   9   2 1111.44   37.51
   0   9   2 1080.14   35.89
   1   9   2   14.61    5.81
  -1  -9  -2   16.40    5.52
  -1  -9  -2   16.36    5.37
  -2  -9  -2    6.94    4.75
   2   9   2   -7.18    4.03
  -2  -9  -2   -1.82    3.56
  -3  -9  -2   -3.26    4.18
   3   9   2   -3.45    4.25
  -4  -9  -2  104.16   11.37
  -5  -9  -2   53.63    9.82
  -6  -9  -2   15.73    7.64
  -7  -9  -2    5.18    7.06
  -8  -9  -2   -3.04    5.31
 -17  10   2    1.12    4.20
 -16  10   2   34.72    8.88
  15 -10  -2   24.14   10.61
 -15  10   2   21.92    8.02
  14 -10  -2  186.81   17.40
 -14  10   2  151.68   13.45
  13 -10  -2  158.28   17.03
 -13  10   2  168.29   13.23
 -12  10   2   24.40    6.74
  12 -10  -2   36.40    9.52
 -11  10   2   42.89    7.58
  11 -10  -2   39.13    8.94
 -10  10   2   -1.79    4.24
  10 -10  -2   -4.21    4.70
  -9  10   2   97.99    9.09
   9 -10  -2  109.98   11.02
   8 -10  -2  141.19   11.58
  -8  10   2  148.15   10.45
  -7  10   2 1570.96   48.57
   7 -10  -2 1616.15   52.87
  -6  10   2  120.56    8.19
  -6  10   2   85.66    8.62
  -5  10   2    3.89    4.54
  -5  10   2    4.28    2.87
  -4  10   2  706.02   25.94
  -4  10   2  728.79   26.36
  -3  10   2   97.38    9.08
  -3  10   2  113.77    9.38
  -2  10   2   57.00    7.76
  -2  10   2   47.36    7.33
  -1  10   2   17.54    5.66
  -1  10   2   15.86    5.81
   0  10   2   31.12    7.17
  -1 -10  -2   60.17    8.34
   1  10   2   50.17    8.78
  -1 -10  -2   54.69    8.35
  -2 -10  -2  152.10   12.21
  -2 -10  -2  170.87   12.32
   2  10   2  162.45   13.16
  -3 -10  -2   53.97    9.05
  -4 -10  -2   87.24   11.34
  -5 -10  -2   43.72    9.98
  -6 -10  -2   -3.53    6.44
  -7 -10  -2   -4.57    4.40
 -17  11   2   -8.95    4.28
  16 -11  -2   32.15   11.74
 -16  11   2   18.04    8.09
 -15  11   2   38.01    8.96
  15 -11  -2   55.40   12.90
 -14  11   2    3.91    6.09
  14 -11  -2   11.81    8.33
 -13  11   2   25.98    7.46
  13 -11  -2   28.84    9.60
  12 -11  -2  105.21   13.35
 -12  11   2   84.29   10.23
 -11  11   2  179.51   12.72
  11 -11  -2  190.99   15.80
 -10  11   2  252.49   14.70
  10 -11  -2  280.20   17.89
  -9  11   2 1078.15   36.77
  -8  11   2   18.93    5.84
  -7  11   2   19.93    5.88
  -6  11   2   58.19    6.53
  -6  11   2   59.07    7.99
  -5  11   2  145.35   11.03
  -5  11   2  145.97   10.14
  -4  11   2   13.57    5.19
  -4  11   2    5.37    4.80
  -3  11   2   68.46    8.66
  -3  11   2   67.00    8.38
  -2  11   2    4.05    4.98
  -2  11   2   -3.72    4.10
  -1  11   2   45.69    7.85
  -1  11   2   50.89    8.48
   0  11   2  233.27   15.30
   0 -11  -2  213.93   14.47
   0 -11  -2  219.22   14.34
  -1 -11  -2    7.87    5.47
  -1 -11  -2    8.08    5.37
   1  11   2    2.77    5.19
  -2 -11  -2   80.07   10.54
  -2 -11  -2   68.98    9.85
  -3 -11  -2   40.00    9.48
  -4 -11  -2   15.73    7.59
  -5 -11  -2   72.56   11.53
  -6 -11  -2    2.09    4.81
 -17  12   2   -1.62    4.36
 -16  12   2    5.23    5.84
  16 -12  -2   30.52   11.34
  15 -12  -2  127.02   16.45
 -15  12   2   97.87   12.29
  14 -12  -2   19.08    9.63
 -14  12   2   19.56    7.64
  13 -12  -2   32.18    9.69
 -13  12   2   20.29    7.45
 -12  12   2  128.19   11.88
  12 -12  -2  169.48   15.39
 -11  12   2  335.04   18.16
 -10  12   2   46.93    8.30
  -9  12   2    4.86    5.17
  -8  12   2   -0.73    4.70
  -7  12   2   70.01    8.99
  -6  12   2   70.38    8.93
  -5  12   2  181.00   12.33
  -5  12   2  173.45   12.61
  -4  12   2   16.99    6.46
  -4  12   2   13.28    5.33
  -3  12   2    3.92    5.33
  -3  12   2    0.87    4.99
  -2  12   2  178.08   13.32
  -2  12   2  158.06   12.72
  -1  12   2    5.28    6.08
   0 -12  -2  179.63   13.61
   0 -12  -2  146.19   12.96
  -1 -12  -2   24.58    7.23
  -1 -12  -2   35.84    8.53
  -2 -12  -2   59.91    9.74
  -2 -12  -2   67.95   10.90
  -3 -12  -2   56.13   10.51
  -4 -12  -2    1.88    6.30
  -5 -12  -2   -0.08    4.75
  16 -13  -2  107.56   16.72
 -15  13   2   14.76    7.22
 -14  13   2   68.14   10.56
 -13  13   2  141.41   12.80
 -12  13   2   50.88    9.30
 -11  13   2   78.69   10.27
 -10  13   2   12.20    6.22
  -9  13   2   39.70    8.18
  -8  13   2   40.33    7.95
  -7  13   2  472.85   21.76
  -6  13   2   64.43    9.36
  -5  13   2   84.96   10.10
  -4  13   2   83.77   10.26
  -3  13   2   69.74   10.03
  -2  13   2   91.71   11.06
   1 -13  -2   34.47    8.73
   1 -13  -2   37.03    8.65
   0 -13  -2   37.18    8.75
   0 -13  -2   45.72    8.97
  -1 -13  -2   -1.58    6.19
  -1 -13  -2   13.82    6.35
  -2 -13  -2    4.68    6.87
  -3 -13  -2   -7.07    3.97
  -4 -13  -2    0.86    3.94
 -16  14   2    0.09    4.55
 -15  14   2   -0.58    3.97
 -14  14   2   14.53    7.04
 -13  14   2   52.58    9.78
 -12  14   2   57.39    9.93
 -11  14   2   52.84    9.22
 -10  14   2   18.96    7.39
  -9  14   2  170.81   13.54
  -8  14   2   71.34    9.95
  -7  14   2   94.45   11.34
  -6  14   2   16.56    7.17
  -5  14   2   42.94    8.66
  -4  14   2   76.83   10.57
  -3  14   2   33.49    8.67
  -2  14   2   66.31   10.39
   1 -14  -2    0.47    6.32
   1 -14  -2   11.49    6.46
   0 -14  -2   18.85    7.38
   0 -14  -2   32.07    8.87
  -1 -14  -2    1.83    4.06
  -1 -14  -2    3.38    5.42
  -2 -14  -2   -0.71    4.16
 -15  15   2   -2.61    4.28
 -14  15   2    3.42    4.16
 -13  15   2    8.22    7.11
 -12  15   2   -2.38    5.58
 -11  15   2  151.61   13.23
 -10  15   2   46.49    9.31
  -9  15   2   89.59   11.27
  -8  15   2   19.72    7.46
  -7  15   2   58.03    9.78
  -6  15   2    9.42    6.82
  -5  15   2   32.33    9.21
  -4  15   2   13.62    7.81
  -3  15   2   49.95   10.30
   2 -15  -2    5.54    6.71
   2 -15  -2   -0.87    7.55
   1 -15  -2    2.73    4.67
   1 -15  -2    1.72    4.43
   0 -15  -2    2.46    4.65
   0 -15  -2   -5.41    3.96
 -14  16   2   -2.39    4.13
 -13  16   2   -0.10    4.21
 -12  16   2   -4.40    4.03
 -11  16   2   -2.36    5.84
 -10  16   2   12.28    6.85
  -9  16   2   54.62   10.02
  -8  16   2   -0.53    6.27
  -7  16   2   26.57    8.63
  -6  16   2    4.61    7.39
  -5  16   2   97.84   13.13
  -4  16   2   12.45    8.59
   2 -16  -2   14.42    5.43
   2 -16  -2   -5.93    4.51
 -12  17   2   -0.88    4.58
 -11  17   2   -1.15    3.81
 -10  17   2   -1.42    4.33
  -9  17   2   -5.58    3.82
  -8  17   2    0.18    4.47
  -7  17   2   -3.03    4.20
  -6  17   2   -4.22    6.62
  -5  17   2   14.62    8.73
  -8  19  -3   -0.50    4.33
  -9  19  -3   -0.89    4.18
 -10  19  -3   -1.11    4.61
  -5  18  -3   -4.56    4.01
  -6  18  -3   -2.66    3.44
  -7  18  -3   -3.87    4.54
  -8  18  -3   15.87    6.62
  -9  18  -3   23.49    7.57
 -10  18  -3   12.60    6.29
 -11  18  -3   56.04    9.42
 -12  18  -3   10.01    6.95
 -13  18  -3    0.72    7.16
   1 -17   3   -8.26    7.60
   1 -17   3    0.47    7.43
   2 -17   3    0.63    8.12
   2 -17   3    0.00    6.98
   3 -17   3   55.30   12.09
   3 -17   3   42.75   11.40
  -4  17  -3    4.54    5.81
  -5  17  -3   10.46    6.66
  -6  17  -3  108.33   12.69
  -7  17  -3   32.97    8.88
  -8  17  -3   17.28    7.71
  -9  17  -3   -2.24    6.03
 -10  17  -3   24.41    7.83
 -11  17  -3   11.96    6.45
 -12  17  -3   24.17    8.22
 -13  17  -3   31.69    8.42
 -14  17  -3   19.31    7.66
 -15  17  -3   26.64    9.18
  -1 -16   3   -0.15    7.37
   0 -16   3    3.19    6.27
   0 -16   3    4.02    7.00
   1 -16   3   37.24    9.55
   1 -16   3   65.17   11.38
   2 -16   3   -0.20    5.52
   2 -16   3   -3.56    5.45
  -4  16  -3  177.56   14.30
  -5  16  -3   16.45    7.49
  -6  16  -3    0.34    5.70
  -7  16  -3    4.73    6.15
  -8  16  -3   37.16    8.18
  -9  16  -3    7.93    5.72
 -10  16  -3  121.07   12.11
 -11  16  -3   51.43    9.17
 -12  16  -3   37.11    8.24
 -13  16  -3   38.55    8.36
 -14  16  -3    7.92    7.26
 -15  16  -3   32.89    9.03
 -16  16  -3   44.50   10.31
  -2 -15   3   10.22    7.01
  -1 -15   3   40.21   10.24
   0 -15   3    4.65    6.43
   0 -15   3    2.77    6.31
   1 -15   3   72.70   11.00
   1 -15   3   55.41   10.27
   2 -15   3   67.62   10.59
   2 -15   3   52.07    9.94
  -3  15  -3   39.16    8.54
  -4  15  -3    5.09    5.58
  -5  15  -3   53.00    8.95
  -6  15  -3   31.63    7.67
  -7  15  -3    6.12    5.58
  -8  15  -3  264.95   16.03
  -9  15  -3   16.64    6.64
 -10  15  -3   25.63    7.58
 -11  15  -3    2.43    5.69
 -12  15  -3   12.62    6.14
 -13  15  -3   52.38    9.58
 -14  15  -3   45.70    9.21
 -15  15  -3   14.80    7.42
  15 -15   3   45.79   12.69
 -16  15  -3    1.35    6.16
  16 -15   3    5.80   10.20
 -17  15  -3    6.02    8.10
  17 -15   3   23.76   12.50
  -4 -14   3   24.98    9.61
  -3 -14   3   39.46    9.73
  -2 -14   3    1.27    5.87
  -1 -14   3   54.97    9.91
  -1 -14   3   53.68   10.16
   0 -14   3    3.60    5.69
   0 -14   3   10.90    5.82
   1 -14   3   36.26    8.40
   1 -14   3   34.57    8.11
  -3  14  -3   61.95    9.10
  -4  14  -3   80.98    9.79
  -5  14  -3  150.23   12.09
  -6  14  -3  125.16   11.03
  -7  14  -3    5.29    5.37
  -8  14  -3  128.62   11.05
  -9  14  -3    5.81    5.49
 -10  14  -3   59.69    8.77
 -11  14  -3    4.57    5.85
  12 -14   3   95.57   12.81
 -12  14  -3   90.57   10.50
 -13  14  -3   57.63    9.39
  13 -14   3   74.19   12.41
  14 -14   3  124.12   16.31
 -14  14  -3  137.51   13.13
  15 -14   3    6.97    9.72
 -15  14  -3   -1.00    6.35
  16 -14   3   47.68   14.27
 -16  14  -3   31.76    8.93
 -17  14  -3   49.49   10.51
  17 -14   3   39.13   13.43
  -5 -13   3    1.19    4.41
  -4 -13   3   10.83    7.11
  -3 -13   3   67.60   11.02
  -2 -13   3   70.14   10.79
  -1 -13   3   47.18    8.67
  -1 -13   3   33.06    7.74
   0 -13   3    5.96    5.05
   0 -13   3    7.27    5.40
   1 -13   3  226.33   15.22
   1 -13   3  230.15   14.89
  -2  13  -3   -3.23    4.52
  -3  13  -3   72.89    9.14
  -4  13  -3  160.88   11.97
  -5  13  -3    4.95    4.67
  -6  13  -3   53.35    7.96
  -7  13  -3   72.68    8.68
  -8  13  -3  207.24   13.13
  -9  13  -3    9.64    5.19
   9 -13   3   16.01    5.99
  10 -13   3  143.54   13.10
 -10  13  -3  101.65   10.30
  11 -13   3  120.60   13.39
 -11  13  -3   85.07    9.87
 -12  13  -3   61.58    8.98
  12 -13   3   57.65   10.73
 -13  13  -3    3.08    6.04
  13 -13   3    2.98    6.91
  14 -13   3  103.91   15.20
 -14  13  -3  119.82   12.31
  15 -13   3  166.97   18.89
 -15  13  -3  137.17   13.58
  16 -13   3   62.03   14.37
 -16  13  -3   73.14   10.75
  17 -13   3    2.91   10.17
 -17  13  -3   12.53    7.03
  -6 -12   3   -2.27    4.20
  -5 -12   3    0.65    6.54
  -4 -12   3  202.84   15.97
  -3 -12   3   53.74    9.42
  -2 -12   3   37.61    8.09
  -1 -12   3  221.72   14.28
  -1 -12   3  218.74   14.74
   0 -12   3    0.22    3.91
   0 -12   3    0.45    3.83
  -2  12  -3   66.52    8.32
  -3  12  -3    2.09    4.24
  -4  12  -3   30.16    6.22
  -5  12  -3   39.22    6.78
   6 -12   3  125.07   10.33
  -6  12  -3  110.79    9.24
  -7  12  -3   61.19    7.66
   7 -12   3   40.20    7.39
  -8  12  -3   46.97    6.96
   8 -12   3   37.39    7.85
  -9  12  -3   74.19    8.37
   9 -12   3   71.29    9.72
  10 -12   3  190.56   14.77
 -10  12  -3  182.31   11.96
  11 -12   3   46.84    9.57
 -11  12  -3   30.94    6.77
 -12  12  -3    0.74    4.99
  12 -12   3    6.16    6.43
  13 -12   3  153.41   15.38
 -13  12  -3  130.62   11.60
  14 -12   3  212.08   19.14
 -14  12  -3  203.93   14.74
 -15  12  -3   17.04    7.33
  15 -12   3   26.58   10.06
  16 -12   3    1.60    9.06
 -16  12  -3    4.57    6.11
  17 -12   3   23.18   11.48
 -17  12  -3    3.28    7.19
 -18  12  -3    9.08    8.78
  -7 -11   3    3.20    4.26
  -6 -11   3  114.52   13.62
  -5 -11   3    7.44    6.51
  -4 -11   3    3.78    5.47
  -3 -11   3   70.54    9.61
  -2 -11   3    2.88    4.89
  -1 -11   3    3.51    4.16
  -1 -11   3    9.10    4.71
   0 -11   3   -1.24    3.44
   0 -11   3   -0.57    3.52
  -2  11  -3   44.34    6.90
  -3  11  -3  820.63   28.66
  -4  11  -3   98.92    8.49
   4 -11   3   85.58    8.23
  -5  11  -3  366.96   16.16
   5 -11   3  347.30   16.63
  -6  11  -3  270.86   13.77
   6 -11   3  290.19   15.31
  -7  11  -3   18.77    5.15
   7 -11   3   15.55    5.47
  -8  11  -3 1238.01   39.02
   8 -11   3 1238.06   44.72
  -9  11  -3  245.03   13.31
   9 -11   3  287.05   16.94
  10 -11   3   22.50    7.12
 -10  11  -3   27.31    6.03
  11 -11   3   64.05   10.25
 -11  11  -3   50.82    7.67
 -12  11  -3   25.73    6.65
  12 -11   3   30.08    8.54
  13 -11   3  164.58   15.85
 -13  11  -3  118.56   10.94
  14 -11   3  120.30   16.24
 -14  11  -3   98.93   11.19
  15 -11   3  150.12   17.85
 -15  11  -3  106.52   12.29
 -16  11  -3   62.47   10.78
  16 -11   3   70.42   14.38
  17 -11   3   20.40   11.50
 -17  11  -3   15.91    7.97
 -18  11  -3   66.38   12.25
  -8 -10   3   -5.33    4.08
  -7 -10   3   25.02    8.60
  -6 -10   3    8.07    6.40
  -5 -10   3   44.25    9.15
  -4 -10   3   84.40   10.37
  -3 -10   3   59.85    8.74
  -2 -10   3   68.04    8.67
  -1 -10   3  430.85   19.46
  -1 -10   3  420.90   19.07
   0 -10   3    6.12    3.82
   0 -10   3    3.74    3.57
  -1  10  -3  655.63   24.01
  -2  10  -3   55.00    6.73
  -3  10  -3 1024.04   32.83
   4 -10   3  217.25   11.78
  -4  10  -3  205.84   11.10
  -5  10  -3   67.12    6.62
   5 -10   3   55.27    6.70
   6 -10   3  525.50   22.05
  -6  10  -3  514.09   19.39
   7 -10   3  324.51   17.06
  -7  10  -3  331.81   14.46
   8 -10   3   -6.51    3.71
  -8  10  -3    3.06    3.86
  -9  10  -3   42.55    6.38
   9 -10   3   53.35    8.52
  10 -10   3   83.15   10.68
 -10  10  -3   72.91    7.93
 -11  10  -3   35.84    6.60
  11 -10   3   51.04    9.44
  12 -10   3  429.16   24.72
 -12  10  -3  424.17   19.51
  13 -10   3  171.83   16.00
 -13  10  -3  145.60   12.29
  14 -10   3  110.10   15.67
 -14  10  -3   87.41   10.51
 -15  10  -3   43.81    9.42
  15 -10   3   76.78   14.42
 -16  10  -3  112.13   12.90
  16 -10   3  150.57   18.58
  17 -10   3   18.88   10.73
 -17  10  -3    6.47    7.56
 -18  10  -3   20.08   10.08
  -9  -9   3   -4.39    4.25
  -8  -9   3   16.87    8.20
  -7  -9   3   -2.55    5.57
  -6  -9   3   29.76    7.99
  -5  -9   3  128.14   11.74
  -4  -9   3  161.98   12.50
  -3  -9   3    3.23    4.23
  -2  -9   3   33.88    6.31
  -2  -9   3   45.29    7.00
  -1  -9   3  746.90   26.48
  -1  -9   3  707.58   26.59
   0  -9   3   -2.65    3.14
   0  -9   3    0.37    3.69
  -1   9  -3  827.70   27.51
  -2   9  -3   17.01    4.31
  -3   9  -3   34.78    4.95
   4  -9   3  324.32   14.52
  -4   9  -3  317.91   13.42
  -5   9  -3  129.62    7.99
   5  -9   3  134.12    9.27
   6  -9   3   90.02    8.40
  -6   9  -3   86.37    6.64
  -7   9  -3  170.27    9.48
   7  -9   3  169.12   11.84
  -8   9  -3   -0.26    2.75
   8  -9   3    1.02    3.93
   9  -9   3  394.31   20.52
  -9   9  -3  382.88   16.35
  10  -9   3  655.05   29.33
 -10   9  -3  619.29   23.47
 -11   9  -3  111.10    9.40
  11  -9   3  123.02   12.52
  12  -9   3  427.73   24.12
 -12   9  -3  368.86   17.91
 -13   9  -3  130.96   11.40
  13  -9   3  180.74   16.47
  14  -9   3   93.97   14.44
 -14   9  -3   88.54   10.75
  15  -9   3   23.17   10.38
 -15   9  -3    8.69    7.56
 -16   9  -3    2.33    7.21
  16  -9   3   -6.37    9.18
  17  -9   3   -9.29    9.84
 -17   9  -3    2.92    7.50
 -18   9  -3    5.54    8.68
 -10  -8   3   -1.57    4.58
  -9  -8   3   10.46    7.26
  -8  -8   3   38.06    9.01
  -7  -8   3   -1.39    5.65
  -6  -8   3  139.47   12.32
  -5  -8   3    9.59    5.54
  -4  -8   3   29.20    6.47
  -3  -8   3  782.96   28.75
  -2  -8   3   57.42    6.91
  -2  -8   3   55.74    6.92
  -1  -8   3  850.44   28.75
  -1  -8   3  880.39   29.47
  -1   8  -3  133.40    8.20
  -2   8  -3  201.30   10.01
  -3   8  -3  188.24    9.32
  -4   8  -3    5.26    2.41
   4  -8   3    5.86    2.92
  -5   8  -3  675.20   22.13
   5  -8   3  677.97   25.12
   6  -8   3  303.67   15.19
  -6   8  -3  305.79   12.67
  -7   8  -3  394.02   15.36
   7  -8   3  381.22   18.53
   8  -8   3 1518.89   52.09
  -8   8  -3 1521.50   44.44
  -9   8  -3   67.04    6.59
   9  -8   3   49.62    8.40
  10  -8   3  218.04   15.30
 -10   8  -3  216.40   11.77
  11  -8   3   66.17   10.37
 -11   8  -3   63.45    7.80
 -12   8  -3   83.89    9.13
  12  -8   3   82.34   11.81
  13  -8   3   36.38   10.05
 -13   8  -3   40.03    7.97
 -14   8  -3   77.40   10.65
  14  -8   3  116.92   15.24
 -15   8  -3   82.37   11.57
  15  -8   3  103.01   15.30
  16  -8   3   -1.93    8.89
 -16   8  -3    7.02    7.36
  17  -8   3   -5.77    6.41
 -17   8  -3    5.10    7.53
 -18   8  -3  109.88   14.96
 -11  -7   3   -2.94    4.61
 -10  -7   3   15.11    8.03
  -9  -7   3    1.34    6.98
  -8  -7   3  226.24   16.35
  -7  -7   3    8.55    5.80
  -6  -7   3   58.45    8.77
  -5  -7   3   44.27    7.24
  -4  -7   3  105.97    9.27
  -3  -7   3 1028.78   34.06
  -2  -7   3   18.24    4.52
  -1  -7   3  126.24    8.23
  -1  -7   3  121.61    8.16
  -1   7  -3  158.15    8.34
  -2   7  -3  266.26   10.99
  -3   7  -3  798.29   24.51
   4  -7   3    2.34    2.59
  -4   7  -3    0.99    1.78
   5  -7   3  400.52   17.41
  -5   7  -3  430.04   14.99
  -6   7  -3 2526.69   69.02
   6  -7   3 2603.18   78.85
  -7   7  -3  201.15    9.69
   7  -7   3  193.08   12.42
  -8   7  -3  307.74   13.10
   8  -7   3  321.38   17.20
  -9   7  -3   54.33    6.15
   9  -7   3   63.37    9.01
 -10   7  -3   67.27    7.25
  10  -7   3   68.44    9.93
  11  -7   3   13.55    5.99
 -11   7  -3    5.37    5.09
  12  -7   3  261.29   18.65
 -12   7  -3  239.85   14.33
  13  -7   3  336.11   22.08
 -13   7  -3  308.90   17.31
 -14   7  -3   74.97   10.50
  14  -7   3   71.90   13.65
  15  -7   3    4.27    9.66
 -15   7  -3   -0.30    6.77
 -16   7  -3   97.27   12.37
  16  -7   3   54.67   14.23
 -17   7  -3   43.03   10.36
  17  -7   3    1.01    7.23
 -18   7  -3   49.75   11.67
 -12  -6   3   -2.56    4.81
 -11  -6   3    4.27    7.31
 -10  -6   3  139.18   14.58
  -9  -6   3   21.79    7.80
  -8  -6   3  106.34   11.72
  -7  -6   3   63.07    9.13
  -6  -6   3  109.04    9.96
  -5  -6   3  332.81   16.35
  -4  -6   3  177.11   11.01
  -3  -6   3   33.37    5.14
  -2  -6   3  182.13    9.96
  -1  -6   3  171.04    9.10
  -1  -6   3  164.72    8.85
  -1   6  -3 1313.59   37.15
  -2   6  -3   15.46    2.81
  -3   6  -3  863.92   25.39
   4  -6   3  917.08   30.58
  -4   6  -3  892.80   26.49
  -5   6  -3   53.17    4.36
   5  -6   3   46.01    5.64
  -5   6  -3   52.74    4.36
   6  -6   3   -0.61    2.67
  -6   6  -3    1.96    1.96
   7  -6   3   22.87    5.28
  -7   6  -3   29.14    4.04
  -8   6  -3  281.83   12.37
   8  -6   3  264.40   15.59
  -9   6  -3  114.97    8.01
   9  -6   3  102.19   10.58
 -10   6  -3  852.23   28.86
  10  -6   3  819.66   34.59
  11  -6   3  514.37   26.17
 -11   6  -3  507.90   21.14
 -12   6  -3  140.67   11.17
  12  -6   3  164.89   15.80
  13  -6   3   11.37    8.72
 -13   6  -3    0.53    5.33
 -14   6  -3   33.91    8.22
  14  -6   3   24.55   10.78
 -15   6  -3  140.01   14.20
  15  -6   3  142.55   18.25
 -16   6  -3   10.30    7.93
  16  -6   3   16.59   10.21
 -17   6  -3  -11.32    6.51
  17  -6   3   -7.68    7.23
 -12  -5   3   -0.61    5.48
 -11  -5   3   35.78    9.66
 -10  -5   3   21.54    8.05
  -9  -5   3   18.05    6.36
  -8  -5   3  178.15   13.37
  -7  -5   3   39.58    7.51
  -6  -5   3  265.09   14.56
  -5  -5   3   64.29    7.13
  -4  -5   3  307.44   14.03
  -3  -5   3  181.19    9.85
  -2  -5   3  246.68   11.17
  -1  -5   3 1312.98   37.02
  -1  -5   3 1303.21   37.69
  -1   5  -3  437.68   14.25
  -2   5  -3   34.61    3.32
  -3   5  -3  708.28   20.52
   3  -5   3  682.35   23.61
  -4   5  -3   -0.64    1.48
   4  -5   3    0.46    1.13
   4  -5   3    0.56    2.28
  -5   5  -3  231.90    9.07
   5  -5   3  221.91   11.66
   6  -5   3 1115.86   38.42
  -6   5  -3 1126.75   32.28
   7  -5   3  409.29   18.89
  -7   5  -3  396.22   14.82
   8  -5   3 1669.22   56.03
  -8   5  -3 1650.05   47.47
   9  -5   3  380.28   20.35
  -9   5  -3  393.67   16.09
 -10   5  -3  561.56   21.96
  10  -5   3  591.96   27.57
  11  -5   3   -1.60    5.64
 -11   5  -3    5.15    4.71
  12  -5   3   11.90    7.42
 -12   5  -3   -0.79    4.59
 -13   5  -3  177.42   13.64
  13  -5   3  173.42   17.00
  14  -5   3   10.39    9.42
 -14   5  -3   15.82    6.60
 -15   5  -3   40.76    9.56
  15  -5   3   45.40   12.17
  16  -5   3   -9.92    8.91
 -16   5  -3    8.74    7.15
 -17   5  -3   -6.87    7.10
 -13  -4   3   -0.51    3.71
 -12  -4   3   40.22    9.14
 -11  -4   3    5.09    6.65
 -10  -4   3   35.50    8.28
  -9  -4   3    8.53    5.27
  -8  -4   3   38.47    7.14
  -7  -4   3   19.95    6.06
  -6  -4   3  448.60   19.17
  -5  -4   3  151.25    9.68
  -4  -4   3    0.86    2.32
  -3  -4   3  790.05   25.31
  -2  -4   3   14.77    3.00
  -1  -4   3  440.22   14.61
  -1  -4   3  410.87   14.07
  -1   4  -3 2316.13   60.37
  -2   4  -3  567.42   16.54
  -3   4  -3 2544.73   64.50
   3  -4   3 2464.29   72.93
   3  -4   3 2437.31   63.56
   4  -4   3  297.42   12.88
  -4   4  -3  294.96    9.95
   4  -4   3  281.47    8.58
   5  -4   3  271.04   13.12
  -5   4  -3  285.05   10.32
  -6   4  -3  426.17   14.67
   6  -4   3  421.59   18.40
   7  -4   3  302.00   16.11
  -7   4  -3  324.12   12.71
   8  -4   3 1398.05   48.57
  -8   4  -3 1390.57   41.04
   9  -4   3  122.15   12.34
  -9   4  -3  124.64    8.89
  10  -4   3   80.81   11.16
 -10   4  -3   73.83    7.98
 -11   4  -3   58.57    8.05
  11  -4   3   54.29   10.10
  12  -4   3    8.69    7.51
 -12   4  -3    3.32    5.14
  13  -4   3  168.72   17.15
 -13   4  -3  109.24   11.48
 -14   4  -3   38.03    8.88
  14  -4   3   39.13   11.23
 -15   4  -3   14.89    7.77
  15  -4   3   21.79   10.75
 -16   4  -3   43.35    9.57
 -17   4  -3   51.97   11.47
 -14  -3   3   -9.43    3.94
 -13  -3   3   31.66    8.39
 -12  -3   3   -0.75    6.15
 -11  -3   3    3.47    6.46
 -10  -3   3  101.62   11.17
  -9  -3   3   79.42    9.55
  -8  -3   3 1132.68   38.31
  -7  -3   3  294.11   14.93
  -6  -3   3   93.86    8.14
  -5  -3   3  619.55   22.22
  -4  -3   3    2.43    2.31
  -3  -3   3  832.08   25.62
  -2  -3   3   36.76    3.72
  -1  -3   3 2242.76   59.10
   0  -3   3    1.51    1.22
   0  -3   3    2.96    1.31
   2  -3   3 1934.33   49.94
   3  -3   3 2290.07   59.00
   3  -3   3 2338.29   68.22
   4  -3   3 1105.03   36.48
  -4   3  -3 1159.98   31.17
   4  -3   3 1157.35   29.96
  -5   3  -3   52.16    4.11
   5  -3   3   32.80    2.95
   5  -3   3   39.30    5.27
  -6   3  -3  331.63   12.38
   6  -3   3  312.48   15.22
   6  -3   3  305.79   10.77
   7  -3   3  205.45    9.22
   7  -3   3  223.54   13.36
  -7   3  -3  238.35   10.72
  -8   3  -3  226.82   11.21
   8  -3   3  184.14    9.39
   8  -3   3  248.89   14.55
  -9   3  -3    4.00    4.07
   9  -3   3    4.24    3.10
   9  -3   3    4.92    5.46
 -10   3  -3   78.24    8.27
  10  -3   3   84.93   11.25
 -11   3  -3  147.45   11.09
  11  -3   3  137.46   14.03
 -12   3  -3   86.08    9.85
  12  -3   3   98.77   13.10
  13  -3   3   17.34    9.45
 -13   3  -3   29.87    7.89
  14  -3   3    7.98    9.53
 -14   3  -3   10.79    6.66
 -15   3  -3   41.39    9.75
 -16   3  -3    4.28    7.42
 -14  -2   3   -0.87    4.30
 -13  -2   3   46.35    9.67
 -12  -2   3   84.47   10.98
 -11  -2   3  108.94   11.64
 -10  -2   3  152.54   12.12
  -9  -2   3  237.24   14.36
  -8  -2   3    3.91    4.38
  -7  -2   3  173.07   10.81
  -6  -2   3  273.37   13.10
  -5  -2   3  375.12   15.12
  -4  -2   3  766.50   24.43
  -3  -2   3  684.25   21.40
  -2  -2   3  475.46   15.12
  -1  -2   3 6349.09  160.76
   0  -2   3   -2.66    1.09
   0  -2   3   -3.92    1.03
  -1   2  -3 1494.98   38.41
   1  -2   3 1472.55   38.58
   2  -2   3 7079.86  205.67
   2  -2   3 7320.37  184.10
  -2   2  -3 7605.10  185.49
   3  -2   3   81.95    3.65
   3  -2   3   66.44    5.37
   4  -2   3    3.67    2.51
   4  -2   3    4.14    1.47
  -4   2  -3    2.89    1.69
  -5   2  -3  801.83   23.77
   5  -2   3  791.11   22.70
   5  -2   3  779.38   27.86
  -6   2  -3  687.91   21.92
   6  -2   3  672.17   20.87
   6  -2   3  674.56   25.92
   7  -2   3  190.24   12.14
  -7   2  -3  201.21   10.09
   7  -2   3  155.87    8.74
  -8   2  -3  286.03   13.51
   8  -2   3  280.18   12.48
   8  -2   3  292.36   16.57
   9  -2   3  248.63   12.37
  -9   2  -3  281.69   13.99
   9  -2   3  258.76   16.44
 -10   2  -3  839.23   30.60
  10  -2   3  885.18   36.22
  11  -2   3   55.53   10.50
 -11   2  -3   52.98    8.09
  12  -2   3    9.95    8.27
 -12   2  -3   10.85    5.94
  13  -2   3   79.08   13.11
 -13   2  -3   93.67   11.22
 -14   2  -3   33.27    8.51
 -15   2  -3    6.44    6.87
 -16   2  -3    5.04    7.36
 -15  -1   3   -1.69    4.15
 -14  -1   3   33.44    8.86
 -13  -1   3   44.95    9.65
 -12  -1   3   44.97    8.79
 -11  -1   3   32.12    7.55
 -10  -1   3   18.76    6.10
  -9  -1   3   36.96    6.79
  -8  -1   3   -1.01    3.37
  -7  -1   3  329.07   14.97
  -6  -1   3 2404.05   67.03
  -5  -1   3   46.84    5.07
  -4  -1   3    1.22    2.31
  -3  -1   3 2242.79   59.74
  -2  -1   3 1792.65   47.54
  -1  -1   3 1356.31   35.67
   0  -1   3    0.90    0.81
   1  -1   3 1190.81   31.21
   2  -1   3 2426.41   71.08
  -2   1  -3 2462.17   63.29
   2  -1   3 2499.16   63.07
   3  -1   3 1303.07   34.68
   3  -1   3 1292.79   39.88
   4  -1   3  242.38   11.12
   4  -1   3  219.32    8.66
  -4   1  -3  239.53    9.39
   5  -1   3  887.89   26.09
   5  -1   3  868.35   30.60
  -5   1  -3  897.57   26.81
   6  -1   3   15.76    3.60
   6  -1   3   22.77    5.06
  -6   1  -3   25.89    4.14
  -7   1  -3   11.95    3.62
   7  -1   3    6.67    4.34
   7  -1   3    1.87    3.46
   8  -1   3 1169.53   36.05
  -8   1  -3 1177.84   37.24
   8  -1   3 1188.35   42.65
  -9   1  -3   16.37    5.30
   9  -1   3    9.99    4.61
   9  -1   3    8.57    6.07
  10  -1   3   -0.06    5.55
 -10   1  -3   -1.07    4.61
 -11   1  -3   61.56    8.96
  11  -1   3   35.55    9.23
  12  -1   3    6.54    7.82
 -12   1  -3    5.94    6.18
 -13   1  -3   23.35    7.78
 -14   1  -3   29.88    8.25
 -15   1  -3   52.64   10.80
 -16   1  -3    3.97    7.44
 -15   0   3    1.86    3.90
 -14   0   3   85.80   12.01
 -13   0   3   -9.70    5.21
 -12   0   3   -0.05    5.56
 -11   0   3   49.38    8.04
 -10   0   3   80.58    9.21
  -9   0   3  342.33   16.56
  -8   0   3 1368.38   42.47
  -7   0   3  198.36   10.92
  -6   0   3    0.84    2.58
  -5   0   3  245.02   10.70
  -4   0   3  292.42   11.14
  -3   0   3 2215.78   58.48
  -2   0   3 7255.16  179.80
  -2   0   3 7046.70  180.48
  -1   0   3 1188.10   30.96
  -1   0   3 1181.43   31.10
   0   0   3    0.25    0.69
   0   0   3    0.90    0.80
   1   0   3 3616.72   90.13
  -1   0  -3 3520.56   90.27
  -1   0  -3 3498.34   88.38
   2   0   3  678.49   19.17
   2   0   3  650.67   21.23
   3   0   3  673.18   22.74
  -3   0  -3  674.36   20.26
   3   0   3  697.50   20.35
   4   0   3   17.97    3.61
  -4   0  -3   17.54    3.04
   4   0   3   13.25    2.96
   5   0   3   42.02    4.87
   5   0   3   56.44    6.17
  -5   0  -3   51.44    5.01
   6   0   3 1756.90   49.26
  -6   0  -3 1678.69   49.49
   6   0   3 1758.67   55.98
  -7   0  -3   46.05    5.97
   7   0   3   44.69    7.02
   7   0   3   28.21    5.30
  -8   0  -3   53.78    7.56
   8   0   3   83.65    7.96
   8   0   3   76.16    9.29
  -9   0  -3  107.44    9.52
   9   0   3   96.43    9.12
   9   0   3   87.65   11.13
  10   0   3   77.03   11.03
 -10   0  -3   60.76    8.64
  11   0   3   14.44    8.12
 -11   0  -3    5.77    6.13
 -12   0  -3  130.27   12.80
 -13   0  -3   79.92   11.36
 -14   0  -3   12.96    7.61
 -15   0  -3   21.03    8.36
 -16   1   3   -0.31    4.38
 -15   1   3    6.30    6.40
 -14   1   3  105.03   12.19
 -13   1   3  106.62   11.58
 -12   1   3   32.62    7.58
 -11   1   3   40.01    7.60
 -10   1   3  572.45   23.38
  -9   1   3   53.30    7.23
  -8   1   3  272.24   13.55
  -7   1   3   28.48    4.86
  -6   1   3 1097.83   33.11
  -5   1   3  261.76   10.76
  -4   1   3 1105.39   31.02
  -4   1   3 1080.67   29.52
  -3   1   3   52.84    2.92
  -2   1   3 2607.87   67.18
  -1   1   3 3951.91   98.99
  -1   1   3 3832.19   98.48
   0   1   3    1.61    1.21
   0   1   3    0.64    1.09
   1   1   3 4837.00  123.83
   1   1   3 4916.93  137.23
   2   1   3    2.04    1.85
  -2  -1  -3    1.34    1.60
   2   1   3    2.67    1.76
  -3  -1  -3   45.89    4.02
   3   1   3   45.49    4.24
   4   1   3  526.32   19.95
   4   1   3  573.23   18.66
  -4  -1  -3  513.01   17.95
   5   1   3   14.92    4.13
   5   1   3   11.50    3.57
  -5  -1  -3   10.97    3.56
   6   1   3    1.54    3.73
  -6  -1  -3    2.11    3.48
   6   1   3    6.13    3.57
   7   1   3   18.48    5.35
   7   1   3   25.85    6.14
  -7  -1  -3   31.78    5.71
   8   1   3   87.96    9.23
   8   1   3  104.61   10.62
  -8  -1  -3   98.53    9.25
   9   1   3   53.22    7.87
   9   1   3   55.09    9.46
  -9  -1  -3   59.27    8.39
 -10  -1  -3   46.06    8.22
 -11  -1  -3  194.55   14.17
 -12  -1  -3   30.30    8.79
 -13  -1  -3   26.54    8.41
 -14  -1  -3    8.75    7.79
 -15  -1  -3   23.77    9.81
 -16   2   3    2.54    4.45
 -15   2   3  136.93   14.25
 -14   2   3  173.54   14.39
 -13   2   3  106.50   11.64
 -12   2   3  348.35   18.45
 -11   2   3  105.03    9.79
 -10   2   3  206.93   12.73
  -9   2   3   37.78    6.12
  -8   2   3  247.25   12.50
  -7   2   3  356.81   14.68
  -6   2   3  425.69   15.16
  -6   2   3  379.41   12.57
  -5   2   3   41.11    3.08
  -5   2   3   49.43    4.43
  -4   2   3    2.79    1.13
  -4   2   3    2.42    1.91
  -3   2   3 1411.85   38.04
  -3   2   3 1402.41   36.77
  -2   2   3  690.34   19.80
  -1   2   3 4926.89  126.18
  -1   2   3 5004.70  125.80
   0   2   3    3.85    1.83
   0   2   3    2.90    1.86
   1   2   3    3.05    1.85
   1   2   3    5.25    2.09
  -2  -2  -3   94.82    5.56
  -2  -2  -3   91.27    5.35
   2   2   3   79.97    5.62
   2   2   3   74.75    5.21
   3   2   3    3.61    2.71
   3   2   3    3.25    2.44
  -3  -2  -3    4.95    2.36
   4   2   3  560.22   20.18
  -4  -2  -3  586.51   19.83
  -5  -2  -3  289.54   13.15
   5   2   3  284.00   13.43
   6   2   3   92.76    8.67
   6   2   3   91.23    8.62
  -6  -2  -3   93.11    8.04
  -7  -2  -3   34.10    6.44
   7   2   3   30.32    6.94
   7   2   3   22.60    6.29
  -8  -2  -3  993.71   34.81
   8   2   3 1007.60   34.45
  -9  -2  -3    9.51    5.40
   9   2   3    4.70    4.43
 -10  -2  -3   21.29    6.68
 -11  -2  -3   19.63    7.54
 -12  -2  -3   21.89    7.90
 -13  -2  -3   22.66    8.65
 -14  -2  -3    2.08    8.18
 -16   3   3   11.09    5.70
 -15   3   3   16.17    7.53
 -14   3   3  124.48   12.89
 -13   3   3  139.26   12.41
 -12   3   3  363.09   18.59
 -11   3   3   62.97    8.43
 -10   3   3   66.30    7.76
  -9   3   3   88.90    8.10
  -8   3   3 1499.98   45.70
  -8   3   3 1578.45   41.85
   8  -3  -3 1592.59   53.42
  -7   3   3  334.78   13.73
  -7   3   3  328.24   10.63
   7  -3  -3  302.62   16.33
  -6   3   3  311.41    9.88
   6  -3  -3  310.81   15.36
  -6   3   3  325.98   12.74
   5  -3  -3  842.62   29.85
  -5   3   3  858.62   23.24
  -5   3   3  875.72   25.97
  -4   3   3  257.62   10.01
  -4   3   3  261.83    8.38
   4  -3  -3  260.93   11.78
  -3   3   3  685.50   20.03
  -3   3   3  750.32   21.41
  -2   3   3    0.82    1.74
  -2   3   3    3.34    1.52
  -1   3   3    3.81    1.92
  -1   3   3    6.73    1.98
   0   3   3    0.26    1.62
   0   3   3    3.19    1.98
   1   3   3   77.68    5.65
   1   3   3   66.27    5.03
  -2  -3  -3  262.16   10.68
   2   3   3  249.82   10.32
   2   3   3  257.14   11.35
  -2  -3  -3  251.08   10.77
   3   3   3 3139.90   92.03
   3   3   3 3217.13   85.44
  -3  -3  -3 3138.95   84.89
   4   3   3  609.99   22.89
   4   3   3  641.55   22.75
  -4  -3  -3  603.85   21.57
   5   3   3   19.06    5.09
  -5  -3  -3   21.17    4.66
  -6  -3  -3  952.53   32.84
   6   3   3 1014.88   33.68
  -7  -3  -3    8.34    4.69
   7   3   3    4.78    4.64
   8   3   3   -4.43    4.00
  -8  -3  -3    4.40    5.49
  -9  -3  -3  100.94   11.17
 -10  -3  -3   63.04   10.06
 -11  -3  -3   13.60    7.69
 -12  -3  -3   19.68    8.32
 -13  -3  -3   64.11   11.50
 -17   4   3    1.06    4.70
 -16   4   3    8.18    6.65
 -15   4   3  108.83   12.95
 -14   4   3   95.08   11.50
 -13   4   3  120.26   11.95
 -12   4   3   78.13    9.60
 -11   4   3    8.95    4.75
 -10   4   3  774.79   28.34
  10  -4  -3  815.85   33.84
  -9   4   3  390.66   16.63
   9  -4  -3  359.31   19.84
  -8   4   3 1365.95   41.41
   8  -4  -3 1395.45   48.20
   7  -4  -3  225.38   13.83
  -7   4   3  268.21   11.78
  -6   4   3  718.43   22.31
   6  -4  -3  634.07   25.59
  -5   4   3  966.49   25.81
  -5   4   3  940.50   28.24
   5  -4  -3  941.08   32.44
  -4   4   3   20.31    2.25
  -4   4   3   22.14    3.33
   4  -4  -3   17.67    3.25
  -2   4   3   80.03    5.18
  -2   4   3   92.38    5.28
  -1   4   3   75.18    5.35
  -1   4   3   80.60    5.37
   0   4   3    0.59    1.87
   0   4   3    1.33    2.22
   1   4   3 3546.49   93.43
   1   4   3 3560.51   94.22
  -2  -4  -3  198.76    9.91
  -2  -4  -3  209.88   10.24
   2   4   3  192.37   10.51
   3   4   3   77.64    7.21
  -3  -4  -3   68.82    6.24
   4   4   3  783.23   27.75
  -4  -4  -3  793.91   27.08
  -5  -4  -3   52.14    6.70
   5   4   3   56.45    7.73
   6   4   3   21.02    5.88
  -6  -4  -3   17.36    5.57
   7   4   3   69.42    8.75
  -7  -4  -3   70.82    8.99
   8   4   3  263.27   16.16
  -8  -4  -3  264.18   16.32
  -9  -4  -3   10.08    6.91
 -10  -4  -3    7.94    7.00
 -11  -4  -3   31.97    9.42
 -12  -4  -3    4.56    7.68
 -13  -4  -3    9.03    8.65
 -17   5   3   -0.75    4.61
 -16   5   3   57.96   10.30
 -15   5   3   38.35    9.35
 -14   5   3   86.61   10.93
 -13   5   3   40.32    8.42
 -12   5   3  261.45   15.37
 -11   5   3  496.46   21.46
  11  -5  -3  508.92   25.90
 -10   5   3  575.26   22.97
  10  -5  -3  603.90   27.76
   9  -5  -3   96.66   10.88
  -9   5   3  126.86    9.01
   8  -5  -3  216.22   13.87
  -8   5   3  204.08   11.10
  -7   5   3  189.08    9.76
   7  -5  -3  164.46   12.11
   6  -5  -3   23.04    4.95
  -6   5   3   31.73    2.77
  -6   5   3   29.78    4.26
  -5   5   3   51.64    4.98
   5  -5  -3   35.45    5.19
  -5   5   3   48.41    3.62
  -4   5   3  594.27   19.43
   4  -5  -3  568.09   20.83
  -4   5   3  595.68   17.95
  -3   5   3    9.14    3.00
  -3   5   3    6.78    2.13
   3  -5  -3    7.88    2.23
  -2   5   3  259.30   10.99
  -2   5   3  269.13   10.81
  -1   5   3 3726.50   97.86
  -1   5   3 3708.60   97.67
   0   5   3    0.94    2.83
   0   5   3    2.81    2.69
   1   5   3  174.07    9.95
   2   5   3  289.95   14.09
  -2  -5  -3  305.82   13.58
  -2  -5  -3  293.09   13.24
  -3  -5  -3  752.21   26.09
   3   5   3  733.51   26.75
   4   5   3   81.02    8.62
  -4  -5  -3   81.09    7.96
   5   5   3  122.98   10.19
  -5  -5  -3  124.66   10.10
  -6  -5  -3  243.71   14.58
   6   5   3  259.97   15.19
  -7  -5  -3   20.51    6.32
   7   5   3   10.52    6.02
  -8  -5  -3   36.53    8.19
  -9  -5  -3   70.08   11.31
 -10  -5  -3   75.72   11.89
 -11  -5  -3   40.32   10.30
 -12  -5  -3   14.66    9.53
 -17   6   3    1.21    4.79
 -16   6   3  103.31   13.27
 -15   6   3   20.33    8.53
 -14   6   3  108.00   11.85
 -13   6   3  321.88   18.14
  12  -6  -3  145.15   14.34
 -12   6   3  136.18   11.43
 -11   6   3    1.74    4.84
  11  -6  -3   -0.19    5.20
 -10   6   3   73.24    8.30
  10  -6  -3   89.49   10.93
   9  -6  -3    5.68    5.78
  -9   6   3    7.52    4.06
  -8   6   3  293.04   13.40
   8  -6  -3  304.75   16.81
   7  -6  -3    3.66    4.25
  -7   6   3   13.24    3.65
  -6   6   3 1829.44   48.84
   6  -6  -3 1869.41   58.56
  -6   6   3 1821.24   52.03
   5  -6  -3    9.56    3.65
  -5   6   3   17.25    2.70
  -5   6   3   16.06    3.84
  -4   6   3  601.45   20.64
   4  -6  -3  618.35   21.57
  -3   6   3 3123.86   85.59
  -3   6   3 3313.64   85.37
  -2   6   3  220.10   10.43
  -2   6   3  214.05   10.34
  -1   6   3  172.58    9.63
  -1   6   3  168.32    9.29
   0   6   3   -2.24    2.43
   0   6   3   -0.70    2.95
   1   6   3  851.07   29.03
  -2  -6  -3    3.27    3.41
   2   6   3    4.51    3.65
  -2  -6  -3   -1.24    3.02
   3   6   3  161.61   11.25
  -3  -6  -3  182.79   11.27
   4   6   3  440.07   20.21
  -4  -6  -3  439.76   19.54
  -5  -6  -3   -2.33    4.40
   5   6   3   -0.46    4.18
  -6  -6  -3   74.59    9.68
   6   6   3   72.16    9.84
   7   6   3    2.85    4.95
  -7  -6  -3    7.50    6.02
  -8  -6  -3   44.52    9.49
  -9  -6  -3   20.89    9.12
 -10  -6  -3   75.60   12.51
 -11  -6  -3   46.67   11.42
 -17   7   3   -0.75    4.50
 -16   7   3    8.35    7.37
 -15   7   3   77.96   11.65
 -14   7   3   64.14    9.94
 -13   7   3   -0.95    5.20
  12  -7  -3    6.58    6.59
 -12   7   3   -0.85    4.62
  11  -7  -3   62.90   10.16
 -11   7   3   57.47    7.92
 -10   7   3   90.28    8.75
  10  -7  -3  106.77   11.79
   9  -7  -3  272.26   16.80
  -9   7   3  244.76   12.91
  -8   7   3 1234.05   38.05
   8  -7  -3 1203.45   43.72
  -7   7   3   29.22    3.36
  -7   7   3   40.23    5.61
   7  -7  -3   29.27    6.45
  -6   7   3    7.19    2.39
   6  -7  -3    1.02    3.15
  -6   7   3    3.44    3.33
   5  -7  -3  306.45   13.99
  -5   7   3  314.29   12.30
  -5   7   3  317.15   13.63
  -4   7   3  390.08   14.69
  -3   7   3   70.73    6.12
  -3   7   3   69.39    6.57
  -2   7   3  304.01   13.36
  -2   7   3  287.44   13.21
  -1   7   3  869.31   28.74
  -1   7   3  827.63   27.87
   0   7   3    6.10    3.51
   0   7   3    0.02    3.47
  -1  -7  -3  401.60   17.25
  -1  -7  -3  385.49   17.34
   1   7   3  415.39   18.31
  -2  -7  -3   96.77    8.39
  -2  -7  -3  109.11    8.99
   2   7   3   94.76    9.47
   3   7   3   15.57    5.18
  -3  -7  -3   10.13    4.67
  -4  -7  -3   11.52    5.16
   4   7   3   19.90    5.94
   5   7   3   22.78    6.81
  -5  -7  -3   28.08    7.08
   6   7   3   19.95    6.79
  -6  -7  -3   21.54    7.39
  -7  -7  -3   22.32    8.01
  -8  -7  -3  129.20   14.35
  -9  -7  -3   20.24    8.45
 -10  -7  -3   14.46    8.89
 -17   8   3    4.55    4.42
 -16   8   3    6.53    7.02
 -15   8   3    1.80    6.78
 -14   8   3   26.60    7.62
 -13   8   3  195.52   14.04
  13  -8  -3  207.42   17.52
  12  -8  -3   -0.39    6.88
 -12   8   3    9.64    4.96
  11  -8  -3  174.28   14.96
 -11   8   3  156.56   11.25
  10  -8  -3  975.04   38.17
 -10   8   3  873.95   31.45
  -9   8   3   19.18    5.23
   9  -8  -3    8.39    5.88
   8  -8  -3   69.89    8.76
  -8   8   3   71.08    7.50
  -7   8   3   25.28    5.29
  -7   8   3   25.32    3.56
   7  -8  -3   20.13    5.68
   6  -8  -3  117.94    8.87
  -6   8   3  110.09    8.40
  -6   8   3  119.11    7.30
  -5   8   3   18.76    4.86
   5  -8  -3   19.71    3.97
  -5   8   3   18.75    3.93
  -4   8   3  843.97   27.95
  -4   8   3  817.84   27.06
  -3   8   3  766.27   26.49
  -3   8   3  795.82   26.73
  -2   8   3    1.91    3.15
  -2   8   3    1.65    3.65
  -1   8   3  379.70   17.28
  -1   8   3  411.49   17.34
   0   8   3   -1.32    3.76
   0   8   3    0.02    3.78
  -1  -8  -3   69.01    8.14
  -1  -8  -3   78.98    8.40
   1   8   3   68.97    8.46
  -2  -8  -3   32.83    6.45
  -2  -8  -3   29.05    6.17
   2   8   3   30.14    6.98
   3   8   3   98.83   10.57
  -3  -8  -3  110.17   10.07
  -4  -8  -3   31.05    7.51
   4   8   3   34.04    7.48
  -5  -8  -3   16.21    6.45
   5   8   3   18.21    6.75
  -6  -8  -3  216.02   15.90
  -7  -8  -3    7.91    7.28
  -8  -8  -3   62.61   11.43
  -9  -8  -3   10.03    7.71
 -17   9   3    3.07    4.26
 -16   9   3  105.25   12.89
 -15   9   3  143.79   14.03
 -14   9   3   20.40    6.85
  13  -9  -3  159.42   16.99
 -13   9   3  135.47   11.93
  12  -9  -3  108.31   13.38
 -12   9   3   97.37   10.28
 -11   9   3   53.32    7.90
  11  -9  -3   52.77    9.79
  10  -9  -3   -3.54    5.38
 -10   9   3   -3.13    4.26
  -9   9   3   87.24    8.97
   9  -9  -3  108.96   10.82
  -8   9   3  103.29    8.94
   8  -9  -3  113.29   10.69
   7  -9  -3   39.12    6.63
  -7   9   3   29.91    6.04
   6  -9  -3  985.95   34.93
  -6   9   3 1042.15   33.36
  -6   9   3 1004.46   31.37
  -5   9   3   64.16    7.41
  -4   9   3   89.82    8.26
  -4   9   3   90.40    8.07
  -3   9   3  205.96   11.80
  -3   9   3  197.78   11.71
  -2   9   3  106.50    9.05
  -2   9   3   96.34    8.85
  -1   9   3   58.49    7.47
  -1   9   3   49.07    7.47
   0   9   3    0.02    4.18
   0   9   3    4.93    4.81
  -1  -9  -3  346.52   17.00
  -1  -9  -3  338.22   17.18
   1   9   3  317.27   17.76
  -2  -9  -3   19.01    6.24
   2   9   3   11.25    5.90
  -2  -9  -3   15.04    5.45
   3   9   3    2.46    5.55
  -3  -9  -3   13.84    5.78
  -4  -9  -3  219.12   15.33
   4   9   3  231.88   15.69
  -5  -9  -3   -2.59    5.78
  -6  -9  -3   47.75   10.20
  -7  -9  -3    5.27    7.45
  -8  -9  -3   27.46    9.12
 -17  10   3    1.94    4.51
 -16  10   3   11.08    7.08
 -15  10   3   50.77   10.01
  14 -10  -3   31.60    9.89
 -14  10   3   21.85    7.52
  13 -10  -3   35.91   10.48
 -13  10   3   31.69    7.57
  12 -10  -3   29.66    9.72
 -12  10   3   16.86    6.34
  11 -10  -3   55.91   10.12
 -11  10   3   57.82    8.07
 -10  10   3   67.99    8.59
  10 -10  -3   69.29   10.35
   9 -10  -3   56.96    8.92
  -9  10   3   59.78    7.97
  -8  10   3 1046.46   35.42
   8 -10  -3 1052.37   38.89
  -7  10   3   19.77    5.55
  -6  10   3   31.82    5.28
  -6  10   3   12.00    4.89
  -5  10   3  158.89   10.09
  -5  10   3  146.15   10.71
  -4  10   3  421.20   18.83
  -4  10   3  436.01   18.60
  -3  10   3   16.35    5.08
  -3  10   3   17.48    5.75
  -2  10   3   39.54    7.12
  -2  10   3   31.83    6.62
  -1  10   3  319.85   16.82
  -1  10   3  346.39   17.87
   0  10   3   -5.52    4.71
   1  10   3    2.00    5.18
  -1 -10  -3    6.41    5.06
  -1 -10  -3    3.78    4.58
  -2 -10  -3   42.04    7.85
  -2 -10  -3   47.69    8.38
   2  10   3   45.86    8.89
  -3 -10  -3   46.54    9.08
   3  10   3   33.98    8.47
  -4 -10  -3   13.42    6.90
  -5 -10  -3   51.97   10.00
  -6 -10  -3   47.03   10.24
  -7 -10  -3    5.76    5.69
 -17  11   3   -3.55    4.45
 -16  11   3   -3.69    5.24
 -15  11   3   43.12    9.27
  14 -11  -3   37.77    9.85
 -14  11   3   14.40    6.85
 -13  11   3   67.43   10.13
  13 -11  -3  103.83   14.06
 -12  11   3    9.69    6.38
  12 -11  -3    7.56    7.41
  11 -11  -3   14.36    7.25
 -11  11   3   17.21    6.45
 -10  11   3   67.71    8.91
  -9  11   3   10.77    5.51
  -8  11   3   -0.48    4.21
  -7  11   3   84.86    9.20
  -6  11   3  292.06   15.72
  -5  11   3   -0.55    4.70
  -5  11   3    0.27    3.47
  -4  11   3   10.77    5.77
  -4  11   3    8.03    5.07
  -3  11   3  114.27   10.72
  -3  11   3  101.24   10.29
  -2  11   3   11.47    5.96
  -2  11   3   10.81    5.73
  -1  11   3    3.60    5.27
  -1  11   3    3.47    5.44
   0  11   3    0.40    5.25
   0 -11  -3    6.86    4.90
   0 -11  -3   -4.33    4.59
   1  11   3   88.31   11.33
  -1 -11  -3  103.04   11.41
  -1 -11  -3  127.70   12.20
   2  11   3   -0.85    6.16
  -2 -11  -3    0.57    5.09
  -2 -11  -3   11.89    6.49
  -3 -11  -3  129.06   13.65
  -4 -11  -3   61.11   10.91
  -5 -11  -3   70.49   11.58
  -6 -11  -3   -5.65    4.29
 -16  12   3    0.27    3.70
 -15  12   3   55.18    9.98
  14 -12  -3   36.15   10.02
 -14  12   3   42.52    9.08
 -13  12   3   15.01    7.35
 -12  12   3  117.41   11.74
 -11  12   3  175.87   12.89
 -10  12   3   28.12    7.21
  -9  12   3  107.13   10.78
  -8  12   3  254.94   15.17
  -7  12   3   19.17    6.70
  -6  12   3   78.92    9.65
  -5  12   3   23.88    6.89
  -5  12   3   30.70    7.43
  -4  12   3   23.17    6.88
  -4  12   3   32.07    7.59
  -3  12   3   10.79    6.25
  -3  12   3    9.18    5.70
  -2  12   3   40.97    8.23
  -2  12   3   33.05    7.87
  -1  12   3   88.13   11.04
   0 -12  -3    2.89    5.16
   0 -12  -3   -1.89    4.69
   0  12   3   -0.03    5.63
  -1 -12  -3   91.64   11.43
  -1 -12  -3   91.38   11.78
  -2 -12  -3   18.22    6.96
  -2 -12  -3   25.30    7.64
  -3 -12  -3  131.12   14.37
  -4 -12  -3   -7.48    4.74
  -5 -12  -3   -5.62    4.45
 -16  13   3    1.12    4.43
 -15  13   3    1.03    5.50
 -14  13   3   19.52    7.05
 -13  13   3   84.39   11.39
 -12  13   3   36.12    8.25
 -11  13   3   30.71    8.05
 -10  13   3   60.46    9.40
  -9  13   3   10.65    6.31
  -8  13   3   41.75    8.23
  -7  13   3    6.41    5.90
  -6  13   3   28.93    7.80
  -5  13   3   24.57    7.77
  -5  13   3   33.20    7.64
  -4  13   3  225.86   15.18
  -4  13   3  206.65   14.64
  -3  13   3   45.38    9.41
  -3  13   3   53.85    9.38
  -2  13   3    5.78    6.62
  -2  13   3   -0.94    6.45
   1 -13  -3  106.90   12.74
   1 -13  -3   94.06   12.46
   0 -13  -3    3.30    6.09
   0 -13  -3    2.01    5.78
  -1 -13  -3  148.42   14.89
  -1 -13  -3  137.96   14.21
  -2 -13  -3    0.06    6.21
  -3 -13  -3   -6.91    4.59
 -15  14   3    2.86    4.46
 -14  14   3   -3.96    5.15
 -13  14   3   33.02    8.69
 -12  14   3   29.20    8.14
 -11  14   3    9.68    6.44
 -10  14   3    5.27    6.06
  -9  14   3   55.25    9.33
  -8  14   3   44.24    9.10
  -7  14   3   28.64    8.10
  -6  14   3  198.69   14.77
  -5  14   3    6.78    6.80
  -4  14   3   25.00    8.34
  -3  14   3   88.93   11.80
  -2  14   3    8.14    7.32
   1 -14  -3  144.21   15.10
   1 -14  -3  142.37   14.87
   0 -14  -3   -3.24    5.93
   0 -14  -3   -0.59    5.60
  -1 -14  -3   -1.22    4.15
  -1 -14  -3   -8.05    3.40
  -2 -14  -3   -3.14    3.98
 -15  15   3   -2.66    4.53
 -14  15   3    5.64    4.41
 -13  15   3    3.31    5.31
 -12  15   3    3.24    6.09
 -11  15   3   23.80    7.71
 -10  15   3   85.19   11.47
  -9  15   3   19.92    7.62
  -8  15   3  116.19   12.75
  -7  15   3    2.39    7.22
  -6  15   3   44.04    9.65
  -5  15   3   58.34   10.65
  -4  15   3   34.25    9.61
  -3  15   3  116.93   13.67
   2 -15  -3   -7.80    6.32
   2 -15  -3    3.89    6.04
   1 -15  -3   -6.73    4.22
   1 -15  -3   -4.27    4.02
   0 -15  -3   -5.08    3.97
   0 -15  -3    4.09    4.67
 -13  16   3    2.58    4.34
 -12  16   3   -2.82    4.27
 -11  16   3    0.81    4.37
 -10  16   3   -2.26    5.38
  -9  16   3    0.67    6.08
  -8  16   3   19.50    7.94
  -7  16   3    2.13    7.59
  -6  16   3   45.14   10.75
  -5  16   3   72.28   12.41
  -4  16   3    4.78    8.06
 -11  17   3   -5.20    4.00
 -10  17   3   -2.69    4.14
  -9  17   3   -2.81    4.19
  -8  17   3   19.61    8.80
  -7  17   3   38.70   10.52
  -6  17   3   61.91   12.31
  -7  19  -4   -2.31    4.20
  -8  19  -4   -2.09    4.41
  -9  19  -4  116.78   13.80
 -10  19  -4  101.08   13.04
 -11  19  -4   21.01    9.00
 -12  19  -4   13.53    8.59
   3 -18   4    4.22    9.34
   3 -18   4   -0.89    7.73
  -5  18  -4   -2.57    3.80
  -6  18  -4    1.20    5.41
  -7  18  -4  104.02   12.18
  -8  18  -4   51.04    9.98
  -9  18  -4   22.53    7.71
 -10  18  -4    1.04    6.16
 -11  18  -4   11.63    6.80
 -12  18  -4   21.70    7.58
 -13  18  -4   36.03    9.80
 -14  18  -4   60.67   11.13
   1 -17   4    3.54    7.59
   1 -17   4   15.22    8.03
   2 -17   4  114.93   14.74
   2 -17   4  121.09   14.74
   3 -17   4   21.35    9.20
   3 -17   4   11.67    7.93
  -4  17  -4    7.73    6.56
  -5  17  -4  134.43   13.61
  -6  17  -4   27.47    8.08
  -7  17  -4   56.03    9.48
  -8  17  -4   37.02    8.64
  -9  17  -4   27.36    8.12
 -10  17  -4   38.89    8.89
 -11  17  -4  113.42   12.43
 -12  17  -4   53.01    9.86
 -13  17  -4   16.48    7.58
 -14  17  -4    3.27    6.34
 -15  17  -4   28.10    8.86
  -1 -16   4    0.33    7.38
   0 -16   4  275.03   19.15
   0 -16   4  303.15   20.38
   1 -16   4    7.95    7.14
   1 -16   4    6.54    7.41
   2 -16   4    0.04    6.18
   2 -16   4    6.07    6.95
  -4  16  -4   -5.99    5.12
  -5  16  -4   45.30    9.02
  -6  16  -4   77.03   10.37
  -7  16  -4   35.20    8.51
  -8  16  -4   11.89    6.87
  -9  16  -4  118.03   12.01
 -10  16  -4   69.43   10.04
 -11  16  -4  122.02   12.36
 -12  16  -4   13.85    6.73
 -13  16  -4   21.54    7.63
 -14  16  -4   43.43    9.05
 -15  16  -4   59.76   10.39
 -16  16  -4   19.29    8.53
  -2 -15   4  152.99   15.94
  -1 -15   4   -1.70    6.12
   0 -15   4   14.83    6.90
   0 -15   4    8.05    6.91
   1 -15   4   21.71    6.86
   1 -15   4   19.18    6.88
   2 -15   4   13.58    6.62
   2 -15   4   20.89    7.38
  -3  15  -4   24.97    7.30
  -4  15  -4  146.11   12.54
  -5  15  -4  169.18   13.06
  -6  15  -4  164.50   12.80
  -7  15  -4  134.11   11.73
  -8  15  -4  128.26   11.73
  -9  15  -4  495.55   22.57
 -10  15  -4   34.13    7.71
 -11  15  -4    2.27    5.83
 -12  15  -4   36.02    8.14
 -13  15  -4   69.55   10.28
  13 -15   4   72.32   12.37
  14 -15   4   23.73    8.75
 -14  15  -4   16.48    7.57
 -15  15  -4   33.51    8.58
  15 -15   4   36.82   11.71
  16 -15   4    6.55    9.57
 -16  15  -4    4.56    6.65
 -17  15  -4   -5.37    7.21
  17 -15   4   -7.88   11.27
  -4 -14   4  129.91   15.26
  -3 -14   4    9.49    6.94
  -2 -14   4    6.64    6.81
  -1 -14   4   12.19    6.30
   0 -14   4    3.16    5.24
   0 -14   4    4.04    5.10
   1 -14   4   26.06    7.37
   1 -14   4   22.33    7.30
  -3  14  -4   12.09    5.96
  -4  14  -4  281.01   16.17
  -5  14  -4   67.41    9.07
  -6  14  -4   33.74    7.18
  -7  14  -4  458.22   20.81
  -8  14  -4  113.27   10.74
  -9  14  -4   21.88    6.44
 -10  14  -4    5.10    5.22
  10 -14   4    5.27    5.68
  11 -14   4   58.12   10.65
 -11  14  -4   66.59    9.18
  12 -14   4   72.41   11.91
 -12  14  -4   44.18    8.41
  13 -14   4  178.92   16.39
 -13  14  -4  147.36   12.74
 -14  14  -4   35.50    8.60
  14 -14   4   60.33   11.88
 -15  14  -4   44.87    9.25
  15 -14   4   68.49   14.53
 -16  14  -4   78.38   11.63
  16 -14   4   95.18   16.29
  17 -14   4   63.01   15.77
 -17  14  -4   59.96   11.25
  -5 -13   4   -0.58    6.41
  -4 -13   4    5.27    6.63
  -3 -13   4   96.97   12.07
  -2 -13   4   18.76    7.21
  -1 -13   4   26.53    7.40
  -1 -13   4   28.95    7.30
   0 -13   4  357.74   19.27
   0 -13   4  376.92   19.89
   1 -13   4    5.73    5.00
   1 -13   4   -0.59    4.80
  -2  13  -4  515.69   22.21
  -3  13  -4   58.69    8.36
  -4  13  -4   33.61    6.98
  -5  13  -4  482.24   20.78
  -6  13  -4   62.83    8.31
  -7  13  -4  255.44   14.12
  -8  13  -4   29.91    6.57
   8 -13   4   24.28    7.00
  -9  13  -4   16.55    5.91
   9 -13   4    9.17    5.46
 -10  13  -4   55.28    8.04
  10 -13   4   54.26    9.27
 -11  13  -4  109.32   10.33
  11 -13   4  145.49   13.97
  12 -13   4   83.78   12.46
 -12  13  -4   86.41    9.98
 -13  13  -4   29.75    7.91
  13 -13   4   48.00   10.53
  14 -13   4  138.21   16.17
 -14  13  -4  121.06   12.43
  15 -13   4   72.17   13.96
 -15  13  -4   81.55   10.72
 -16  13  -4    7.25    6.66
  16 -13   4   13.80    9.93
  17 -13   4   14.22   11.41
 -17  13  -4   18.02    7.71
 -18  13  -4    3.42    8.52
  -6 -12   4   19.25    7.76
  -5 -12   4  107.38   12.89
  -4 -12   4   -1.85    5.90
  -3 -12   4   11.95    6.03
  -2 -12   4  399.44   20.71
  -1 -12   4    3.22    4.38
  -1 -12   4    6.22    4.78
   0 -12   4  272.14   15.56
   0 -12   4  237.33   14.63
   1 -12   4   -4.96    3.40
   1 -12   4    2.58    4.37
  -2  12  -4  183.15   12.05
  -3  12  -4  391.18   18.01
  -4  12  -4  161.53   10.86
   5 -12   4   32.81    6.17
  -5  12  -4   27.48    5.94
  -6  12  -4  204.23   12.20
   6 -12   4  202.26   13.20
   7 -12   4   18.08    6.18
  -7  12  -4   17.44    5.54
   8 -12   4   98.81   10.91
  -8  12  -4   93.74    8.83
  -9  12  -4  235.52   13.28
   9 -12   4  253.25   16.08
 -10  12  -4  107.23    9.33
  10 -12   4  126.90   11.99
  11 -12   4   -0.87    5.86
 -11  12  -4   -1.14    4.43
 -12  12  -4    2.08    5.06
  12 -12   4    7.52    6.93
  13 -12   4   46.53   10.70
 -13  12  -4   51.45    8.52
  14 -12   4   27.00    9.75
 -14  12  -4    9.66    6.25
 -15  12  -4   14.41    7.29
  15 -12   4   25.07   10.66
 -16  12  -4   70.01   10.70
  16 -12   4   69.09   13.84
  17 -12   4   -0.24   10.87
 -17  12  -4    7.89    7.58
 -18  12  -4    7.85    8.85
  -6 -11   4   23.78    8.72
  -5 -11   4   57.81   10.19
  -4 -11   4  157.99   13.25
  -3 -11   4   14.12    5.88
  -2 -11   4  525.67   23.51
  -1 -11   4    7.38    4.48
  -1 -11   4    4.72    4.16
   0 -11   4   93.75    9.33
   0 -11   4   81.98    8.85
  -2  11  -4   18.23    5.51
  -3  11  -4    3.43    3.88
  -4  11  -4 1149.28   35.96
   4 -11   4 1095.23   38.15
   5 -11   4   30.11    5.95
  -5  11  -4   24.43    5.43
  -6  11  -4  127.70    9.22
   6 -11   4  130.78   10.39
  -7  11  -4 1286.01   39.99
   7 -11   4 1306.21   45.36
  -8  11  -4  279.52   13.76
   8 -11   4  265.23   16.60
   9 -11   4    9.79    5.12
  -9  11  -4   15.70    4.98
 -10  11  -4   82.71    8.36
  10 -11   4   84.10   10.74
  11 -11   4   33.05    8.35
 -11  11  -4   51.26    7.51
 -12  11  -4   29.60    6.62
  12 -11   4   24.88    8.40
  13 -11   4    1.16    6.73
 -13  11  -4    1.94    5.00
  14 -11   4  222.09   19.05
 -14  11  -4  175.62   13.85
  15 -11   4   17.56   10.47
 -15  11  -4   12.29    7.19
  16 -11   4    9.97    9.70
 -16  11  -4   -1.61    6.76
 -17  11  -4   33.55    9.49
  17 -11   4   41.01   12.49
 -18  11  -4   18.16    9.07
  -8 -10   4    1.07    4.92
  -7 -10   4   34.00    9.88
  -6 -10   4   54.38    9.93
  -5 -10   4  154.13   13.12
  -4 -10   4  251.13   15.91
  -3 -10   4   56.18    8.45
  -2 -10   4  200.26   12.95
  -1 -10   4   39.32    6.79
  -1 -10   4   42.21    6.90
   0 -10   4   68.62    7.86
   0 -10   4   73.87    7.86
  -1  10  -4    1.33    3.49
  -2  10  -4 2197.50   62.60
  -3  10  -4   17.37    4.36
   4 -10   4    7.56    3.77
  -4  10  -4    7.66    3.22
  -5  10  -4  697.85   24.08
   5 -10   4  716.42   27.01
  -6  10  -4   39.46    5.46
   6 -10   4   33.24    5.96
  -7  10  -4   94.72    7.27
   7 -10   4   98.78    9.41
   8 -10   4   13.52    5.62
  -8  10  -4   18.75    4.47
   9 -10   4   12.37    5.47
  -9  10  -4    6.92    4.21
 -10  10  -4   18.48    4.94
  10 -10   4   19.50    6.77
 -11  10  -4  101.71    9.17
  11 -10   4  112.18   12.71
 -12  10  -4   91.61    9.47
  12 -10   4  103.14   13.18
 -13  10  -4   19.86    6.57
  13 -10   4   26.11    8.79
  14 -10   4    2.73    7.47
 -14  10  -4   -3.25    5.55
 -15  10  -4    7.58    7.30
  15 -10   4   10.79    8.71
 -16  10  -4   33.02    9.01
  16 -10   4   36.38   11.58
  17 -10   4    4.92   10.96
 -17  10  -4   17.97    8.32
 -18  10  -4   -4.63    7.89
  -9  -9   4   -3.05    4.44
  -8  -9   4   25.85    8.64
  -7  -9   4   40.58    9.30
  -6  -9   4  161.65   13.32
  -5  -9   4   74.60    9.68
  -4  -9   4   21.34    5.98
  -3  -9   4  388.30   18.64
  -2  -9   4   24.70    5.75
  -1  -9   4    6.04    3.69
  -1  -9   4    0.76    3.36
   0  -9   4 1893.03   54.07
   0  -9   4 1843.64   54.87
  -1   9  -4   29.79    4.82
  -2   9  -4    2.22    2.76
  -3   9  -4  240.31   11.27
  -4   9  -4    9.87    3.44
   4  -9   4   14.98    4.11
   5  -9   4    3.95    3.19
  -5   9  -4    4.63    2.77
  -6   9  -4   45.30    5.17
   6  -9   4   42.60    6.42
  -7   9  -4  181.37    9.66
   7  -9   4  177.26   12.13
  -8   9  -4    8.65    3.61
   8  -9   4    3.21    4.48
   9  -9   4  492.31   23.10
  -9   9  -4  435.18   17.91
 -10   9  -4  226.57   12.30
  10  -9   4  221.48   15.64
  11  -9   4  108.74   12.49
 -11   9  -4   90.84    8.40
 -12   9  -4   58.71    7.83
  12  -9   4   72.23   11.32
 -13   9  -4   17.83    6.32
  13  -9   4   21.68    8.60
  14  -9   4   78.82   13.23
 -14   9  -4   47.61    9.40
  15  -9   4   31.09   10.83
 -15   9  -4   43.12    9.16
 -16   9  -4   75.33   11.86
  16  -9   4   81.01   15.14
  17  -9   4   38.04   12.20
 -17   9  -4   36.44    9.88
 -18   9  -4   -3.99    8.25
 -10  -8   4   -1.20    4.32
  -9  -8   4   19.64    8.60
  -8  -8   4   14.21    6.89
  -7  -8   4   83.13   11.10
  -6  -8   4   32.41    7.67
  -5  -8   4  468.23   21.48
  -4  -8   4  176.15   12.05
  -3  -8   4    5.25    3.62
  -2  -8   4 2123.99   61.82
  -1  -8   4   29.79    5.16
  -1  -8   4   23.35    4.73
   0  -8   4   16.98    4.45
   0  -8   4   21.51    4.55
  -1   8  -4   45.10    5.09
  -2   8  -4  150.50    8.17
  -3   8  -4   28.13    3.99
   4  -8   4 1051.05   35.80
  -4   8  -4 1093.84   32.12
   5  -8   4   21.76    4.71
  -5   8  -4   16.61    3.45
   6  -8   4  360.22   16.93
  -6   8  -4  351.69   13.79
   7  -8   4  512.02   22.28
  -7   8  -4  494.25   18.01
   8  -8   4   14.48    5.40
  -8   8  -4   11.63    3.51
  -9   8  -4  230.15   11.51
   9  -8   4  218.57   14.78
  10  -8   4    3.15    4.88
 -10   8  -4    2.34    3.57
 -11   8  -4   10.35    4.81
  11  -8   4    8.97    5.76
  12  -8   4   22.10    8.00
 -12   8  -4   19.34    5.81
  13  -8   4   13.67    7.58
 -13   8  -4   10.98    5.83
  14  -8   4  195.05   17.55
 -14   8  -4  164.77   13.79
  15  -8   4   22.61   10.26
 -15   8  -4   26.29    8.24
 -16   8  -4   32.26    9.63
  16  -8   4   10.61   10.53
 -17   8  -4   15.04    8.75
  17  -8   4  -16.39    6.29
 -18   8  -4   26.46   11.02
 -11  -7   4   -3.84    4.55
 -10  -7   4   34.89    9.31
  -9  -7   4  116.40   13.61
  -8  -7   4  149.64   13.39
  -7  -7   4  450.33   22.48
  -6  -7   4   81.18    9.47
  -5  -7   4   28.00    6.42
  -4  -7   4 1105.42   36.93
  -3  -7   4   11.79    4.55
  -2  -7   4    1.93    2.73
  -1  -7   4   50.68    5.61
  -1  -7   4   37.60    5.05
   0  -7   4   53.95    5.47
   0  -7   4   47.62    5.34
  -1   7  -4   90.02    6.11
  -2   7  -4 1234.89   35.54
  -3   7  -4   65.86    4.94
   4  -7   4  347.48   15.06
  -4   7  -4  339.90   12.52
   5  -7   4   84.39    7.58
  -5   7  -4   95.85    5.88
  -6   7  -4    5.26    2.49
   6  -7   4    2.96    3.45
  -7   7  -4  270.75   11.40
   7  -7   4  243.09   14.36
   8  -7   4   12.31    5.25
  -8   7  -4   16.16    3.58
   9  -7   4  132.52   11.56
  -9   7  -4  147.78    9.03
  10  -7   4   17.73    5.86
 -10   7  -4    9.63    4.43
 -11   7  -4    6.67    4.65
  11  -7   4   15.05    6.44
 -12   7  -4  188.99   12.62
  12  -7   4  182.42   15.56
 -13   7  -4   30.59    7.36
  13  -7   4   38.36   10.71
  14  -7   4   15.79   10.02
 -14   7  -4   -4.78    6.43
  15  -7   4   -1.84    9.49
 -15   7  -4    1.30    6.71
  16  -7   4    8.80    9.44
 -16   7  -4   30.25    9.42
 -17   7  -4   -1.60    7.45
  17  -7   4   -2.60    6.80
 -18   7  -4    7.12    8.89
 -12  -6   4    1.26    4.55
 -11  -6   4   67.66   11.41
 -10  -6   4   60.08   10.66
  -9  -6   4  421.23   22.30
  -8  -6   4  126.61   12.69
  -7  -6   4  227.14   14.82
  -6  -6   4  205.88   13.29
  -5  -6   4   26.30    5.84
  -4  -6   4    1.97    3.35
  -3  -6   4  246.16   12.26
  -2  -6   4  143.47    8.69
  -1  -6   4   99.71    6.63
  -1  -6   4  106.74    6.93
   0  -6   4 1801.25   49.99
   0  -6   4 1772.75   48.99
  -1   6  -4  694.82   21.44
  -2   6  -4  637.64   19.67
  -3   6  -4   81.26    4.96
  -4   6  -4    2.45    1.83
   4  -6   4    1.85    2.65
  -5   6  -4  105.14    5.77
   5  -6   4   81.88    4.47
  -5   6  -4  105.09    5.77
   5  -6   4   94.46    7.75
   6  -6   4  132.92    9.68
  -6   6  -4  135.17    7.01
  -7   6  -4  709.38   22.89
   7  -6   4  743.48   28.63
   8  -6   4   40.17    7.07
  -8   6  -4   51.14    5.26
   9  -6   4  162.43   12.68
  -9   6  -4  170.36    9.93
  10  -6   4  112.26   11.57
 -10   6  -4  125.02    9.01
 -11   6  -4   95.24    9.07
  11  -6   4  108.30   13.16
 -12   6  -4   29.70    6.58
  12  -6   4   51.72   11.34
 -13   6  -4   63.58    8.81
  13  -6   4   73.48   13.14
 -14   6  -4  179.62   14.29
  14  -6   4  176.99   18.16
  15  -6   4   13.87   10.37
 -15   6  -4   15.58    7.84
  16  -6   4   -8.55    9.68
 -16   6  -4   16.67    7.95
  17  -6   4    1.16    6.77
 -17   6  -4   60.35   11.39
 -12  -5   4   -7.36    4.91
 -11  -5   4  117.47   13.66
 -10  -5   4   29.50    8.80
  -9  -5   4   11.39    6.37
  -8  -5   4   13.10    6.24
  -7  -5   4    9.59    5.17
  -6  -5   4  127.16   10.08
  -5  -5   4  671.08   24.68
  -4  -5   4    9.38    3.55
  -3  -5   4   27.41    4.38
  -2  -5   4 1199.98   35.55
  -1  -5   4  667.86   20.71
  -1  -5   4  642.22   20.98
   0  -5   4  157.34    7.43
   0  -5   4  151.32    7.46
  -1   5  -4  170.01    7.14
  -2   5  -4    3.19    1.61
  -3   5  -4  286.05    9.90
   4  -5   4    3.31    1.31
  -4   5  -4    5.79    1.84
   4  -5   4    2.02    2.46
   5  -5   4  486.66   20.05
  -5   5  -4  533.87   16.15
   5  -5   4  500.27   14.41
  -6   5  -4   25.95    3.34
   6  -5   4   22.14    4.80
   7  -5   4   -0.51    3.14
  -7   5  -4    6.34    3.07
  -8   5  -4   12.54    3.50
   8  -5   4    8.94    4.84
   9  -5   4  762.22   31.50
  -9   5  -4  731.44   25.41
 -10   5  -4   59.76    7.19
  10  -5   4   59.14    9.66
  11  -5   4   32.74    9.01
 -11   5  -4   23.57    5.96
  12  -5   4   90.72   13.02
 -12   5  -4   70.91    8.83
 -13   5  -4   -4.43    5.23
  13  -5   4   -2.55    7.90
  14  -5   4   71.54   14.14
 -14   5  -4   47.59    9.27
  15  -5   4   73.65   14.91
 -15   5  -4   90.43   11.84
  16  -5   4   24.13    9.53
 -16   5  -4  111.96   13.04
 -17   5  -4    9.38    7.65
 -13  -4   4    1.21    4.12
 -12  -4   4   -1.44    6.44
 -11  -4   4   -0.02    6.22
 -10  -4   4   -2.28    5.49
  -9  -4   4    8.18    5.90
  -8  -4   4   79.51    9.18
  -7  -4   4 1162.97   38.96
  -6  -4   4   37.71    6.22
  -5  -4   4    2.67    2.88
  -4  -4   4 1013.85   31.85
  -3  -4   4   59.81    5.24
  -2  -4   4  602.78   19.60
  -1  -4   4  186.29    8.06
   0  -4   4  224.29    8.39
   0  -4   4  222.92    8.54
  -1   4  -4  692.38   19.71
  -3   4  -4    2.43    1.00
   3  -4   4    3.47    1.32
   3  -4   4    2.63    2.12
   4  -4   4  322.39   13.95
   4  -4   4  318.50    9.84
  -5   4  -4   57.45    4.12
   5  -4   4   59.59    3.39
   5  -4   4   62.32    6.44
  -6   4  -4  274.27   10.36
   6  -4   4  267.42   13.71
   6  -4   4  227.13    8.52
   7  -4   4 1465.45   50.49
  -7   4  -4 1538.07   43.18
   7  -4   4 1549.40   40.90
  -8   4  -4   11.85    3.55
   8  -4   4   15.25    5.11
   8  -4   4    6.33    2.76
  -9   4  -4  197.71   11.27
   9  -4   4  204.99   14.61
 -10   4  -4  427.89   18.39
  10  -4   4  434.69   23.01
  11  -4   4   87.02   12.10
 -11   4  -4   64.85    8.23
 -12   4  -4    1.79    5.06
  12  -4   4    2.54    7.29
  13  -4   4    0.20    7.95
 -13   4  -4   -4.13    4.93
  14  -4   4  175.38   18.79
 -14   4  -4  191.86   15.12
  15  -4   4   12.36   10.17
 -15   4  -4   22.22    7.89
  16  -4   4   -6.01    6.33
 -16   4  -4   10.62    7.48
 -17   4  -4    9.00    8.48
 -14  -3   4    1.27    4.27
 -13  -3   4   28.66    9.07
 -12  -3   4   32.77    8.39
 -11  -3   4   74.54   10.61
 -10  -3   4   54.33    8.66
  -9  -3   4  236.98   14.90
  -8  -3   4  268.58   15.23
  -7  -3   4   84.74    8.49
  -6  -3   4   41.20    5.98
  -5  -3   4   14.03    3.83
  -4  -3   4  322.83   13.38
  -3  -3   4   71.07    5.38
  -2  -3   4    4.47    1.86
  -1  -3   4  740.43   21.51
   0  -3   4 1724.22   45.80
   0  -3   4 1752.90   44.95
   1  -3   4 1286.02   35.69
  -1   3  -4 1393.02   35.14
   2  -3   4 3251.57   85.00
  -2   3  -4 3427.44   85.09
   3  -3   4 1208.69   37.98
   3  -3   4 1186.47   31.95
  -3   3  -4 1231.81   32.10
   4  -3   4  239.77   11.48
   4  -3   4  240.32    8.03
  -5   3  -4  625.55   20.17
   5  -3   4  710.48   25.22
   5  -3   4  713.26   19.56
   6  -3   4   23.50    4.94
   6  -3   4   15.88    2.81
  -6   3  -4   33.34    3.81
   7  -3   4  630.47   20.00
  -7   3  -4  651.26   21.44
   7  -3   4  642.67   26.13
   8  -3   4  415.57   20.43
   8  -3   4  392.17   15.02
  -8   3  -4  433.95   16.60
   9  -3   4  418.85   16.59
   9  -3   4  489.05   23.21
  -9   3  -4  460.05   18.60
 -10   3  -4   16.78    5.40
  10  -3   4   33.88    8.83
  11  -3   4   20.92    8.37
 -11   3  -4    5.73    4.83
  12  -3   4   -3.11    7.22
 -12   3  -4    5.09    5.08
  13  -3   4   17.59    9.71
 -13   3  -4   13.71    6.68
 -14   3  -4  140.52   13.62
  14  -3   4  123.57   15.86
  15  -3   4   10.84   10.06
 -15   3  -4   -2.75    7.04
 -16   3  -4    3.58    7.27
 -14  -2   4   -5.90    3.82
 -13  -2   4   83.09   11.67
 -12  -2   4   34.83    8.89
 -11  -2   4   99.07   11.31
 -10  -2   4   98.16   10.44
  -9  -2   4    3.93    4.59
  -8  -2   4   12.15    5.17
  -7  -2   4  152.54   10.27
  -6  -2   4  335.14   14.81
  -5  -2   4   77.32    6.47
  -4  -2   4    0.75    2.19
  -3  -2   4  248.45   10.20
  -2  -2   4 2154.38   57.20
  -1  -2   4 1289.66   34.53
   0  -2   4 1843.52   47.64
   0  -2   4 1848.44   48.32
   1  -2   4  830.02   22.85
   2  -2   4 9756.22  247.15
  -2   2  -4 9999.86  249.80
   3  -2   4 1273.61   40.87
   3  -2   4 1370.22   35.26
  -3   2  -4 1332.25   35.03
   4  -2   4  151.90    8.55
   4  -2   4  143.18    6.04
   5  -2   4  146.60    6.94
   5  -2   4  161.87    9.70
  -5   2  -4  168.55    7.73
   6  -2   4   56.91    5.24
   6  -2   4   69.27    7.43
  -6   2  -4   80.66    6.01
   7  -2   4  378.36   14.81
  -7   2  -4  399.85   15.81
   7  -2   4  422.47   19.23
   8  -2   4   22.96    6.59
  -8   2  -4   42.32    5.83
   8  -2   4   13.14    4.43
   9  -2   4   44.70    8.50
  -9   2  -4   50.22    6.85
   9  -2   4   42.26    5.83
 -10   2  -4  102.19    9.73
  10  -2   4  112.74   12.65
 -11   2  -4    4.27    5.04
  11  -2   4   -1.59    6.44
  12  -2   4  254.11   19.19
 -12   2  -4  274.24   16.31
  13  -2   4   46.79   11.16
 -13   2  -4   36.80    8.51
 -14   2  -4   62.86   10.39
  14  -2   4   77.23   14.14
 -15   2  -4   32.00    9.28
 -16   2  -4    5.43    8.11
 -15  -1   4   -2.37    4.51
 -14  -1   4   10.62    7.21
 -13  -1   4  141.42   13.92
 -12  -1   4   81.14   10.58
 -11  -1   4    2.86    5.30
 -10  -1   4   83.00    9.37
  -9  -1   4    5.14    4.61
  -8  -1   4    5.72    4.08
  -7  -1   4  419.96   17.35
  -6  -1   4    5.52    2.96
  -5  -1   4   98.25    6.86
  -4  -1   4    1.02    1.95
  -3  -1   4    6.02    2.32
  -2  -1   4 3159.99   81.62
  -1  -1   4  771.66   20.95
  -1  -1   4  758.01   21.42
   0  -1   4  303.75    9.54
   1  -1   4 2627.10   67.34
   2  -1   4 1163.21   30.82
   2  -1   4 1164.05   35.07
  -2   1  -4 1089.97   30.15
  -3   1  -4  243.89    9.12
   3  -1   4  274.97   11.40
   3  -1   4  282.27    9.41
   4  -1   4  147.54    6.83
   4  -1   4  151.06    8.56
   5  -1   4 1102.92   32.18
  -5   1  -4 1113.04   32.83
   5  -1   4 1156.63   37.61
   6  -1   4   72.21    6.42
   6  -1   4   92.72    8.52
  -6   1  -4  100.27    7.02
  -7   1  -4 1092.82   33.99
   7  -1   4 1089.70   38.99
   7  -1   4 1089.97   33.32
   8  -1   4   54.62    8.47
   8  -1   4   55.44    6.60
  -8   1  -4   61.57    7.06
  -9   1  -4   59.69    7.55
   9  -1   4   51.43    9.01
   9  -1   4   43.55    6.72
  10  -1   4  195.10   15.04
  10  -1   4  184.55   12.10
 -10   1  -4  165.86   12.04
 -11   1  -4  320.36   17.62
  11  -1   4  338.33   21.01
 -12   1  -4    9.64    6.51
  12  -1   4    8.71    7.52
 -13   1  -4   -0.40    6.86
  13  -1   4    1.90    8.23
 -14   1  -4   92.94   11.98
 -15   1  -4   38.93   10.29
 -16   1  -4   -5.04    7.43
 -15   0   4   -2.91    4.06
 -14   0   4   24.01    8.01
 -13   0   4   32.00    8.55
 -12   0   4    8.84    5.89
 -11   0   4   32.74    7.34
 -10   0   4    6.66    4.73
  -9   0   4  405.97   18.31
  -8   0   4   10.16    4.40
  -7   0   4  264.82   12.85
  -6   0   4  124.50    7.95
  -5   0   4  475.83   16.94
  -4   0   4  308.89   11.58
  -3   0   4 1053.74   28.87
  -3   0   4 1044.48   29.41
  -2   0   4 9638.22  241.08
  -2   0   4 9518.16  240.02
  -1   0   4 2752.40   68.58
  -1   0   4 2605.19   68.59
   0   0   4    2.02    1.01
   0   0   4    3.02    1.23
   1   0   4   65.98    3.71
  -1   0  -4   54.59    3.03
  -1   0  -4   57.66    3.17
   2   0   4 4161.00   96.48
  -2   0  -4 3342.85   95.31
   3   0   4  404.63   13.63
   3   0   4  406.38   15.31
   4   0   4  249.44   10.09
   4   0   4  232.97   11.19
  -4   0  -4  222.51    9.72
   5   0   4  391.01   16.86
  -5   0  -4  394.86   15.02
   5   0   4  386.87   14.78
   6   0   4  424.48   18.93
   6   0   4  418.21   16.69
  -6   0  -4  449.21   16.96
  -7   0  -4    8.09    4.10
   7   0   4   11.90    4.19
   7   0   4    9.87    4.99
   8   0   4  352.54   16.51
  -8   0  -4  346.48   16.67
   8   0   4  359.66   18.88
  -9   0  -4  602.41   24.42
   9   0   4  641.09   24.55
   9   0   4  627.59   28.12
  10   0   4   36.04    9.33
  10   0   4   43.49    7.09
 -10   0  -4   53.00    8.02
  11   0   4   34.21    8.94
 -11   0  -4   46.33    8.34
 -12   0  -4  108.00   12.13
 -13   0  -4   56.35   10.58
 -14   0  -4    7.95    7.51
 -15   0  -4   10.86    8.40
 -16   1   4   -0.91    4.31
 -15   1   4   21.73    7.46
 -14   1   4   92.74   12.12
 -13   1   4   42.95    8.69
 -12   1   4   25.66    7.06
 -11   1   4   77.37    9.20
 -10   1   4  187.04   12.33
  -9   1   4  181.60   11.53
  -8   1   4    9.86    4.24
  -7   1   4  666.88   23.21
  -6   1   4   21.78    3.90
  -5   1   4   44.69    3.64
  -5   1   4   67.68    5.20
  -4   1   4  131.50    5.59
  -3   1   4 1341.35   36.45
  -2   1   4 1138.20   30.63
  -2   1   4 1124.40   30.36
  -1   1   4   76.14    3.94
  -1   1   4   62.41    3.67
   0   1   4 3285.06   84.25
   0   1   4 3312.35   84.58
   1   1   4   46.35    3.74
   1   1   4   48.68    3.63
   1   1   4   44.67    3.56
  -2  -1  -4  284.56   10.18
   2   1   4  291.49   11.06
   2   1   4  278.63   10.69
   3   1   4    3.65    2.26
   3   1   4    0.75    1.70
  -3  -1  -4    3.43    2.04
  -4  -1  -4  720.99   23.05
   4   1   4  730.05   23.46
  -5  -1  -4  149.20    8.60
   5   1   4  142.04    9.64
   5   1   4  140.78    8.75
   6   1   4  360.80   16.00
   6   1   4  380.00   17.76
  -6  -1  -4  400.70   16.43
  -7  -1  -4 1652.95   50.21
   7   1   4 1691.68   50.22
   7   1   4 1673.50   55.66
   8   1   4    7.63    6.18
  -8  -1  -4    7.95    4.77
   8   1   4   16.85    5.96
   9   1   4   -1.37    4.26
  -9  -1  -4    8.24    5.20
   9   1   4    4.51    5.56
 -10  -1  -4   48.07    8.71
  10   1   4   73.61   11.03
  10   1   4   57.73    8.22
 -11  -1  -4    5.01    6.44
 -12  -1  -4   29.32    8.66
 -13  -1  -4   93.26   12.17
 -14  -1  -4   29.72    8.94
 -16   2   4   -5.00    3.99
 -15   2   4   61.37   10.62
 -14   2   4    5.26    6.74
 -13   2   4    4.26    5.91
 -12   2   4   93.61   10.31
 -11   2   4   74.98    8.85
 -10   2   4    6.64    4.51
  -9   2   4  105.75    8.90
  -8   2   4   45.19    5.96
  -8   2   4   38.73    3.95
  -7   2   4    3.94    3.26
  -7   2   4   10.07    2.04
  -6   2   4  242.64   10.78
  -6   2   4  238.65    8.86
  -5   2   4  766.61   21.88
  -5   2   4  794.38   24.04
  -4   2   4  147.70    5.75
  -4   2   4  141.38    7.00
  -2   2   4 4507.04  114.01
  -2   2   4 4408.88  113.13
  -1   2   4   48.68    3.74
  -1   2   4   46.65    3.63
   0   2   4 1644.88   44.74
   0   2   4 1675.55   44.36
   1   2   4    2.15    1.92
   1   2   4    4.44    2.00
   1   2   4    3.16    1.62
   2   2   4 2429.08   71.28
  -2  -2  -4 2475.39   65.72
   2   2   4 2456.17   65.97
  -2  -2  -4 2491.08   64.42
  -3  -2  -4  667.53   21.14
   3   2   4  633.51   22.23
   3   2   4  643.67   21.60
   4   2   4   20.20    4.37
   4   2   4   15.99    3.81
  -4  -2  -4   17.77    3.82
  -5  -2  -4 1815.86   53.71
   5   2   4 1946.79   54.61
  -6  -2  -4  127.46    8.99
   6   2   4   97.19    8.83
   6   2   4  104.29    8.82
  -7  -2  -4   24.24    6.02
   7   2   4   26.63    6.48
   7   2   4   28.64    6.74
   8   2   4   40.17    8.11
  -8  -2  -4   47.27    7.62
   8   2   4   47.42    8.09
   9   2   4    6.14    5.05
  -9  -2  -4   11.83    5.67
 -10  -2  -4    6.21    6.51
  10   2   4   -3.04    4.86
 -11  -2  -4  238.33   16.67
 -12  -2  -4  101.73   12.52
 -13  -2  -4   34.74    9.47
 -14  -2  -4   10.10    8.85
 -16   3   4    5.68    4.84
 -15   3   4   14.40    7.15
 -14   3   4  199.81   15.21
 -13   3   4   23.90    7.35
 -12   3   4   44.49    8.00
 -11   3   4    3.12    4.34
 -10   3   4   17.12    5.46
  -9   3   4  165.51   10.60
  -8   3   4    4.48    1.94
  -8   3   4   10.62    3.96
  -7   3   4 1532.67   40.56
  -7   3   4 1505.48   44.12
  -6   3   4   20.35    2.24
  -6   3   4   19.91    3.77
  -5   3   4  152.38    7.97
  -5   3   4  164.92    6.25
  -4   3   4  155.32    6.15
  -4   3   4  159.52    7.55
  -3   3   4  448.32   14.80
  -2   3   4  280.74   10.47
  -2   3   4  290.64   10.23
  -1   3   4    7.92    2.31
  -1   3   4    5.75    1.96
   0   3   4 2699.57   71.94
   0   3   4 2735.25   71.59
   1   3   4   36.49    4.17
   1   3   4   39.68    4.16
  -2  -3  -4  223.19    9.98
   2   3   4  209.72    9.37
   2   3   4  215.38   10.45
  -2  -3  -4  217.60   10.08
  -3  -3  -4 1519.68   44.13
   3   3   4 1527.43   44.70
   3   3   4 1528.31   46.88
   4   3   4   40.67    5.22
  -4  -3  -4   26.12    4.68
   4   3   4   23.08    5.10
  -5  -3  -4   49.70    6.13
   5   3   4   37.65    6.27
   5   3   4   41.13    6.68
   6   3   4  133.45   10.86
   6   3   4  141.47   10.94
  -6  -3  -4  149.59   10.46
  -7  -3  -4   85.40    9.22
   7   3   4   93.30    9.78
  -8  -3  -4   12.81    6.06
   8   3   4    0.87    4.74
   9   3   4  249.19   15.97
  -9  -3  -4  274.14   16.78
 -10  -3  -4   85.54   11.29
 -11  -3  -4   55.39   10.59
 -12  -3  -4   44.98   10.08
 -13  -3  -4    1.45    7.35
 -17   4   4   -3.98    4.35
 -16   4   4    6.80    6.94
 -15   4   4   13.28    6.64
 -14   4   4   -5.49    4.99
 -13   4   4   12.18    6.01
 -12   4   4    4.09    4.89
 -11   4   4    2.04    4.29
 -10   4   4   97.08    9.18
  -9   4   4  724.62   25.79
  -8   4   4   21.70    4.53
  -8   4   4   18.12    2.33
  -7   4   4  644.97   22.34
  -7   4   4  654.93   18.67
  -6   4   4   70.35    3.84
  -6   4   4   62.18    5.75
  -5   4   4 1183.64   35.01
  -5   4   4 1243.50   33.00
  -4   4   4  268.49   10.88
  -4   4   4  259.45    9.43
  -3   4   4    3.88    1.65
  -3   4   4    4.59    2.34
  -2   4   4 2470.33   66.48
  -2   4   4 2534.07   66.35
  -1   4   4   35.82    4.10
  -1   4   4   38.17    4.08
   0   4   4 3104.46   81.59
   0   4   4 3054.47   81.88
   1   4   4  358.22   13.65
   1   4   4  339.69   14.03
   2   4   4  127.71    8.63
  -2  -4  -4  124.71    8.00
  -2  -4  -4  134.44    7.97
   3   4   4  212.20   11.75
  -3  -4  -4  209.19   10.99
   4   4   4  970.54   32.41
  -4  -4  -4  933.34   31.29
  -5  -4  -4  192.33   11.74
   5   4   4  162.59   11.78
   6   4   4    3.55    4.36
  -6  -4  -4    5.89    4.58
   7   4   4  173.98   12.72
  -7  -4  -4  162.37   12.53
  -8  -4  -4  104.08   11.28
   8   4   4  106.24   11.00
   9   4   4   41.00    8.42
  -9  -4  -4   41.33    9.17
 -10  -4  -4    6.88    6.93
 -11  -4  -4    6.42    7.70
 -12  -4  -4    9.26    8.58
 -17   5   4   -1.96    4.08
 -16   5   4    7.86    6.99
 -15   5   4    8.85    7.39
 -14   5   4   50.58    9.37
 -13   5   4   17.58    6.47
 -12   5   4  164.32   12.34
 -11   5   4   85.43    9.04
 -10   5   4   43.14    6.91
  -9   5   4  203.39   11.81
  -8   5   4  402.70   16.54
  -7   5   4  420.98   12.83
  -7   5   4  392.45   15.91
   7  -5  -4  398.22   19.02
  -6   5   4  106.17    5.36
  -6   5   4  105.88    7.37
  -5   5   4  426.94   13.89
  -5   5   4  417.24   15.67
  -4   5   4  755.39   23.89
  -3   5   4  700.57   21.78
  -3   5   4  703.43   22.54
  -2   5   4  232.25   10.31
  -2   5   4  225.64    9.99
  -1   5   4  360.50   14.13
  -1   5   4  370.79   14.14
   0   5   4  972.22   30.78
   0   5   4  994.08   30.19
   1   5   4  229.80   11.60
   1   5   4  224.31   10.98
   2   5   4 3178.80   85.56
  -2  -5  -4 3046.05   82.92
  -2  -5  -4 3069.89   84.68
  -3  -5  -4   12.70    4.00
   3   5   4    9.71    4.52
  -4  -5  -4   67.01    7.61
   4   5   4   63.28    7.81
  -5  -5  -4  297.29   15.64
   5   5   4  267.09   15.33
   6   5   4   13.89    6.10
  -6  -5  -4   23.39    6.18
   7   5   4   83.55   10.55
  -7  -5  -4   88.49   10.60
  -8  -5  -4   26.00    7.74
   8   5   4   30.23    7.74
  -9  -5  -4   14.07    7.86
 -10  -5  -4    7.42    7.15
 -11  -5  -4   28.47    9.02
 -12  -5  -4   68.69   13.35
 -17   6   4    3.70    4.77
 -16   6   4   36.67    9.61
 -15   6   4   14.48    7.52
 -14   6   4  135.01   13.41
 -13   6   4   22.84    7.03
 -12   6   4   22.87    6.42
 -11   6   4   24.61    6.20
 -10   6   4  410.74   18.22
  -9   6   4  454.57   18.77
   9  -6  -4  457.88   22.91
  -8   6   4   27.11    5.13
   8  -6  -4   29.32    6.66
   7  -6  -4 1091.33   40.05
  -7   6   4 1146.34   35.37
  -7   6   4 1181.58   31.79
  -6   6   4  464.69   14.93
  -6   6   4  457.45   17.29
   6  -6  -4  426.20   19.22
  -5   6   4  164.93    7.71
  -5   6   4  157.35    8.98
  -4   6   4   17.37    3.92
  -3   6   4 1611.57   45.29
  -3   6   4 1587.04   45.70
  -2   6   4  146.27    8.45
  -2   6   4  138.10    8.44
  -1   6   4  211.21   10.92
  -1   6   4  236.92   11.46
   0   6   4 3379.26   91.20
   0   6   4 3384.13   91.87
   1   6   4   40.31    6.12
   2   6   4  467.09   19.70
  -2  -6  -4  438.64   18.25
  -2  -6  -4  444.04   18.69
   3   6   4  383.74   18.05
  -3  -6  -4  384.36   16.97
  -3  -6  -4  376.17   17.42
  -4  -6  -4    0.16    3.80
   4   6   4    2.50    4.35
  -5  -6  -4   95.40   10.21
   5   6   4   84.22   10.22
  -6  -6  -4  434.74   21.04
   6   6   4  407.37   21.00
  -7  -6  -4    2.24    5.61
   7   6   4    1.66    5.39
  -8  -6  -4   30.27    8.43
   8   6   4   39.74    8.73
  -9  -6  -4   64.77   11.67
 -10  -6  -4   87.91   13.13
 -11  -6  -4  102.97   14.87
 -17   7   4    5.69    4.84
 -16   7   4  100.87   13.02
 -15   7   4    8.22    7.29
 -14   7   4    4.84    6.82
 -13   7   4   80.14   10.03
 -12   7   4   83.13    9.63
 -11   7   4   63.46    8.10
  10  -7  -4   30.97    8.30
 -10   7   4   24.58    5.74
  -9   7   4   41.46    6.41
   9  -7  -4   60.67    9.19
  -8   7   4   63.63    6.98
   8  -7  -4   57.25    8.55
  -7   7   4   15.28    2.81
   7  -7  -4   15.07    5.11
  -7   7   4    8.80    4.27
  -6   7   4  412.59   16.44
   6  -7  -4  373.01   17.60
  -6   7   4  393.87   14.22
  -5   7   4 2024.75   55.51
  -5   7   4 2009.20   57.29
  -4   7   4   31.93    4.45
  -4   7   4   36.86    5.26
  -3   7   4  198.60   10.42
  -3   7   4  217.19   11.02
  -2   7   4 3083.70   84.27
  -2   7   4 3115.44   84.49
  -1   7   4   29.36    5.42
  -1   7   4   20.07    5.05
   0   7   4  281.09   14.23
   0   7   4  346.58   15.65
   1   7   4   26.19    6.00
  -1  -7  -4   12.73    4.75
  -1  -7  -4   30.04    5.69
   2   7   4    8.26    4.70
  -2  -7  -4    5.18    4.18
  -2  -7  -4   14.97    4.90
   3   7   4   46.31    7.77
  -3  -7  -4   37.09    7.03
   4   7   4   95.10   10.53
  -4  -7  -4  108.35   10.48
  -5  -7  -4   38.78    8.12
   5   7   4   21.98    7.57
   6   7   4  103.78   11.67
  -6  -7  -4   90.48   11.01
   7   7   4   84.63   11.41
  -7  -7  -4   97.19   12.30
  -8  -7  -4   26.65    8.62
  -9  -7  -4  107.50   14.18
 -10  -7  -4    5.43    8.54
 -17   8   4   -2.66    4.22
 -16   8   4   15.69    7.93
 -15   8   4   -4.52    5.97
 -14   8   4  180.21   14.50
 -13   8   4    2.09    5.19
 -12   8   4    4.38    4.63
 -11   8   4   14.87    5.72
  11  -8  -4   10.86    6.90
 -10   8   4  104.29    9.84
  10  -8  -4  125.13   13.07
  -9   8   4   67.93    7.94
   9  -8  -4   68.06    9.27
   8  -8  -4  320.78   18.20
  -8   8   4  396.56   16.95
  -7   8   4 1868.29   50.18
  -7   8   4 1738.05   52.78
   7  -8  -4 1806.95   58.51
  -6   8   4  133.19    9.37
  -6   8   4  126.35    8.03
  -5   8   4   44.43    6.14
  -4   8   4  967.35   31.29
  -4   8   4  982.32   31.90
  -3   8   4    8.64    4.48
  -3   8   4    5.31    3.54
  -2   8   4  477.09   19.42
  -2   8   4  459.19   18.81
  -1   8   4   26.68    5.64
  -1   8   4   23.75    5.50
   0   8   4  135.44   10.70
   0   8   4  143.85   10.44
   1   8   4    3.04    4.71
  -1  -8  -4   13.67    4.68
  -1  -8  -4   14.35    4.88
   2   8   4  310.67   16.93
  -2  -8  -4  307.46   16.25
  -2  -8  -4  308.35   16.08
  -3  -8  -4   77.84    9.58
   3   8   4   64.62    9.48
   4   8   4  155.39   13.11
  -4  -8  -4  190.47   13.44
   5   8   4  141.38   12.80
  -5  -8  -4  142.98   12.79
  -6  -8  -4   15.37    7.01
   6   8   4   31.06    7.97
  -7  -8  -4  187.24   15.50
  -8  -8  -4   -0.94    7.72
  -9  -8  -4   12.18    8.78
 -17   9   4    4.08    4.39
 -16   9   4   44.25    9.54
 -15   9   4   -3.20    5.75
 -14   9   4   53.32    9.45
 -13   9   4    4.28    5.74
 -12   9   4    8.34    5.50
  11  -9  -4   14.25    7.20
 -11   9   4   17.72    5.89
 -10   9   4  183.00   12.15
  10  -9  -4  185.53   14.72
   9  -9  -4  623.10   27.80
  -9   9   4  628.49   24.34
   8  -9  -4   14.72    5.78
  -8   9   4    5.65    4.91
   7  -9  -4    9.90    5.32
  -7   9   4   27.02    6.08
  -6   9   4  153.09    9.40
  -6   9   4  151.28   10.45
  -5   9   4  183.00   10.66
  -5   9   4  181.12   11.32
  -4   9   4   57.62    6.83
  -4   9   4   53.46    7.15
  -3   9   4  387.12   17.23
  -3   9   4  382.95   17.27
  -2   9   4    2.51    4.20
  -2   9   4    1.46    4.47
  -1   9   4    9.28    4.74
  -1   9   4    9.81    5.15
   0   9   4 1371.53   42.79
   0   9   4 1277.14   43.71
  -1  -9  -4    5.07    4.75
  -1  -9  -4    3.04    4.44
   1   9   4    3.89    4.85
  -2  -9  -4  345.28   17.61
  -2  -9  -4  304.13   17.15
   2   9   4  318.61   18.25
  -3  -9  -4   31.15    7.26
   3   9   4   26.43    7.57
   4   9   4    1.77    5.45
  -4  -9  -4    4.17    5.49
  -5  -9  -4  199.21   15.40
   5   9   4  186.27   15.22
  -6  -9  -4   -1.19    5.97
  -7  -9  -4   16.49    8.69
  -8  -9  -4    2.48    7.67
 -17  10   4    1.13    4.46
 -16  10   4   14.64    6.47
 -15  10   4   92.04   12.02
 -14  10   4  172.11   14.38
 -13  10   4   22.73    7.47
 -12  10   4  279.93   16.53
  11 -10  -4  385.97   22.02
 -11  10   4  335.88   17.90
  10 -10  -4   46.39    9.09
 -10  10   4   50.19    7.74
  -9  10   4    0.30    4.87
  -8  10   4   31.24    6.73
  -7  10   4   92.82    9.26
  -6  10   4    0.12    4.21
  -6  10   4    0.81    3.45
  -5  10   4  316.65   15.11
  -5  10   4  296.56   15.48
  -4  10   4   -1.91    3.39
  -4  10   4   -1.97    4.45
  -3  10   4   34.63    6.81
  -3  10   4   48.90    7.43
  -2  10   4  330.35   16.83
  -2  10   4  326.47   17.41
  -1  10   4    2.93    5.11
  -1  10   4    6.20    5.24
   0  10   4  714.02   29.19
  -1 -10  -4   28.79    6.95
   1  10   4   29.29    7.90
  -1 -10  -4   23.65    6.60
  -2 -10  -4    9.92    6.03
  -2 -10  -4   17.65    6.56
   2  10   4   30.52    8.18
   3  10   4   56.82   10.24
  -3 -10  -4   57.08    9.41
   4  10   4   58.06   10.28
  -4 -10  -4   61.90   10.40
  -5 -10  -4   31.79    9.19
  -6 -10  -4   81.75   12.11
  -7 -10  -4    7.38    8.71
 -17  11   4    4.41    4.61
 -16  11   4   -2.03    4.30
 -15  11   4   22.52    7.87
 -14  11   4  112.89   12.62
 -13  11   4   34.00    8.26
 -12  11   4    4.39    5.76
 -11  11   4   26.97    7.07
 -10  11   4   67.31    9.22
  -9  11   4   18.01    6.18
  -8  11   4   10.54    5.65
  -7  11   4  182.34   12.53
  -6  11   4   29.66    6.98
  -5  11   4   90.55    9.84
  -5  11   4   83.30    9.38
  -4  11   4  104.89   10.26
  -4  11   4  114.25   10.59
  -3  11   4   65.62    9.04
  -3  11   4   67.15    9.09
  -2  11   4  303.42   17.12
  -2  11   4  313.79   17.60
  -1  11   4   29.22    7.78
  -1  11   4   16.52    6.74
   0  11   4   71.37   10.39
   0 -11  -4   60.60    9.36
   0 -11  -4   66.70    9.61
  -1 -11  -4    5.30    6.05
  -1 -11  -4   13.38    6.88
   1  11   4   10.50    6.68
  -2 -11  -4   13.18    6.44
   2  11   4   25.30    7.95
  -2 -11  -4   16.81    7.26
   3  11   4   44.19    9.65
  -3 -11  -4   41.23    9.54
  -4 -11  -4  245.35   17.76
  -5 -11  -4   -4.40    5.41
  -6 -11  -4   -0.13    7.67
 -16  12   4    0.84    4.19
 -15  12   4    2.90    6.29
 -14  12   4   60.65   10.33
 -13  12   4   -1.20    5.91
 -12  12   4  112.18   11.95
 -11  12   4   -0.88    5.46
 -10  12   4   -0.04    5.32
  -9  12   4  281.75   16.17
  -8  12   4  124.49   11.66
  -7  12   4   99.22   10.90
  -6  12   4  443.45   21.06
  -5  12   4   35.80    7.95
  -5  12   4   44.17    8.60
  -4  12   4  146.25   12.69
  -4  12   4  175.50   12.90
  -3  12   4   25.34    7.61
  -3  12   4   31.24    8.07
  -2  12   4    8.77    6.17
  -2  12   4   19.27    7.53
  -1  12   4   11.52    6.70
   0  12   4   39.51    9.53
   0 -12  -4   43.10    8.78
   0 -12  -4   41.93    8.82
  -1 -12  -4   13.75    6.78
   1  12   4    3.12    6.63
  -1 -12  -4    3.93    5.55
  -2 -12  -4  254.72   17.97
   2  12   4  240.51   17.73
  -2 -12  -4  239.78   16.80
  -3 -12  -4    6.44    6.92
  -4 -12  -4   -3.47    5.04
 -16  13   4    3.37    4.64
 -15  13   4   -0.62    3.85
 -14  13   4   67.52   10.46
 -13  13   4   74.21   10.71
 -12  13   4   16.09    7.43
 -11  13   4  251.86   16.35
 -10  13   4   54.59    9.53
  -9  13   4   50.08    8.98
  -8  13   4   29.35    8.05
  -7  13   4    0.94    5.67
  -6  13   4  110.83   11.80
  -5  13   4  159.74   13.30
  -5  13   4  159.29   12.88
  -4  13   4   -8.00    4.78
  -4  13   4    4.75    6.27
  -3  13   4   52.42   10.04
  -3  13   4   61.66   10.24
  -2  13   4   23.34    8.09
  -2  13   4   12.10    7.40
  -1  13   4    1.54    6.49
   1 -13  -4    0.79    6.35
   1 -13  -4    0.84    5.79
   0  13   4  415.07   22.89
   0 -13  -4  361.57   21.12
   0 -13  -4  341.32   21.26
  -1 -13  -4    7.64    6.98
  -1 -13  -4   -0.07    5.89
  -2 -13  -4   -3.15    5.14
  -3 -13  -4    3.79    4.63
 -15  14   4   -0.04    4.13
 -14  14   4    0.70    4.08
 -13  14   4   73.79   11.01
 -12  14   4  108.54   12.65
 -11  14   4   46.87    9.16
 -10  14   4    2.50    6.13
  -9  14   4    2.73    6.77
  -8  14   4   47.49    9.52
  -7  14   4  103.82   12.02
  -6  14   4   30.37    8.55
  -5  14   4  239.04   16.66
  -5  14   4  232.20   16.32
  -4  14   4   44.17    9.87
  -4  14   4   60.35   10.66
  -3  14   4   34.22    9.82
  -3  14   4   42.19    9.78
   1 -14  -4   10.65    7.07
   1 -14  -4    0.87    6.91
   0 -14  -4   -2.87    4.82
   0 -14  -4    2.67    5.76
  -1 -14  -4  -11.26    3.82
  -1 -14  -4    3.40    4.74
 -14  15   4   -0.43    4.20
 -13  15   4    1.36    4.27
 -12  15   4   -0.24    5.15
 -11  15   4   -1.47    6.08
 -10  15   4    1.01    6.65
  -9  15   4   79.24   11.63
  -8  15   4   29.19    9.06
  -7  15   4  169.97   14.77
  -6  15   4   -2.22    6.83
  -5  15   4   24.79    9.27
  -4  15   4  241.85   17.71
  -3  15   4   -5.64    7.17
   2 -15  -4    4.12    4.83
   2 -15  -4    3.95    4.19
   1 -15  -4    1.01    4.55
   1 -15  -4   -3.43    4.37
 -13  16   4   -4.70    4.12
 -12  16   4   -9.24    3.94
 -11  16   4    0.26    4.41
 -10  16   4   50.95    9.71
  -9  16   4   84.68   12.80
  -8  16   4   -8.20    7.43
  -7  16   4    9.09    8.43
  -6  16   4   71.01   12.05
  -5  16   4    3.66    8.49
  -4  16   4    0.54    8.45
  -6  19  -5    7.58    5.09
  -7  19  -5   11.79    7.81
  -8  19  -5   45.75    9.83
  -9  19  -5   19.42    8.01
 -10  19  -5   34.97    9.29
 -11  19  -5    0.35    6.99
 -12  19  -5    0.10    7.25
   3 -18   5  102.27   14.80
   3 -18   5  155.67   16.95
   4 -18   5   28.19   10.19
   4 -18   5   33.70   11.37
  -5  18  -5    9.91    6.13
  -6  18  -5   42.23    9.36
  -7  18  -5    7.74    6.56
  -8  18  -5   47.85    9.57
  -9  18  -5   15.20    7.49
 -10  18  -5    5.42    7.02
 -11  18  -5   36.27    9.12
 -12  18  -5    5.08    6.87
 -13  18  -5   17.18    7.25
 -14  18  -5    8.30    7.61
   1 -17   5  152.29   15.78
   1 -17   5  144.81   15.76
   2 -17   5    3.88    7.12
   2 -17   5    9.93    7.41
   3 -17   5   18.20    8.49
   3 -17   5   23.32    9.05
  -5  17  -5   -5.14    5.21
  -6  17  -5   66.32   10.33
  -7  17  -5    9.58    6.72
  -8  17  -5   34.96    8.50
  -9  17  -5    3.18    6.13
 -10  17  -5   -5.97    5.44
 -11  17  -5   27.05    7.93
 -12  17  -5   17.23    7.31
 -13  17  -5   77.12   10.71
 -14  17  -5    5.51    6.34
 -15  17  -5   49.69   10.20
 -16  17  -5   16.29    8.82
  -1 -16   5  175.80   16.94
   0 -16   5   18.39    7.27
   0 -16   5    6.32    6.17
   1 -16   5   54.84   10.36
   1 -16   5   61.55   10.72
   2 -16   5   32.86    8.89
   2 -16   5   27.83    8.42
  -4  16  -5   66.84    9.90
  -5  16  -5   76.77   10.33
  -6  16  -5   81.20   10.55
  -7  16  -5   -8.52    4.81
  -8  16  -5   22.78    7.43
  -9  16  -5   23.33    7.50
 -10  16  -5   84.16   10.78
 -11  16  -5   51.29    9.41
 -12  16  -5    7.46    6.54
 -13  16  -5   38.40    8.20
 -14  16  -5    1.62    6.69
  15 -16   5   16.02    9.06
 -15  16  -5   -3.36    6.04
  16 -16   5   15.58   11.94
 -16  16  -5    5.47    7.71
  -3 -15   5   92.50   13.73
  -2 -15   5   -3.46    6.20
  -1 -15   5   36.79    9.43
   0 -15   5    8.80    5.71
   0 -15   5   11.03    6.54
   1 -15   5   14.69    6.76
   1 -15   5    6.98    5.96
   2 -15   5   27.50    7.77
   2 -15   5   24.65    7.39
  -3  15  -5   45.62    8.41
  -4  15  -5   75.99   10.08
  -5  15  -5  214.60   14.48
  -6  15  -5   -1.94    5.28
  -7  15  -5   69.37    9.58
  -8  15  -5  229.48   14.77
  -9  15  -5   75.49    9.62
 -10  15  -5   11.44    6.68
 -11  15  -5  157.42   12.53
  12 -15   5   30.01    8.44
 -12  15  -5    0.95    5.97
  13 -15   5    2.43    7.52
 -13  15  -5    9.81    6.59
 -14  15  -5    6.78    6.86
  14 -15   5   20.64    9.36
  15 -15   5  114.76   16.08
 -15  15  -5   73.77   10.84
 -16  15  -5   34.43    9.63
  16 -15   5   60.44   13.75
 -17  15  -5   17.38    9.11
  17 -15   5   16.89   12.65
  -4 -14   5   36.54   10.67
  -3 -14   5   23.84    7.97
  -2 -14   5   34.15    8.72
  -1 -14   5   18.82    6.84
   0 -14   5    1.70    5.08
   0 -14   5   -1.99    4.71
   1 -14   5   41.41    8.16
   1 -14   5   55.77    9.04
   2 -14   5   76.72   10.14
   2 -14   5   67.94    9.75
  -3  14  -5  250.09   15.24
  -4  14  -5    3.20    5.05
  -5  14  -5   19.05    6.49
  -6  14  -5  459.12   20.59
  -7  14  -5   93.79    9.73
  -8  14  -5   40.63    7.17
   9 -14   5   12.44    6.39
  -9  14  -5   13.58    6.03
  10 -14   5   69.54   10.49
 -10  14  -5   73.60    9.04
  11 -14   5   18.88    7.20
 -11  14  -5   10.17    5.89
 -12  14  -5   17.28    6.69
  12 -14   5   21.75    8.51
  13 -14   5  311.39   21.57
 -13  14  -5  282.05   16.81
  14 -14   5   14.82    9.42
 -14  14  -5   22.65    7.59
  15 -14   5   24.40   10.22
 -15  14  -5   22.92    7.96
  16 -14   5   -5.59    9.08
 -16  14  -5   -0.67    6.52
 -17  14  -5   26.47    8.27
  17 -14   5   38.16   13.97
  -5 -13   5   17.38    8.18
  -4 -13   5    8.90    7.24
  -3 -13   5   12.93    6.51
  -2 -13   5   41.82    9.01
  -1 -13   5   48.50    8.44
  -1 -13   5   49.61    8.59
   0 -13   5    3.21    4.73
   0 -13   5    4.52    4.37
   1 -13   5  540.96   23.76
   1 -13   5  513.87   23.10
  -3  13  -5  115.00   10.35
  -4  13  -5  690.85   26.45
  -5  13  -5  250.08   14.21
  -6  13  -5   16.33    5.24
   7 -13   5   15.03    5.73
  -7  13  -5    6.27    4.67
   8 -13   5  207.72   14.62
  -8  13  -5  206.69   12.72
  -9  13  -5  144.33   10.67
   9 -13   5  142.62   12.35
 -10  13  -5  132.52   10.52
  10 -13   5  119.43   12.17
  11 -13   5  186.34   15.46
 -11  13  -5  170.10   12.09
  12 -13   5    7.68    6.72
 -12  13  -5    7.01    5.96
  13 -13   5   -0.51    6.50
 -13  13  -5    0.35    5.59
 -14  13  -5   14.82    6.97
  14 -13   5   13.28    8.83
 -15  13  -5   30.12    8.12
  15 -13   5   36.39   11.38
  16 -13   5   31.97   12.69
 -16  13  -5   20.27    8.01
 -17  13  -5   17.46    8.51
  17 -13   5   38.50   13.26
  -7 -12   5   13.78    9.08
  -6 -12   5   39.88   10.18
  -5 -12   5   -5.16    5.97
  -4 -12   5   69.19   10.59
  -3 -12   5   33.81    8.07
  -2 -12   5   57.71    9.23
  -1 -12   5  508.46   23.19
  -1 -12   5  509.31   22.79
   0 -12   5   15.12    4.91
   0 -12   5    5.45    4.39
   1 -12   5   20.95    5.71
   1 -12   5   27.57    6.48
  -2  12  -5  160.85   11.30
  -3  12  -5  170.54   11.50
  -4  12  -5    6.71    4.27
   4 -12   5    8.47    4.61
   5 -12   5   38.93    6.58
  -5  12  -5   28.24    5.91
  -6  12  -5  580.75   22.09
   6 -12   5  535.82   23.89
   7 -12   5   46.80    7.78
  -7  12  -5   49.04    6.98
  -8  12  -5  367.16   16.61
   8 -12   5  376.44   19.70
   9 -12   5    6.82    5.17
  -9  12  -5    4.83    4.44
  10 -12   5   12.34    6.57
 -10  12  -5   15.22    5.42
  11 -12   5    8.02    6.59
 -11  12  -5   10.89    5.29
 -12  12  -5  131.44   10.64
  12 -12   5  114.38   14.12
  13 -12   5   25.06    8.68
 -13  12  -5   15.07    6.28
  14 -12   5   37.54   11.31
 -14  12  -5   44.02    8.47
 -15  12  -5   59.77    9.96
  15 -12   5   32.85   11.30
 -16  12  -5   95.08   11.96
  16 -12   5   65.93   14.49
 -17  12  -5    7.45    7.58
  17 -12   5   -1.82    9.68
  -8 -11   5   22.73   10.06
  -7 -11   5    4.82    7.79
  -6 -11   5   74.49   11.30
  -5 -11   5   89.13   11.62
  -4 -11   5   74.76   10.54
  -3 -11   5  262.10   16.18
  -2 -11   5  155.42   12.26
  -1 -11   5   26.21    6.25
  -1 -11   5   25.95    6.15
   0 -11   5    3.65    3.88
   0 -11   5   -0.88    3.29
  -2  11  -5   37.12    6.02
  -3  11  -5  573.70   21.88
   4 -11   5  622.00   24.95
  -4  11  -5  649.73   23.31
   5 -11   5   11.41    4.53
  -5  11  -5    4.09    3.81
   6 -11   5   69.94    8.35
  -6  11  -5   81.48    7.22
   7 -11   5   10.08    4.88
  -7  11  -5   12.90    4.40
   8 -11   5   13.96    5.99
  -8  11  -5   11.14    4.65
   9 -11   5  121.42   11.10
  -9  11  -5  119.84    9.06
  10 -11   5  185.92   14.40
 -10  11  -5  185.52   11.35
 -11  11  -5  258.09   14.41
  11 -11   5  275.99   18.52
  12 -11   5  167.13   15.27
 -12  11  -5  157.04   11.45
 -13  11  -5  139.10   11.25
  13 -11   5  149.97   15.29
  14 -11   5    5.38    7.37
 -14  11  -5    6.29    6.28
  15 -11   5    7.77    9.34
 -15  11  -5    7.87    6.77
  16 -11   5   40.29   12.03
 -16  11  -5   36.48    8.96
 -17  11  -5    9.84    7.47
  17 -11   5    2.80   10.26
  -9 -10   5   13.97    8.54
  -8 -10   5   58.59   11.61
  -7 -10   5   13.41    7.81
  -6 -10   5   66.99   10.70
  -5 -10   5  189.74   14.30
  -4 -10   5    4.98    5.32
  -3 -10   5  129.34   11.00
  -2 -10   5  169.90   12.02
  -1 -10   5  262.52   13.89
  -1 -10   5  249.48   14.07
   0 -10   5    7.65    3.75
   0 -10   5    3.43    3.35
  -2  10  -5  455.65   18.12
  -3  10  -5   70.92    6.59
  -4  10  -5  346.92   14.57
  -5  10  -5  235.91   11.33
   5 -10   5  238.59   13.36
   6 -10   5   10.49    4.49
  -6  10  -5   10.92    3.48
   7 -10   5    6.70    4.65
  -7  10  -5   16.69    3.92
  -8  10  -5  858.79   28.10
   8 -10   5  850.28   33.84
   9 -10   5  293.69   17.62
  -9  10  -5  285.00   13.61
  10 -10   5    1.48    4.78
 -10  10  -5    0.38    3.60
  11 -10   5    5.80    5.79
 -11  10  -5    3.23    4.27
  12 -10   5   49.98   10.35
 -12  10  -5   30.79    6.10
 -13  10  -5    0.55    5.02
  13 -10   5   -1.25    5.84
 -14  10  -5   72.04    9.84
  14 -10   5   74.03   13.07
 -15  10  -5  187.15   14.76
  15 -10   5  228.91   20.31
  16 -10   5   23.03   11.42
 -16  10  -5   29.97    8.79
 -17  10  -5   27.26    8.61
  17 -10   5   34.36   12.96
  -9  -9   5    1.31    7.23
  -8  -9   5   39.90   10.08
  -7  -9   5    2.02    6.11
  -6  -9   5   -4.58    5.09
  -5  -9   5   10.44    6.10
  -4  -9   5  719.40   28.54
  -3  -9   5  142.15   10.86
  -2  -9   5   47.96    7.07
  -1  -9   5 1136.15   35.32
  -1  -9   5 1036.52   35.42
   0  -9   5    8.16    3.71
   0  -9   5    2.71    3.09
  -1   9  -5    7.93    3.13
  -2   9  -5   10.27    3.48
  -3   9  -5  264.43   11.82
  -4   9  -5  530.44   18.67
   5  -9   5  143.25   10.08
  -5   9  -5  152.20    8.27
  -6   9  -5  941.94   28.57
   6  -9   5  871.91   32.95
   7  -9   5  120.92   10.20
  -7   9  -5  102.53    7.10
   8  -9   5   26.16    6.75
  -8   9  -5   29.56    4.62
   9  -9   5    2.72    4.47
  -9   9  -5   -0.45    2.87
 -10   9  -5    5.72    3.80
  10  -9   5   -0.37    4.59
  11  -9   5   25.22    7.73
 -11   9  -5   16.42    5.38
  12  -9   5   44.89    9.89
 -12   9  -5   48.28    7.29
  13  -9   5   44.23    9.77
 -13   9  -5   32.98    7.30
 -14   9  -5   87.42   10.79
  14  -9   5  124.32   15.98
 -15   9  -5   14.51    7.48
  15  -9   5   35.88   11.23
 -16   9  -5   88.98   11.78
  16  -9   5   94.02   15.87
  17  -9   5   14.13    9.61
 -17   9  -5   46.96    9.62
 -10  -8   5   -6.10    4.29
  -9  -8   5   -1.64    6.56
  -8  -8   5   30.79    8.74
  -7  -8   5   56.91    9.82
  -6  -8   5  446.02   21.81
  -5  -8   5  254.73   15.31
  -4  -8   5   -0.49    3.88
  -3  -8   5  626.21   24.22
  -2  -8   5  468.13   19.51
  -1  -8   5    3.55    3.03
  -1  -8   5    7.95    3.29
   0  -8   5    9.46    3.36
   0  -8   5   11.42    3.47
  -1   8  -5 1287.43   37.74
  -2   8  -5   11.90    3.21
  -3   8  -5  144.89    7.74
  -4   8  -5  199.79    9.30
   5  -8   5   34.34    5.53
  -5   8  -5   32.64    4.04
   6  -8   5   18.34    2.84
  -6   8  -5   27.64    3.97
   6  -8   5   31.26    5.66
   7  -8   5  446.32   20.78
  -7   8  -5  460.43   16.63
   8  -8   5  315.57   17.49
  -8   8  -5  295.33   12.93
  -9   8  -5   13.95    3.61
   9  -8   5   12.01    5.06
  10  -8   5  323.49   19.33
 -10   8  -5  346.24   15.08
  11  -8   5   -0.74    4.50
 -11   8  -5    8.36    4.72
  12  -8   5   40.73    9.37
 -12   8  -5   36.23    6.56
  13  -8   5   21.89    7.49
 -13   8  -5   18.87    6.54
 -14   8  -5  113.37   11.75
  14  -8   5  129.08   16.37
  15  -8   5  156.49   19.04
 -15   8  -5  135.45   13.75
  16  -8   5    7.43    9.46
 -16   8  -5   44.08   10.05
 -17   8  -5   23.75    8.39
 -11  -7   5   -1.10    4.11
 -10  -7   5    5.04    6.64
  -9  -7   5   35.05    9.45
  -8  -7   5  232.58   16.40
  -7  -7   5   98.34   11.31
  -6  -7   5   21.01    6.36
  -5  -7   5   17.14    5.27
  -4  -7   5  605.64   23.67
  -3  -7   5   66.31    7.29
  -2  -7   5   11.59    3.71
  -1  -7   5 1299.37   38.85
  -1  -7   5 1280.60   37.98
   0  -7   5    1.36    2.05
   0  -7   5    2.12    2.17
  -1   7  -5  141.84    7.52
  -2   7  -5  489.74   16.49
  -3   7  -5    2.99    2.02
   4  -7   5  553.76   21.50
  -4   7  -5  559.51   17.93
   5  -7   5  113.42    8.63
  -5   7  -5  105.55    6.11
   5  -7   5  100.28    5.58
  -6   7  -5   29.52    3.67
   6  -7   5   19.55    2.47
   6  -7   5   23.40    5.08
  -7   7  -5  142.51    7.75
   7  -7   5  131.41   10.69
  -8   7  -5 1299.25   37.93
   8  -7   5 1290.03   45.96
   9  -7   5  168.91   13.15
  -9   7  -5  208.20   10.53
 -10   7  -5  329.21   15.20
  10  -7   5  355.74   20.16
 -11   7  -5    3.58    4.14
  11  -7   5   -1.86    4.66
  12  -7   5    4.62    7.24
 -12   7  -5    7.74    4.72
  13  -7   5   26.54   10.55
 -13   7  -5   26.72    7.17
  14  -7   5   80.38   15.25
 -14   7  -5   86.26   10.93
  15  -7   5   20.96   10.50
 -15   7  -5   24.39    8.56
  16  -7   5   -1.08    9.48
 -16   7  -5    9.63    7.60
  17  -7   5   -9.75    6.33
 -12  -6   5   -6.55    3.90
 -11  -6   5   19.01    8.08
 -10  -6   5   55.37   10.42
  -9  -6   5   62.87   10.19
  -8  -6   5   44.10    8.98
  -7  -6   5    9.78    5.84
  -6  -6   5  559.48   23.60
  -5  -6   5    3.50    4.01
  -4  -6   5  301.45   14.38
  -3  -6   5  235.26   11.91
  -2  -6   5    5.36    2.77
  -1  -6   5  149.76    8.07
  -1  -6   5  150.47    8.27
   0  -6   5    3.76    2.26
   0  -6   5    2.66    2.17
  -1   6  -5   27.51    3.26
  -2   6  -5  432.18   14.25
  -3   6  -5  844.01   24.53
   4  -6   5    1.03    1.64
  -4   6  -5    4.23    1.55
   4  -6   5    6.34    3.13
  -5   6  -5  946.81   26.96
   5  -6   5  915.93   32.52
   5  -6   5  925.52   25.72
  -6   6  -5 1099.86   30.64
   6  -6   5 1050.34   36.98
   6  -6   5 1021.11   28.37
   7  -6   5  176.91   12.02
  -7   6  -5  180.11    8.69
  -8   6  -5 1086.33   32.90
   8  -6   5 1092.41   40.16
   9  -6   5  101.93   10.76
  -9   6  -5  113.10    8.06
  10  -6   5   41.08    8.76
 -10   6  -5   49.15    6.61
 -11   6  -5    1.41    4.36
  11  -6   5    1.44    5.68
  12  -6   5   31.98    9.34
 -12   6  -5   26.72    6.61
 -13   6  -5  119.22   10.87
  13  -6   5  126.90   15.89
  14  -6   5   63.57   13.54
 -14   6  -5   70.46   10.46
 -15   6  -5    4.70    7.22
  15  -6   5   13.70   10.72
 -16   6  -5   90.53   12.33
  17  -6   5    5.14    7.57
 -13  -5   5   -2.38    4.30
 -12  -5   5    1.33    6.04
 -11  -5   5   41.24    9.38
 -10  -5   5   -1.87    6.12
  -9  -5   5    8.67    6.10
  -8  -5   5  201.30   13.95
  -7  -5   5   45.70    7.69
  -6  -5   5   80.12    8.71
  -5  -5   5  196.10   11.67
  -4  -5   5  483.72   18.81
  -3  -5   5  120.78    7.76
  -2  -5   5  453.30   16.42
  -1  -5   5   30.09    3.77
   0  -5   5    8.67    2.20
   0  -5   5    6.17    2.05
  -1   5  -5 1770.55   47.23
  -2   5  -5    1.74    0.74
  -3   5  -5    8.80    1.69
   3  -5   5   19.36    2.51
   4  -5   5   31.27    4.77
   4  -5   5   34.27    3.04
   5  -5   5  116.72    5.14
   5  -5   5  119.47    8.63
   6  -5   5   28.84    5.40
  -6   5  -5   16.31    2.85
   6  -5   5   23.56    2.41
  -7   5  -5  153.67    7.99
   7  -5   5  134.22    6.22
   7  -5   5  160.16   11.23
   8  -5   5  389.95   19.43
   8  -5   5  376.08   12.93
  -8   5  -5  390.59   14.95
   9  -5   5   50.33    8.76
  -9   5  -5   61.87    6.52
 -10   5  -5   58.16    7.03
  10  -5   5   63.19   10.21
 -11   5  -5  194.42   12.23
  11  -5   5  206.13   16.24
 -12   5  -5  178.97   12.76
  12  -5   5  190.99   17.11
 -13   5  -5   44.53    8.24
  13  -5   5   38.13   10.84
 -14   5  -5  224.63   15.90
  14  -5   5  230.18   20.00
 -15   5  -5  291.73   18.78
  15  -5   5  258.44   21.71
  16  -5   5    9.99    7.90
 -16   5  -5   49.83   10.53
 -13  -4   5   -1.11    4.01
 -12  -4   5    5.92    6.32
 -11  -4   5  161.71   14.06
 -10  -4   5   71.25   10.41
  -9  -4   5  125.43   11.51
  -8  -4   5  289.65   16.04
  -7  -4   5    4.91    4.44
  -6  -4   5    7.13    3.98
  -5  -4   5  120.43    8.81
  -4  -4   5  178.68    9.75
  -3  -4   5    5.69    2.78
  -2  -4   5  372.20   13.59
  -1  -4   5 1690.55   45.97
   0  -4   5    2.91    1.57
   0  -4   5    1.71    1.53
  -1   4  -5  270.13    8.88
   2  -4   5   25.36    2.76
  -2   4  -5   29.39    2.49
   3  -4   5    6.13    1.77
   4  -4   5 2021.31   61.94
   4  -4   5 2002.79   52.77
  -4   4  -5 2065.25   53.13
   5  -4   5  894.74   24.52
   5  -4   5  877.29   31.00
   6  -4   5 1074.95   29.92
   6  -4   5 1118.03   38.02
   7  -4   5   38.48    6.48
   7  -4   5   34.62    3.70
  -7   4  -5   47.13    4.84
  -8   4  -5   36.12    5.08
   8  -4   5   22.97    3.79
   8  -4   5   39.28    7.00
   9  -4   5  507.36   24.48
  -9   4  -5  536.80   20.00
   9  -4   5  507.33   17.90
  10  -4   5  425.89   22.48
 -10   4  -5  400.47   17.85
 -11   4  -5   27.46    6.43
  11  -4   5   20.56    8.17
  12  -4   5   14.70    8.55
 -12   4  -5   17.07    6.23
  13  -4   5  149.64   16.92
 -13   4  -5  179.11   13.71
  14  -4   5  119.25   16.33
 -14   4  -5  123.40   12.92
  15  -4   5    5.19    9.19
 -15   4  -5   10.27    7.96
  16  -4   5   -9.31    7.81
 -16   4  -5   -4.08    6.52
 -14  -3   5   -0.36    4.20
 -13  -3   5   23.02    8.35
 -12  -3   5    0.18    6.15
 -11  -3   5    2.25    5.62
 -10  -3   5  106.89   11.19
  -9  -3   5   12.51    5.64
  -8  -3   5    6.85    4.55
  -7  -3   5   11.49    4.68
  -6  -3   5  828.28   28.33
  -5  -3   5   24.33    4.60
  -4  -3   5  501.77   18.13
  -3  -3   5  748.88   23.61
  -2  -3   5  146.55    7.03
  -1  -3   5  365.77   12.00
   0  -3   5   -0.50    1.09
   1  -3   5 1520.38   41.15
  -1   3  -5 1558.68   40.00
   2  -3   5 1062.69   28.94
   3  -3   5 3985.58  115.17
   3  -3   5 3975.61  101.47
  -3   3  -5 4003.71  101.26
   4  -3   5  145.42    8.66
  -4   3  -5  142.61    5.83
   4  -3   5  141.45    5.95
   5  -3   5  351.73   11.95
   5  -3   5  392.00   16.43
   6  -3   5  162.20    7.22
   6  -3   5  175.59   10.79
  -6   3  -5  118.16    6.90
  -7   3  -5  242.11   10.99
   7  -3   5  236.75   10.20
   7  -3   5  244.73   13.95
  -8   3  -5 1755.56   50.44
   8  -3   5 1766.43   58.57
   8  -3   5 1707.64   48.56
   9  -3   5    4.70    3.83
  -9   3  -5    6.36    4.17
   9  -3   5    4.85    5.42
  10  -3   5    8.84    6.70
 -10   3  -5    5.11    4.48
 -11   3  -5   87.39    9.38
  11  -3   5   80.99   12.27
 -12   3  -5    4.91    5.27
  12  -3   5  -13.27    6.72
  13  -3   5   32.72   10.40
 -13   3  -5   23.09    7.51
 -14   3  -5  112.50   12.43
  14  -3   5   78.04   14.22
 -15   3  -5  112.84   13.39
  15  -3   5  114.53   16.67
 -16   3  -5   51.62   10.65
 -14  -2   5    0.27    4.36
 -13  -2   5    5.54    6.49
 -12  -2   5    6.65    6.74
 -11  -2   5  140.54   12.31
 -10  -2   5   18.08    5.90
  -9  -2   5  106.60    9.87
  -8  -2   5  792.11   28.63
  -7  -2   5  116.25    9.00
  -6  -2   5   21.90    4.66
  -5  -2   5  107.72    7.53
  -4  -2   5    1.82    2.12
  -3  -2   5   30.99    3.60
  -2  -2   5   23.52    2.94
  -1  -2   5 1519.99   41.08
  -1  -2   5 1520.48   40.49
   0  -2   5    1.16    0.95
   0  -2   5    3.02    1.44
   1  -2   5  952.50   26.20
   2  -2   5 1327.65   35.55
   3  -2   5 1394.38   43.26
  -3   2  -5 1423.39   36.89
   3  -2   5 1376.50   37.38
  -4   2  -5  198.23    7.72
   4  -2   5  188.48    9.97
   4  -2   5  182.16    7.54
   5  -2   5  115.67    8.37
   5  -2   5  109.03    6.00
   6  -2   5 2714.52   72.67
  -6   2  -5 2750.67   73.72
   6  -2   5 2779.45   83.78
   7  -2   5  205.23   10.16
  -7   2  -5  204.08   10.55
   7  -2   5  213.91   13.19
  -8   2  -5   -0.68    3.16
   8  -2   5    5.68    4.81
   8  -2   5    2.63    3.46
   9  -2   5   44.90    6.26
  -9   2  -5   52.53    7.35
   9  -2   5   34.60    7.94
  10  -2   5   86.72   11.24
 -10   2  -5   80.98    8.87
  11  -2   5  213.96   16.89
 -11   2  -5  208.59   13.84
 -12   2  -5  135.04   12.02
  12  -2   5  145.23   14.91
 -13   2  -5  111.97   12.45
  13  -2   5  116.01   15.37
  14  -2   5  114.14   15.54
 -14   2  -5   73.02   11.13
 -15   2  -5    6.88    7.50
 -15  -1   5   -0.74    4.16
 -14  -1   5    3.42    6.49
 -13  -1   5  256.93   17.30
 -12  -1   5   -1.58    5.29
 -11  -1   5    8.28    5.87
 -10  -1   5  162.37   12.01
  -9  -1   5  270.56   14.92
  -8  -1   5   21.74    5.33
  -7  -1   5  382.46   16.37
  -6  -1   5   18.19    4.11
  -5  -1   5  853.78   26.92
  -4  -1   5   27.59    3.69
  -3  -1   5    6.27    2.24
  -2  -1   5 1079.11   29.38
  -2  -1   5 1054.63   29.58
  -1  -1   5  972.66   27.25
  -1  -1   5 1004.70   26.46
   0  -1   5   -3.62    1.28
   1  -1   5 7642.02  192.16
   2  -1   5  880.36   24.62
  -2   1  -5  868.13   23.61
   3  -1   5  971.53   31.34
  -3   1  -5  963.98   27.02
   3  -1   5  976.73   27.44
   4  -1   5  935.45   27.22
   4  -1   5  940.14   31.37
  -5   1  -5  270.23   11.24
   5  -1   5  278.48   13.44
   5  -1   5  279.84   11.29
   6  -1   5    5.16    2.98
  -6   1  -5    7.10    3.47
   6  -1   5    9.37    3.89
   7  -1   5  223.28   11.34
  -7   1  -5  224.69   11.52
   7  -1   5  225.20   13.62
  -8   1  -5   25.12    5.62
   8  -1   5   28.90    5.54
   8  -1   5   38.55    7.31
   9  -1   5  265.23   14.37
  -9   1  -5  276.29   14.82
   9  -1   5  294.45   17.86
  10  -1   5  430.83   19.35
  10  -1   5  423.55   23.20
 -10   1  -5  433.35   19.78
 -11   1  -5  107.48   10.90
  11  -1   5  113.24   13.28
  12  -1   5   86.32   12.85
 -12   1  -5  102.80   11.49
  13  -1   5   33.81   11.19
 -13   1  -5   36.27    8.59
 -14   1  -5   60.90   10.57
 -15   1  -5   13.51    7.95
 -15   0   5   -5.03    3.91
 -14   0   5   18.45    7.38
 -13   0   5   -1.89    5.77
 -12   0   5   94.95   10.90
 -11   0   5  233.08   14.80
 -10   0   5   -4.84    3.94
  -9   0   5   -0.97    3.55
  -8   0   5  286.23   14.10
  -7   0   5   98.96    7.72
  -6   0   5 1033.66   31.95
  -5   0   5  121.80    7.35
  -4   0   5 1944.86   51.98
  -4   0   5 1958.13   52.93
  -3   0   5 3779.72   97.21
  -3   0   5 3802.11   97.72
  -2   0   5 1326.98   35.39
  -2   0   5 1323.57   35.70
  -1   0   5 7819.45  200.47
  -1   0   5 8139.93  201.16
   0   0   5    2.58    1.35
   0   0   5    3.48    1.18
   1   0   5  498.78   15.45
   1   0   5  497.03   14.28
  -2   0  -5    3.50    1.45
   2   0   5    2.26    1.79
   2   0   5    1.67    1.18
   3   0   5 1352.43   37.38
   3   0   5 1317.90   41.19
  -4   0  -5   26.10    3.50
   4   0   5   26.91    4.28
   4   0   5   25.21    3.63
  -5   0  -5  657.54   21.44
   5   0   5  632.00   21.21
   5   0   5  612.88   23.87
  -6   0  -5   53.80    5.85
   6   0   5   38.83    5.36
   6   0   5   51.43    6.54
   7   0   5  186.07   11.21
  -7   0  -5  186.09   11.14
   7   0   5  183.00   12.66
  -8   0  -5 2062.74   59.88
   8   0   5 2100.24   59.40
   8   0   5 1922.80   66.10
   9   0   5  214.81   15.44
  -9   0  -5  236.33   13.86
   9   0   5  215.56   13.44
  10   0   5  126.53   12.77
 -10   0  -5  131.40   11.03
  10   0   5  128.51   10.71
  11   0   5  134.35   14.45
 -11   0  -5  141.18   12.21
  12   0   5   12.90    9.13
 -12   0  -5   19.69    7.58
 -13   0  -5    6.30    7.49
 -14   0  -5   23.63    8.78
 -15   0  -5   47.21   11.04
 -16   1   5   -0.94    4.46
 -15   1   5   14.77    6.79
 -14   1   5   21.80    7.48
 -13   1   5    2.06    6.00
 -12   1   5  133.55   11.69
 -11   1   5    0.23    4.17
 -10   1   5    1.69    4.15
  -9   1   5    8.30    4.29
  -8   1   5 1192.06   37.49
  -7   1   5  176.23    8.15
  -7   1   5  176.80    9.93
  -6   1   5   25.44    4.19
  -6   1   5   25.37    3.01
  -5   1   5  920.81   27.75
  -4   1   5  140.96    6.92
  -3   1   5 1394.83   37.14
  -3   1   5 1366.80   37.56
  -2   1   5  915.16   25.76
  -2   1   5  947.09   25.96
  -1   1   5  461.38   13.69
  -1   1   5  448.23   14.13
   0   1   5   -3.69    1.44
   0   1   5   -3.31    1.43
   1   1   5    7.81    2.19
   1   1   5    6.82    1.95
   2   1   5  396.95   13.73
   2   1   5  370.49   13.92
   3   1   5 3753.01   95.87
   3   1   5 3561.01  105.14
  -3  -1  -5 3645.99   95.25
   4   1   5   17.62    3.82
  -4  -1  -5   15.85    3.29
   5   1   5   21.65    4.46
   5   1   5   25.44    4.77
  -5  -1  -5   25.78    4.23
  -6  -1  -5 1850.69   54.18
   6   1   5 1845.79   54.17
   6   1   5 1903.95   60.14
   7   1   5  135.36   10.30
   7   1   5  146.61   11.27
  -7  -1  -5  143.78   10.15
   8   1   5  405.95   20.48
  -8  -1  -5  429.85   18.83
   8   1   5  364.99   18.06
   9   1   5    3.48    5.24
  -9  -1  -5   -1.61    4.52
   9   1   5   -6.07    5.16
  10   1   5   -3.86    6.80
  10   1   5   -3.00    5.24
 -10  -1  -5    1.79    5.21
  11   1   5   12.01    6.45
 -11  -1  -5   13.57    7.31
 -12  -1  -5  102.75   12.54
 -13  -1  -5   16.15    7.62
 -14  -1  -5   15.99    8.16
 -16   2   5   -0.40    3.99
 -15   2   5   23.26    8.45
 -14   2   5   26.44    8.20
 -13   2   5  141.53   12.56
 -12   2   5   33.26    7.83
 -11   2   5   23.33    6.19
 -10   2   5  310.38   15.99
  -9   2   5  201.57   11.93
  -9   2   5  189.32    9.14
  -8   2   5 1019.87   29.05
  -8   2   5  963.37   32.00
  -7   2   5  163.80    7.29
  -7   2   5  162.90    9.33
  -6   2   5 1172.19   31.80
  -6   2   5 1107.35   33.85
  -5   2   5  370.15   13.75
  -5   2   5  383.04   12.27
  -4   2   5  207.05    8.80
  -3   2   5  981.30   27.96
  -3   2   5  993.71   27.43
  -2   2   5    2.23    1.44
  -2   2   5    0.63    1.77
  -1   2   5    5.38    1.91
  -1   2   5    3.05    1.66
   0   2   5    4.21    1.94
   0   2   5    0.94    1.53
   1   2   5 3583.64  105.07
   1   2   5 3714.38   96.80
   1   2   5 3851.94   96.43
  -2  -2  -5  115.92    6.54
  -2  -2  -5  120.42    6.54
   2   2   5  115.66    6.98
   2   2   5  112.16    6.39
   3   2   5  496.36   18.48
  -3  -2  -5  501.68   17.66
   3   2   5  530.38   18.56
   4   2   5 1209.23   39.60
   4   2   5 1208.97   37.20
  -4  -2  -5 1266.02   36.93
  -5  -2  -5    4.86    3.22
   5   2   5    3.27    3.84
   5   2   5    2.81    3.90
   6   2   5  178.82   11.68
  -6  -2  -5  196.53   11.51
   7   2   5  131.12   11.36
  -7  -2  -5  156.34   11.30
   7   2   5  144.27   11.28
  -8  -2  -5  110.43   10.62
   8   2   5  100.99   10.09
   8   2   5  104.56   10.83
   9   2   5    8.65    6.51
   9   2   5   10.90    6.09
  -9  -2  -5   10.92    5.91
 -10  -2  -5  208.10   15.14
  10   2   5  197.59   14.46
 -11  -2  -5  172.35   14.70
 -12  -2  -5   53.40   10.55
 -13  -2  -5    0.58    6.84
 -14  -2  -5   -1.16    8.83
 -16   3   5   -0.16    4.00
 -15   3   5   47.70    9.95
 -14   3   5    8.57    6.54
 -13   3   5    6.07    5.66
 -12   3   5   26.14    6.66
 -11   3   5    7.61    4.54
 -10   3   5  328.74   16.20
  -9   3   5  114.84    6.22
  -9   3   5  119.72    9.24
  -8   3   5  361.01   16.10
  -8   3   5  394.81   12.92
  -7   3   5   44.44    3.57
  -7   3   5   35.44    4.97
  -6   3   5  166.00    9.00
  -6   3   5  171.99    7.01
  -5   3   5  108.13    5.23
  -5   3   5  116.03    6.72
  -4   3   5  945.84   27.77
  -3   3   5 1363.82   37.81
  -3   3   5 1343.50   36.92
  -2   3   5  377.10   13.34
  -2   3   5  404.97   13.39
  -1   3   5 3691.03   97.93
  -1   3   5 3869.85   98.22
   0   3   5   -1.35    1.84
   0   3   5    0.96    2.28
   1   3   5   54.46    5.01
   1   3   5   56.03    5.26
  -2  -3  -5  521.51   18.35
  -2  -3  -5  557.67   18.24
   2   3   5  479.38   17.78
   2   3   5  552.69   19.18
  -3  -3  -5    3.69    2.39
   3   3   5    3.35    3.06
   3   3   5    4.87    2.66
   4   3   5  250.14   13.16
   4   3   5  241.80   12.31
  -4  -3  -5  274.14   12.65
   5   3   5  579.20   22.88
  -5  -3  -5  563.93   21.55
   5   3   5  560.08   22.34
  -6  -3  -5  428.83   18.60
   6   3   5  386.49   18.53
   6   3   5  412.61   19.31
   7   3   5    1.97    4.51
   7   3   5   11.24    5.68
  -7  -3  -5    7.99    5.08
  -8  -3  -5   40.99    8.24
   8   3   5   40.88    8.07
   9   3   5  127.87   12.00
  -9  -3  -5  170.09   13.14
  10   3   5  180.74   14.24
 -10  -3  -5  207.21   15.66
 -11  -3  -5   -3.98    6.92
 -12  -3  -5   -4.19    6.96
 -13  -3  -5   41.93   10.85
 -16   4   5   -5.10    5.12
 -15   4   5    0.52    6.37
 -14   4   5   68.21   10.51
 -13   4   5   33.71    8.15
 -12   4   5   33.06    7.29
 -11   4   5    3.22    4.31
 -10   4   5   49.50    7.38
  -9   4   5   52.72    6.75
  -8   4   5   30.15    2.95
  -8   4   5   24.48    5.21
  -7   4   5  272.63   12.39
  -7   4   5  261.11    9.40
  -6   4   5 2890.58   73.49
  -6   4   5 2772.64   76.34
  -5   4   5  315.16   10.94
  -5   4   5  314.29   12.67
  -4   4   5   36.42    4.33
  -3   4   5 3918.56  101.91
  -3   4   5 3885.54  100.82
  -2   4   5  120.24    6.96
  -2   4   5  129.64    6.94
  -1   4   5   59.01    5.20
  -1   4   5   56.38    5.13
   0   4   5    1.94    2.61
   0   4   5   -0.20    2.22
   1   4   5  791.21   26.08
   1   4   5  806.89   25.43
   2   4   5  363.54   15.45
  -2  -4  -5  341.16   14.21
  -2  -4  -5  364.77   14.72
   3   4   5 1381.62   42.40
  -3  -4  -5 1378.19   41.69
  -4  -4  -5  328.11   15.12
   4   4   5  332.65   16.07
   5   4   5   53.23    7.67
  -5  -4  -5   57.69    7.47
  -6  -4  -5   72.09    8.78
   6   4   5   73.42    9.05
   7   4   5   29.36    7.50
  -7  -4  -5   31.77    7.57
  -8  -4  -5  283.67   17.30
   8   4   5  309.92   17.74
  -9  -4  -5  -10.42    5.40
   9   4   5    9.00    5.95
 -10  -4  -5    1.72    6.65
 -11  -4  -5   30.64    9.72
 -12  -4  -5    2.58    7.70
 -17   5   5    4.94    4.46
 -16   5   5    6.85    6.51
 -15   5   5  181.21   15.14
 -14   5   5  100.97   12.12
 -13   5   5    3.69    5.90
 -12   5   5    4.24    4.70
 -11   5   5    1.64    4.43
 -10   5   5   59.12    7.61
  -9   5   5  572.92   22.13
  -8   5   5 1834.67   47.91
  -8   5   5 1757.34   52.25
  -7   5   5  256.96    9.34
  -7   5   5  234.29   11.70
  -6   5   5    4.77    3.35
  -6   5   5    7.40    2.14
  -5   5   5  668.25   22.20
  -5   5   5  663.72   20.35
  -4   5   5   17.50    3.86
  -4   5   5    8.78    2.10
  -3   5   5  494.41   17.67
  -3   5   5  522.28   17.45
  -2   5   5  513.88   18.27
  -2   5   5  551.36   18.68
  -1   5   5  746.51   24.49
  -1   5   5  788.74   25.09
   0   5   5    1.07    2.64
   0   5   5   -1.97    2.71
   1   5   5 2413.57   65.25
   1   5   5 2288.80   65.94
   2   5   5   73.35    7.66
  -2  -5  -5   78.32    7.03
  -2  -5  -5   73.98    7.08
   3   5   5  279.03   14.76
  -3  -5  -5  299.40   14.02
  -3  -5  -5  289.92   14.29
   4   5   5  110.16    9.71
  -4  -5  -5  131.21    9.94
  -5  -5  -5   88.30    9.46
   5   5   5  124.85   10.89
  -6  -5  -5  195.63   13.23
   6   5   5  187.44   13.52
  -7  -5  -5   59.87    9.24
   7   5   5   70.74   10.03
  -8  -5  -5    6.53    6.33
   8   5   5    0.30    5.41
   9   5   5   -7.65    4.82
  -9  -5  -5   -0.45    6.51
 -10  -5  -5   11.80    7.63
 -11  -5  -5   32.53    9.45
 -12  -5  -5   40.35   12.31
 -17   6   5    5.20    4.68
 -16   6   5   20.25    8.08
 -15   6   5   32.56    9.03
 -14   6   5   98.63   11.93
 -13   6   5   32.12    7.99
 -12   6   5   36.74    7.37
 -11   6   5  187.00   12.46
 -10   6   5  410.52   18.46
  -9   6   5    6.59    4.14
  -8   6   5   -3.59    3.37
  -7   6   5  216.87   11.74
  -7   6   5  253.31    9.69
  -6   6   5   52.47    4.49
  -6   6   5   49.42    5.93
  -5   6   5   23.69    3.45
  -5   6   5   30.94    4.84
  -4   6   5 1311.17   37.72
  -4   6   5 1295.31   38.65
  -3   6   5    0.99    3.04
  -3   6   5    4.81    2.53
  -2   6   5  338.65   14.14
  -2   6   5  339.91   14.15
  -1   6   5 2316.45   65.85
  -1   6   5 2403.88   65.70
   0   6   5    6.89    3.97
   0   6   5    4.45    3.21
   1   6   5 1083.65   35.51
   2   6   5  201.24   12.61
  -2  -6  -5  231.48   12.67
  -2  -6  -5  232.39   12.36
  -3  -6  -5   84.60    8.48
   3   6   5   84.03    9.45
  -3  -6  -5  100.55    8.86
  -4  -6  -5  130.24   10.47
   4   6   5  132.51   11.13
   5   6   5   94.21   10.39
  -5  -6  -5  111.66   10.39
  -6  -6  -5   34.93    8.22
   6   6   5   40.82    8.55
   7   6   5   24.50    7.79
  -7  -6  -5    3.82    5.78
   8   6   5   -7.32    5.75
  -8  -6  -5   -1.31    6.77
  -9  -6  -5   26.35    9.27
 -10  -6  -5   42.42   11.44
 -11  -6  -5   23.98   10.70
 -17   7   5   -0.89    4.44
 -16   7   5   47.74   10.24
 -15   7   5  145.97   14.77
 -14   7   5   95.75   11.44
 -13   7   5   83.43   10.59
 -12   7   5  173.84   12.66
 -11   7   5   30.79    6.44
 -10   7   5    3.91    4.36
  -9   7   5   55.00    7.09
  -8   7   5   31.55    5.79
  -7   7   5  191.52    8.93
  -7   7   5  185.36   11.09
  -6   7   5 2029.91   55.18
  -6   7   5 1980.19   57.35
  -5   7   5    3.14    1.61
  -5   7   5   11.60    3.92
  -4   7   5  277.24   12.34
  -4   7   5  271.62   13.04
  -3   7   5 1485.68   43.39
  -3   7   5 1422.39   43.23
  -2   7   5   64.04    6.92
  -2   7   5   76.72    7.32
  -1   7   5 1053.80   34.11
  -1   7   5 1087.90   34.89
   0   7   5    3.02    4.04
   0   7   5    0.87    3.95
  -1  -7  -5   42.85    6.97
   1   7   5   54.88    7.87
  -1  -7  -5   55.54    7.44
   2   7   5  157.92   11.84
  -2  -7  -5  165.87   11.42
  -2  -7  -5  160.06   11.12
  -3  -7  -5   48.69    7.64
   3   7   5   46.08    8.10
  -3  -7  -5   49.48    7.40
   4   7   5  202.79   14.19
  -4  -7  -5  228.25   14.33
   5   7   5  225.89   15.62
  -5  -7  -5  214.36   14.71
   6   7   5  -10.83    5.65
  -6  -7  -5   -0.13    5.29
  -7  -7  -5    7.93    7.11
   7   7   5    5.43    6.37
  -8  -7  -5   89.61   12.58
  -9  -7  -5   10.02    7.48
 -10  -7  -5   -6.96    8.22
 -17   8   5   -1.99    4.32
 -16   8   5   14.73    7.36
 -15   8   5   26.09    8.99
 -14   8   5   68.07   10.35
 -13   8   5   42.18    8.29
 -12   8   5    1.67    4.96
 -11   8   5   64.84    8.47
 -10   8   5   85.84    9.11
  -9   8   5  289.93   15.10
  -8   8   5 2084.72   60.86
  -7   8   5  158.25    8.59
  -7   8   5  146.85   10.29
  -6   8   5  216.23   10.62
  -6   8   5  193.23   11.78
  -5   8   5  601.97   21.08
  -5   8   5  465.19   18.82
  -4   8   5  333.17   15.64
  -4   8   5  357.09   15.42
  -3   8   5  294.39   14.09
  -3   8   5  284.72   14.11
  -2   8   5  235.39   12.97
  -2   8   5  243.76   13.32
  -1   8   5   65.31    7.64
  -1   8   5   51.64    7.57
   0   8   5    1.49    4.18
   0   8   5    0.67    4.44
   1   8   5   49.21    8.06
  -1  -8  -5   59.47    7.99
  -1  -8  -5   54.81    7.80
   2   8   5   10.42    5.34
  -2  -8  -5    3.08    4.26
  -2  -8  -5    5.56    4.69
   3   8   5  318.11   18.06
  -3  -8  -5  316.79   17.39
   4   8   5   11.34    6.69
  -4  -8  -5   11.04    5.82
   5   8   5   -1.11    5.87
  -5  -8  -5   -0.22    5.61
   6   8   5  104.43   12.44
  -6  -8  -5  117.70   13.10
   7   8   5    5.75    6.95
  -7  -8  -5   20.53    8.34
  -8  -8  -5   -8.87    6.68
  -9  -8  -5    5.19    9.18
 -17   9   5    4.95    4.31
 -16   9   5    8.77    6.05
 -15   9   5    1.31    6.03
 -14   9   5  181.95   14.24
 -13   9   5  152.42   12.75
 -12   9   5   -3.04    4.95
 -11   9   5  198.52   13.30
 -10   9   5  441.73   20.03
  -9   9   5  233.14   13.68
  -8   9   5  404.39   18.43
  -7   9   5  144.12   10.70
  -6   9   5  439.57   18.67
  -6   9   5  421.21   17.42
  -5   9   5   72.83    7.50
  -5   9   5   57.72    7.44
  -4   9   5  137.75    9.93
  -4   9   5  141.53   10.35
  -3   9   5   84.82    8.71
  -3   9   5   90.61    9.15
  -2   9   5  182.92   12.03
  -2   9   5  175.35   12.24
  -1   9   5   63.93    8.27
  -1   9   5   60.61    8.59
   0   9   5    4.78    4.99
   0   9   5    6.99    4.84
  -1  -9  -5  256.08   15.48
   1   9   5  261.44   16.33
  -1  -9  -5  290.92   16.02
  -2  -9  -5    0.15    4.42
   2   9   5    3.25    5.58
  -2  -9  -5   -0.37    4.11
   3   9   5    0.15    6.37
  -3  -9  -5    4.20    5.71
   4   9   5   96.54   11.90
  -4  -9  -5  119.19   12.53
   5   9   5   17.44    7.35
  -5  -9  -5   18.98    7.42
  -6  -9  -5    0.65    6.70
   6   9   5   -2.62    5.70
  -7  -9  -5  -11.12    6.45
  -8  -9  -5   44.61   11.01
 -17  10   5   -4.95    4.64
 -16  10   5    5.98    4.55
 -15  10   5  262.13   17.86
 -14  10   5  148.68   13.38
 -13  10   5   23.36    7.77
 -12  10   5   95.11   10.70
 -11  10   5  122.56   11.25
 -10  10   5  126.19   10.89
  -9  10   5   -2.86    4.28
  -8  10   5  118.29   10.34
  -7  10   5    6.87    5.00
  -6  10   5   61.41    8.02
  -5  10   5  114.26    9.48
  -5  10   5  125.06   10.29
  -4  10   5  140.75   11.07
  -4  10   5  150.47   11.35
  -3  10   5   43.98    7.76
  -3  10   5   46.34    7.71
  -2  10   5    7.28    5.24
  -2  10   5    8.15    5.48
  -1  10   5  269.00   15.85
  -1  10   5  294.57   16.96
   0  10   5   -6.78    4.74
  -1 -10  -5    5.06    5.23
   1  10   5   26.36    7.78
  -1 -10  -5   17.68    6.10
  -2 -10  -5   12.72    6.36
   2  10   5   10.09    7.40
  -2 -10  -5   13.97    6.75
   3  10   5   23.27    8.32
  -3 -10  -5   24.32    7.93
   4  10   5   23.57    7.98
  -4 -10  -5   28.21    8.03
   5  10   5   23.19    8.59
  -5 -10  -5   22.52    9.27
  -6 -10  -5   19.19    8.02
  -7 -10  -5   11.62    8.47
 -16  11   5    1.35    4.61
 -15  11   5    0.25    6.93
 -14  11   5   75.48   10.78
 -13  11   5  104.16   11.82
 -12  11   5   70.65   10.03
 -11  11   5  124.20   11.51
 -10  11   5    7.57    5.83
  -9  11   5   -3.84    5.08
  -8  11   5   45.46    7.93
  -7  11   5   28.34    7.20
  -6  11   5  202.76   13.56
  -6  11   5  202.45   12.66
  -5  11   5  112.64   11.02
  -5  11   5  121.01   10.75
  -4  11   5  255.43   15.54
  -4  11   5  277.12   15.80
  -3  11   5  377.37   19.03
  -3  11   5  359.34   19.26
  -2  11   5    8.74    6.10
  -2  11   5    6.64    5.67
  -1  11   5   14.74    6.77
  -1  11   5    0.34    6.05
   0 -11  -5   -3.46    5.27
   0  11   5    0.90    6.43
   0 -11  -5    4.46    5.37
  -1 -11  -5    8.58    6.56
   1  11   5    3.74    6.61
  -1 -11  -5   15.24    7.13
  -2 -11  -5   31.28    8.26
  -2 -11  -5   32.94    7.87
   2  11   5   43.29    9.23
   3  11   5   84.81   12.15
  -3 -11  -5   73.34   11.65
  -4 -11  -5   84.38   12.41
  -5 -11  -5   -3.28    6.41
 -16  12   5    8.91    4.49
 -15  12   5   -3.69    4.58
 -14  12   5  109.08   12.60
 -13  12   5   31.57    7.91
 -12  12   5   11.26    6.37
 -11  12   5   19.86    7.53
 -10  12   5  184.01   13.68
  -9  12   5  129.89   11.69
  -8  12   5  274.54   16.34
  -7  12   5   68.41    9.74
  -6  12   5   44.87    8.62
  -5  12   5  197.04   14.24
  -5  12   5  224.17   14.62
  -4  12   5   11.32    7.04
  -4  12   5   11.18    6.32
  -3  12   5    8.80    6.19
  -3  12   5    5.83    6.30
  -2  12   5   24.73    7.89
  -2  12   5   15.61    7.33
  -1  12   5    2.47    7.25
   0 -12  -5   11.30    6.54
   0  12   5    3.41    6.20
   0 -12  -5   -8.74    5.50
   1  12   5  163.08   14.98
  -1 -12  -5  171.79   14.22
  -1 -12  -5  179.13   14.80
   2  12   5   24.01    9.11
  -2 -12  -5   33.07    8.07
  -2 -12  -5   24.14    8.54
  -3 -12  -5   -6.36    5.74
  -4 -12  -5    2.37    7.83
 -15  13   5    1.81    3.88
 -14  13   5    9.08    6.31
 -13  13   5    1.80    6.00
 -12  13   5   88.19   11.41
 -11  13   5  161.93   13.82
 -10  13   5  198.32   14.46
  -9  13   5    1.58    6.14
  -8  13   5    6.19    6.43
  -7  13   5   12.64    6.83
  -6  13   5    0.48    6.31
  -5  13   5    1.85    6.19
  -5  13   5    4.26    6.30
  -4  13   5  108.60   12.10
  -4  13   5  109.47   12.42
  -3  13   5   26.55    8.17
  -3  13   5   20.15    8.54
  -2  13   5   32.10    8.80
  -2  13   5   21.47    8.18
   1 -13  -5  195.78   16.06
  -1  13   5  177.24   15.57
   1 -13  -5  187.62   16.31
   0 -13  -5    2.29    6.39
   0 -13  -5   14.27    7.20
   0  13   5    0.67    6.27
   1  13   5   -4.29    5.89
  -1 -13  -5    3.52    6.48
  -1 -13  -5    1.58    5.17
  -2 -13  -5    3.16    5.41
 -15  14   5   -1.19    4.26
 -14  14   5    0.15    4.26
 -13  14   5   -0.73    5.50
 -12  14   5   46.29   10.11
 -11  14   5   -5.01    6.58
 -10  14   5    2.61    6.71
  -9  14   5    3.05    6.87
  -8  14   5    5.10    6.58
  -7  14   5   18.34    8.08
  -6  14   5  131.81   13.80
  -5  14   5   20.43    8.49
  -4  14   5   16.74    8.03
  -4  14   5   22.54    8.50
  -3  14   5   64.16   11.36
  -3  14   5   73.69   11.76
  -2  14   5   15.34    8.07
   1 -14  -5    9.19    6.23
   1 -14  -5    0.41    6.82
  -1  14   5    6.39    6.83
   0 -14  -5    0.04    4.57
   0 -14  -5    0.49    4.77
  -1 -14  -5   -2.59    4.49
  -1 -14  -5   -2.09    4.72
 -13  15   5   -1.33    4.45
 -12  15   5   -0.12    5.89
 -11  15   5   23.29    8.80
 -10  15   5   31.99    8.95
  -9  15   5   28.65    8.79
  -8  15   5   98.35   13.11
  -7  15   5   10.47    8.12
  -6  15   5   19.79    8.12
  -5  15   5   41.09   10.36
  -4  15   5   81.06   12.23
  -4  15   5   85.79   12.39
  -3  15   5   -7.12    7.47
   2 -15  -5   -6.99    4.64
   2 -15  -5    2.19    4.48
   1 -15  -5   -1.53    4.31
   1 -15  -5   -4.47    4.71
 -12  16   5    7.17    7.71
 -11  16   5   47.94   11.13
 -10  16   5   62.79   11.41
  -9  16   5   -4.78    7.93
  -8  16   5   -2.99    7.71
  -7  16   5    8.30    8.42
  -6  16   5   12.75    9.36
  -5  16   5   12.13    9.44
  -4  16   5   13.72    9.40
  -6  19  -6   10.12    6.80
  -7  19  -6    6.81    7.10
  -8  19  -6    3.42    6.98
  -9  19  -6   17.84    8.42
 -10  19  -6   -2.24    5.98
 -11  19  -6   38.06    9.52
 -12  19  -6   95.12   12.77
 -13  19  -6   46.96   10.19
   2 -18   6    3.87    7.50
   2 -18   6    1.33    8.10
   3 -18   6   17.00    8.35
   3 -18   6    9.81    7.96
   4 -18   6   33.15   10.53
   4 -18   6   24.65    9.62
  -5  18  -6    2.50    6.11
  -6  18  -6   14.44    7.14
  -7  18  -6   35.31    8.34
  -8  18  -6    0.16    5.90
  -9  18  -6   63.05   10.28
 -10  18  -6   34.02    8.73
 -11  18  -6   38.37    8.76
 -12  18  -6    8.60    6.90
 -13  18  -6    5.16    6.78
 -14  18  -6   35.41    9.72
 -15  18  -6   13.63    8.19
   0 -17   6   -1.04    7.46
   1 -17   6    9.66    7.14
   1 -17   6   -1.82    6.59
   2 -17   6   15.79    7.91
   2 -17   6    5.40    7.12
   3 -17   6   14.36    7.54
   3 -17   6    4.62    6.79
  -5  17  -6  115.47   12.37
  -6  17  -6    5.97    6.49
  -7  17  -6   62.07    9.82
  -8  17  -6   16.02    7.10
  -9  17  -6  147.44   12.78
 -10  17  -6   16.15    7.32
 -11  17  -6   -1.50    6.00
 -12  17  -6   65.10   10.38
 -13  17  -6   22.97    8.07
 -14  17  -6   46.58    9.31
 -15  17  -6   12.87    7.21
  -1 -16   6    7.15    7.78
   0 -16   6   38.83    9.27
   0 -16   6   61.97   11.20
   1 -16   6   12.28    6.67
   1 -16   6    7.20    6.44
   2 -16   6  133.21   13.48
   2 -16   6  125.58   13.43
   3 -16   6   38.79    9.58
   3 -16   6   39.65    9.08
  -4  16  -6   53.68    9.03
  -5  16  -6   16.85    6.78
  -6  16  -6   21.34    7.13
  -7  16  -6  107.40   11.41
  -8  16  -6   21.61    7.07
  -9  16  -6   21.73    7.22
 -10  16  -6   13.86    6.61
 -11  16  -6   39.19    8.92
 -12  16  -6   59.40    9.69
 -13  16  -6   72.56   10.17
 -14  16  -6   33.30    8.69
  14 -16   6   40.02   11.59
  15 -16   6   25.56   10.98
 -15  16  -6   30.22    8.33
  16 -16   6   32.75   12.60
  -3 -15   6    4.57    7.60
  -2 -15   6    2.24    6.14
  -1 -15   6    1.63    5.78
   0 -15   6   56.81    9.95
   0 -15   6   41.62    9.02
   1 -15   6   10.73    6.19
   1 -15   6    8.74    5.76
   2 -15   6   78.33   10.71
   2 -15   6   67.48   10.12
  -4  15  -6    6.57    6.12
  -5  15  -6  213.45   14.10
  -6  15  -6   18.63    6.52
  -7  15  -6   18.79    6.45
  -8  15  -6   -1.10    5.28
  -9  15  -6   12.15    6.19
 -10  15  -6   34.68    7.91
 -11  15  -6  258.50   15.71
  11 -15   6  300.98   19.73
  12 -15   6   68.39   11.74
 -12  15  -6   74.31    9.72
  13 -15   6   54.41   11.38
 -13  15  -6   45.92    8.80
 -14  15  -6  166.08   13.85
  14 -15   6  180.16   17.67
 -15  15  -6  105.10   11.83
  15 -15   6  105.88   16.48
  16 -15   6   -6.57    8.36
  -4 -14   6   14.54    8.08
  -3 -14   6   -0.40    6.13
  -2 -14   6  134.00   13.78
  -1 -14   6    8.55    6.04
   0 -14   6  128.74   12.51
   0 -14   6  135.65   11.84
   1 -14   6    2.62    4.65
   1 -14   6    7.70    4.95
   2 -14   6   43.91    8.33
   2 -14   6   32.01    7.18
  -3  14  -6  144.66   11.63
  -4  14  -6   26.65    6.90
  -5  14  -6   10.82    5.68
  -6  14  -6  320.47   16.60
  -7  14  -6   20.36    5.81
   8 -14   6    1.86    5.20
  -8  14  -6    9.34    5.21
  -9  14  -6  451.03   20.59
   9 -14   6  490.47   24.13
  10 -14   6  506.51   25.81
 -10  14  -6  478.82   21.19
 -11  14  -6   21.09    6.13
  11 -14   6   24.33    8.00
  12 -14   6   95.56   13.13
 -12  14  -6   80.27    9.67
 -13  14  -6   30.82    7.57
  13 -14   6   34.16    9.89
 -14  14  -6   12.99    7.16
  14 -14   6   19.51    8.88
  15 -14   6   32.00   11.18
 -15  14  -6   28.31    8.40
  16 -14   6   37.94   13.32
  17 -14   6   40.34   14.83
  -6 -13   6    2.91    7.78
  -5 -13   6   -1.18    6.87
  -4 -13   6   38.42    9.53
  -3 -13   6   18.91    6.87
  -2 -13   6   44.80    8.72
  -1 -13   6    5.24    5.37
   0 -13   6    1.26    4.51
   0 -13   6    6.58    4.66
   1 -13   6   46.12    7.83
   1 -13   6   43.18    7.68
  -3  13  -6  143.16   11.12
  -4  13  -6  458.39   19.96
   5 -13   6    9.02    5.42
  -5  13  -6    4.94    4.61
  -6  13  -6   91.43    9.18
   6 -13   6   85.68    9.73
   7 -13   6 1023.79   38.36
  -7  13  -6 1005.87   33.96
  -8  13  -6  234.43   13.47
   8 -13   6  230.83   15.35
   9 -13   6  144.82   12.54
  -9  13  -6  147.28   10.57
 -10  13  -6    7.05    4.77
  10 -13   6   -2.80    5.37
 -11  13  -6   10.48    5.44
  11 -13   6   17.07    7.15
 -12  13  -6   12.06    6.27
  12 -13   6   14.94    7.75
  13 -13   6  123.83   14.92
 -13  13  -6  107.80   11.19
 -14  13  -6  134.87   12.26
  14 -13   6  132.37   16.76
 -15  13  -6   49.71    9.24
  15 -13   6   52.46   12.76
  16 -13   6   51.80   13.93
  17 -13   6  161.75   21.52
  -7 -12   6    3.50    8.00
  -6 -12   6   18.38    8.23
  -5 -12   6  119.89   13.34
  -4 -12   6   46.05    9.42
  -3 -12   6  121.30   12.11
  -2 -12   6   48.04    8.24
  -1 -12   6   48.09    8.28
  -1 -12   6   46.04    8.00
   0 -12   6  165.12   11.88
   0 -12   6  169.55   12.16
   1 -12   6    7.30    4.32
   1 -12   6    8.51    4.72
  -2  12  -6  561.36   22.22
  -3  12  -6   18.84    5.50
  -4  12  -6  119.16    9.59
  -5  12  -6 1731.18   50.90
   5 -12   6 1663.51   56.09
   6 -12   6   76.97    9.21
  -6  12  -6   89.20    8.33
   7 -12   6   41.24    7.60
  -7  12  -6   44.72    6.69
   8 -12   6   19.53    5.81
  -8  12  -6   20.88    5.41
   9 -12   6  199.37   14.25
  -9  12  -6  184.22   11.78
 -10  12  -6   34.63    6.44
  10 -12   6   31.79    7.39
  11 -12   6  284.86   18.79
 -11  12  -6  263.77   14.54
  12 -12   6  146.91   14.27
 -12  12  -6  123.62   10.56
  13 -12   6  135.49   15.44
 -13  12  -6  109.91   10.89
 -14  12  -6    5.30    6.36
  14 -12   6    6.38    7.32
 -15  12  -6  161.31   13.99
  15 -12   6  206.58   19.24
  16 -12   6   17.13   10.79
  17 -12   6   51.05   14.08
  -8 -11   6    2.24    8.03
  -7 -11   6   33.28    9.67
  -6 -11   6    9.51    6.71
  -5 -11   6   21.63    6.87
  -4 -11   6   15.62    6.69
  -3 -11   6  126.18   11.52
  -2 -11   6   13.13    5.40
  -1 -11   6    5.14    4.44
  -1 -11   6   10.75    4.59
   0 -11   6  668.83   25.19
   0 -11   6  622.58   25.04
   1 -11   6    2.58    3.83
   1 -11   6    5.15    3.99
  -2  11  -6   71.24    7.57
  -3  11  -6  769.12   26.70
  -4  11  -6  117.50    8.57
   5 -11   6   97.12    9.42
  -5  11  -6   95.50    7.69
   6 -11   6  565.32   24.58
  -6  11  -6  576.88   21.11
   7 -11   6   84.03    9.65
  -7  11  -6   88.71    7.17
   8 -11   6   25.64    6.33
  -8  11  -6   21.38    5.03
  -9  11  -6  523.29   20.63
   9 -11   6  569.80   25.96
 -10  11  -6  171.34   11.09
  10 -11   6  211.41   15.19
  11 -11   6   91.55   11.67
 -11  11  -6   89.91    8.85
 -12  11  -6   31.03    6.54
  12 -11   6   29.97    9.33
 -13  11  -6   11.53    5.75
  13 -11   6   10.48    7.29
 -14  11  -6   49.63    9.12
  14 -11   6   51.04   11.64
 -15  11  -6   59.68    9.74
  15 -11   6   83.63   14.35
  16 -11   6   86.86   16.25
  17 -11   6   -0.42   11.46
  -9 -10   6   12.29    9.28
  -8 -10   6    3.77    7.46
  -7 -10   6   36.41    9.75
  -6 -10   6   29.46    8.08
  -5 -10   6  188.16   14.19
  -4 -10   6   29.44    7.49
  -3 -10   6  141.88   11.39
  -2 -10   6  585.71   24.25
  -1 -10   6    1.94    3.37
  -1 -10   6    1.13    3.50
   0 -10   6  130.14    9.75
   0 -10   6  144.22    9.84
  -2  10  -6   39.78    5.57
  -3  10  -6  291.44   13.14
  -4  10  -6 1140.82   34.95
   5 -10   6  161.54   11.31
  -5  10  -6  173.27    9.39
  -6  10  -6  399.14   15.52
   6 -10   6  374.95   18.60
   7 -10   6 1065.68   39.05
  -7  10  -6 1070.69   33.15
  -8  10  -6  173.47    9.75
   8 -10   6  194.11   13.47
  -9  10  -6  427.87   17.00
   9 -10   6  405.78   21.46
  10 -10   6   84.45   10.59
 -10  10  -6   68.84    7.51
  11 -10   6    3.38    4.76
 -11  10  -6    9.77    4.63
 -12  10  -6   78.87    8.73
  12 -10   6   77.50   12.00
  13 -10   6   23.94    8.50
 -13  10  -6   30.94    6.98
  14 -10   6   97.51   14.30
 -14  10  -6   82.73   10.51
  15 -10   6   28.07   11.10
 -15  10  -6   10.53    6.98
  16 -10   6    0.80    8.72
  17 -10   6   66.08   15.73
 -10  -9   6   -1.30    7.70
  -9  -9   6   69.35   12.54
  -8  -9   6   20.20    8.51
  -7  -9   6  121.91   13.11
  -6  -9   6    7.11    5.82
  -5  -9   6    7.79    5.34
  -4  -9   6  465.42   21.45
  -3  -9   6   12.33    5.10
  -2  -9   6   76.32    8.15
  -1  -9   6   49.74    6.59
  -1  -9   6   55.07    6.86
   0  -9   6  177.60   10.35
   0  -9   6  168.38   10.04
  -2   9  -6 1748.75   49.81
  -3   9  -6  257.94   11.49
  -4   9  -6  134.96    7.86
   5  -9   6  593.47   23.94
  -5   9  -6  584.22   20.01
   6  -9   6  318.73   16.50
  -6   9  -6  331.68   13.04
   6  -9   6  299.40   12.04
   7  -9   6  497.39   16.14
  -7   9  -6  526.96   18.23
   7  -9   6  507.29   22.90
   8  -9   6    6.82    5.03
  -8   9  -6    8.33    3.48
  -9   9  -6   75.42    6.82
   9  -9   6   70.80    9.59
  10  -9   6   15.88    6.37
 -10   9  -6   27.10    5.08
 -11   9  -6  111.94    9.17
  11  -9   6  120.69   13.30
 -12   9  -6   43.21    6.95
  12  -9   6   34.55    9.13
 -13   9  -6   64.94    8.57
  13  -9   6   55.55   11.27
 -14   9  -6    2.77    6.56
  14  -9   6    8.45    7.16
  15  -9   6   52.86   12.70
 -15   9  -6   36.88    8.85
  16  -9   6   14.22   10.12
  17  -9   6  -13.36    6.65
 -10  -8   6   47.82   11.24
  -9  -8   6  155.59   15.46
  -8  -8   6   28.56    8.57
  -7  -8   6   14.71    6.23
  -6  -8   6  300.67   17.57
  -5  -8   6    0.73    4.81
  -4  -8   6  105.06    9.47
  -3  -8   6  770.56   28.06
  -2  -8   6   38.86    5.89
  -1  -8   6   15.48    4.01
  -1  -8   6    8.26    3.54
   0  -8   6 3243.71   85.24
   0  -8   6 3163.16   86.67
  -2   8  -6  190.27    9.16
  -3   8  -6  166.11    8.26
  -4   8  -6   86.95    5.75
   5  -8   6  451.63   15.56
  -5   8  -6  477.88   15.87
   5  -8   6  435.88   19.60
   6  -8   6  205.90   12.69
   6  -8   6  197.60    8.28
  -6   8  -6  211.25    9.42
  -7   8  -6  367.95   14.09
   7  -8   6  370.68   12.06
   7  -8   6  366.83   18.56
   8  -8   6   32.23    7.17
  -8   8  -6   36.60    4.74
  -9   8  -6  174.10    9.74
   9  -8   6  168.03   12.91
  10  -8   6  135.24   12.45
 -10   8  -6  135.80    8.82
 -11   8  -6  750.46   26.83
  11  -8   6  730.71   33.50
  12  -8   6   46.27    9.66
 -12   8  -6   29.87    6.25
  13  -8   6   37.17    9.67
 -13   8  -6   28.62    7.24
 -14   8  -6  155.05   13.58
  14  -8   6  181.11   18.44
  15  -8   6   39.98   13.01
 -15   8  -6   26.16    8.34
  16  -8   6    0.77    9.33
  17  -8   6    5.42    7.59
 -11  -7   6   62.10   12.24
 -10  -7   6    5.02    7.13
  -9  -7   6   12.71    6.91
  -8  -7   6    5.40    5.93
  -7  -7   6   13.04    6.58
  -6  -7   6   73.91    9.37
  -5  -7   6 1613.66   50.63
  -4  -7   6  115.11    9.40
  -3  -7   6  245.91   12.77
  -2  -7   6 1696.01   49.67
  -1  -7   6    3.33    2.89
  -1  -7   6    1.24    2.78
   0  -7   6 2660.17   71.42
   0  -7   6 2591.51   69.88
  -1   7  -6   49.45    4.49
  -2   7  -6   71.21    5.03
  -3   7  -6  554.52   17.77
   4  -7   6  718.31   20.92
  -4   7  -6  622.64   20.24
   5  -7   6   90.17    8.00
   5  -7   6   85.74    5.16
  -6   7  -6  680.17   22.93
   6  -7   6  817.66   29.50
   6  -7   6  795.76   22.03
   7  -7   6  288.17   10.01
  -7   7  -6  309.00   12.11
   7  -7   6  309.47   16.41
  -8   7  -6  463.12   16.55
   8  -7   6  456.15   22.02
  -9   7  -6 1130.47   35.08
   9  -7   6 1177.05   43.34
 -10   7  -6   25.54    5.09
  10  -7   6   23.07    7.02
 -11   7  -6    6.13    4.56
  11  -7   6   -5.03    5.40
 -12   7  -6    9.24    5.23
  12  -7   6   -2.24    6.68
 -13   7  -6    9.20    5.88
  13  -7   6    4.44    7.76
 -14   7  -6   29.55    8.10
  14  -7   6   20.23   11.16
  15  -7   6   -4.54    9.81
 -15   7  -6    4.33    6.99
  16  -7   6   -0.66    8.59
 -12  -6   6    6.08    4.52
 -11  -6   6   -8.14    6.64
 -10  -6   6   28.82    8.82
  -9  -6   6    3.09    6.06
  -8  -6   6   14.92    6.06
  -7  -6   6  971.25   35.64
  -6  -6   6   97.48    9.89
  -5  -6   6   99.31    9.22
  -4  -6   6 1028.23   33.75
  -3  -6   6  265.98   12.73
  -2  -6   6  171.47    9.27
  -1  -6   6   43.36    4.65
   0  -6   6    0.76    2.07
   0  -6   6    0.07    2.00
  -1   6  -6  338.42   11.83
  -3   6  -6   27.95    2.60
  -4   6  -6  973.77   29.47
   4  -6   6 1146.80   36.50
   4  -6   6 1088.45   30.02
   5  -6   6  391.86   17.04
   5  -6   6  368.98   12.06
  -5   6  -6  347.61   12.34
   6  -6   6    9.98    4.01
   6  -6   6   14.22    2.27
   7  -6   6 1453.76   39.74
   7  -6   6 1546.18   50.80
  -8   6  -6  519.74   17.75
   8  -6   6  498.30   22.92
   8  -6   6  460.61   15.11
  -9   6  -6   33.59    5.19
   9  -6   6   35.73    7.89
  10  -6   6    3.76    5.41
 -10   6  -6    3.27    3.79
 -11   6  -6   -0.68    4.00
  11  -6   6    3.58    6.48
  12  -6   6   46.36   10.95
 -12   6  -6   53.56    7.63
  13  -6   6  127.71   16.58
 -13   6  -6  107.53   11.03
  14  -6   6  121.97   16.57
 -14   6  -6  112.73   12.04
 -15   6  -6   23.24    8.50
  15  -6   6   28.45   11.57
  16  -6   6   -2.60    7.27
 -13  -5   6   -2.46    4.48
 -12  -5   6    0.33    6.10
 -11  -5   6   55.38   10.43
 -10  -5   6   47.26    9.64
  -9  -5   6  421.75   21.57
  -8  -5   6  215.62   14.47
  -7  -5   6   31.65    6.99
  -6  -5   6  542.77   22.32
  -5  -5   6  180.96   11.15
  -4  -5   6  116.36    8.27
  -3  -5   6  153.98    8.81
  -2  -5   6   66.19    5.48
  -1  -5   6  339.38   12.72
   0  -5   6 3398.51   86.70
   0  -5   6 3390.43   88.47
  -1   5  -6   -1.13    0.61
   2  -5   6 1907.93   53.34
  -2   5  -6 2088.78   52.56
   3  -5   6  104.48    5.50
  -3   5  -6  110.60    5.00
   4  -5   6   68.50    6.83
   4  -5   6   65.98    4.25
  -4   5  -6   73.73    4.10
  -5   5  -6 1401.59   37.70
   5  -5   6 1381.71   45.58
   5  -5   6 1378.72   37.31
   6  -5   6    1.26    1.61
  -6   5  -6    1.18    1.80
   6  -5   6    2.70    3.60
   7  -5   6   64.69    4.60
   7  -5   6   82.96    8.42
  -8   5  -6  108.06    7.17
   8  -5   6  103.07    9.89
   8  -5   6  100.01    6.24
   9  -5   6    4.82    4.92
 -10   5  -6  129.18    9.39
  10  -5   6  137.94   13.09
 -11   5  -6  336.97   16.61
  11  -5   6  355.36   21.38
  12  -5   6   27.33    9.66
 -12   5  -6   30.94    6.90
 -13   5  -6   76.36    9.90
  13  -5   6   78.37   14.19
 -14   5  -6   68.13   10.25
  14  -5   6   55.17   13.14
  15  -5   6   11.94   10.33
 -15   5  -6   11.53    7.16
  16  -5   6  -11.17    6.04
 -13  -4   6   -3.22    3.89
 -12  -4   6   74.97   11.58
 -11  -4   6  264.65   17.34
 -10  -4   6  408.66   21.07
  -9  -4   6  155.36   12.65
  -8  -4   6   20.76    6.29
  -7  -4   6   91.87    9.13
  -6  -4   6  333.16   15.85
  -5  -4   6  517.24   20.13
  -4  -4   6   80.17    6.68
  -3  -4   6  503.51   17.83
  -2  -4   6 1261.45   36.08
  -1  -4   6    1.64    1.80
   0  -4   6 5248.33  133.71
   1  -4   6  123.91    6.29
   2  -4   6   78.30    4.68
  -2   4  -6   72.06    3.56
   3  -4   6  824.15   23.95
  -3   4  -6  867.64   23.00
   4  -4   6 1409.95   44.59
   4  -4   6 1369.30   37.26
  -4   4  -6 1375.38   36.75
   5  -4   6   87.69    4.96
  -5   4  -6  103.34    5.18
   5  -4   6   97.87    7.87
  -6   4  -6  475.69   16.12
   6  -4   6  512.48   15.83
   6  -4   6  507.77   21.12
   7  -4   6   24.14    3.46
   7  -4   6   28.56    5.83
   8  -4   6   21.88    3.96
  -8   4  -6   34.50    4.81
   8  -4   6   28.61    6.65
   9  -4   6  829.03   34.07
   9  -4   6  831.11   26.29
  -9   4  -6  833.26   27.94
  10  -4   6   36.36    8.74
 -10   4  -6   24.19    5.85
  11  -4   6   21.49    7.82
 -11   4  -6   24.69    6.34
 -12   4  -6   98.08   10.29
  12  -4   6   96.17   14.05
 -13   4  -6   10.27    6.59
  13  -4   6    8.20    9.45
  14  -4   6   20.80   10.25
 -14   4  -6   19.60    7.58
  15  -4   6  -10.41    9.05
 -15   4  -6   -1.05    6.61
  16  -4   6   26.80   12.12
 -14  -3   6    5.50    4.96
 -13  -3   6   46.97    9.73
 -12  -3   6   51.20    9.85
 -11  -3   6   15.77    6.64
 -10  -3   6    6.73    5.64
  -9  -3   6  162.65   12.11
  -8  -3   6   10.77    5.19
  -7  -3   6  963.91   32.93
  -6  -3   6  284.17   13.88
  -5  -3   6  405.40   16.37
  -4  -3   6  722.92   23.94
  -3  -3   6   87.13    6.04
  -2  -3   6 1902.11   51.54
  -1  -3   6  132.94    6.04
   0  -3   6 1635.24   44.57
   0  -3   6 1662.35   43.23
   1  -3   6  337.41   11.52
   2  -3   6    3.00    1.59
   3  -3   6  711.74   20.68
  -4   3  -6   28.34    2.61
   4  -3   6   31.01    4.60
   4  -3   6   30.49    2.98
  -5   3  -6    4.69    2.04
   5  -3   6    4.12    2.00
   5  -3   6    6.49    3.51
   6  -3   6  102.50    8.52
   6  -3   6  104.12    6.11
  -7   3  -6  267.79   12.49
   7  -3   6  348.42   12.98
   7  -3   6  384.75   17.67
  -8   3  -6   37.37    5.38
   8  -3   6   29.54    4.73
   8  -3   6   43.93    7.87
   9  -3   6   89.60   10.73
  -9   3  -6   70.70    7.44
   9  -3   6   72.59    7.16
 -10   3  -6  259.39   14.35
  10  -3   6  252.70   17.40
  11  -3   6  268.08   18.79
 -11   3  -6  241.93   14.36
 -12   3  -6    3.63    5.50
  12  -3   6   10.70    8.39
  13  -3   6   -0.85    8.05
 -13   3  -6    0.00    6.03
 -14   3  -6   63.48   10.61
  14  -3   6   77.44   14.58
  15  -3   6    3.49    9.49
  16  -3   6   12.95   10.50
 -14  -2   6   -0.03    3.95
 -13  -2   6   29.68    8.49
 -12  -2   6   91.22   11.31
 -11  -2   6   15.35    6.58
 -10  -2   6   37.57    7.70
  -9  -2   6  481.85   21.20
  -8  -2   6  175.29   11.72
  -7  -2   6  518.86   20.60
  -6  -2   6  179.11   10.36
  -5  -2   6   86.58    6.85
  -4  -2   6  998.67   30.34
  -3  -2   6   89.54    5.83
  -2  -2   6   84.23    5.06
  -2  -2   6   74.79    4.87
  -1  -2   6  333.65   11.59
  -1  -2   6  331.80   10.70
   0  -2   6    7.58    2.05
   1  -2   6  211.25    8.17
   2  -2   6  480.79   14.92
   3  -2   6  714.95   21.13
   3  -2   6  733.29   25.05
  -3   2  -6  723.16   20.01
   4  -2   6   10.22    3.32
  -4   2  -6   13.26    2.33
   4  -2   6   11.62    2.55
   5  -2   6  218.85    9.34
  -5   2  -6  221.70    9.25
   5  -2   6  224.56   11.96
   6  -2   6  246.67   10.84
   6  -2   6  272.03   14.17
  -7   2  -6   55.74    5.80
   7  -2   6   51.52    7.42
   7  -2   6   52.73    5.52
   8  -2   6    5.82    3.78
  -8   2  -6   15.37    4.46
   8  -2   6    4.80    4.69
   9  -2   6  279.85   17.51
   9  -2   6  274.76   13.78
  -9   2  -6  276.02   14.44
  10  -2   6    2.21    6.26
 -10   2  -6   14.60    5.31
  10  -2   6   13.04    5.45
  11  -2   6    5.51    6.82
 -11   2  -6    3.59    5.25
  12  -2   6  106.50   14.04
 -12   2  -6  116.70   11.61
  13  -2   6   -2.89    8.18
 -13   2  -6   -8.85    5.56
 -14   2  -6   -0.64    6.31
  14  -2   6    8.91    8.59
  15  -2   6   22.64   11.06
 -15  -1   6   -4.37    4.01
 -13  -1   6   19.46    7.56
 -12  -1   6   16.77    6.89
 -11  -1   6  238.14   15.21
 -10  -1   6  163.35   12.06
  -9  -1   6  371.75   17.92
  -8  -1   6    7.07    4.26
  -7  -1   6  344.99   15.45
  -6  -1   6  710.98   24.20
  -5  -1   6  360.12   14.28
  -4  -1   6   54.13    4.41
  -4  -1   6   54.30    5.08
  -3  -1   6  814.96   23.92
  -3  -1   6  797.94   23.82
  -2  -1   6    1.67    1.55
  -2  -1   6    1.04    1.40
  -1  -1   6  220.40    7.32
  -1  -1   6  228.02    8.52
   0  -1   6 1126.81   31.16
   1  -1   6   15.31    2.32
   2  -1   6  558.51   16.99
  -2   1  -6  537.74   15.43
   3  -1   6   62.70    5.44
  -3   1  -6   55.60    4.04
   3  -1   6   56.26    4.47
   4  -1   6   41.43    5.09
  -4   1  -6   46.83    4.22
   4  -1   6   45.01    4.23
   5  -1   6   15.37    4.03
   5  -1   6   14.15    3.31
  -6   1  -6   35.38    4.88
   6  -1   6   26.41    5.30
   6  -1   6   38.52    4.88
   7  -1   6  831.75   27.27
   7  -1   6  807.58   31.49
  -7   1  -6  820.56   27.47
  -8   1  -6  194.28   11.45
   8  -1   6  181.01   13.44
   8  -1   6  165.46   11.08
  -9   1  -6  139.90   10.62
   9  -1   6  122.00   12.03
   9  -1   6  130.17   10.26
 -10   1  -6  122.48   10.59
  10  -1   6  129.34   13.27
  10  -1   6  146.88   11.16
 -11   1  -6  105.78   10.99
  11  -1   6  122.52   13.69
  12  -1   6   -5.93    7.58
 -12   1  -6    5.36    6.20
 -13   1  -6   -0.09    6.67
  13  -1   6    9.33    9.59
 -14   1  -6  112.18   13.11
 -15   0   6   -4.30    3.81
 -14   0   6    9.28    6.65
 -13   0   6  104.81   12.13
 -12   0   6  124.70   12.29
 -11   0   6   86.22    9.93
 -10   0   6   69.99    8.69
  -9   0   6   64.62    8.03
  -8   0   6   33.61    5.96
  -7   0   6  293.53   13.80
  -6   0   6    9.86    3.50
  -6   0   6   10.21    2.40
  -5   0   6 1354.64   39.12
  -5   0   6 1357.50   37.99
  -4   0   6 1359.48   37.79
  -4   0   6 1327.82   37.10
  -3   0   6  643.23   19.26
  -3   0   6  638.16   19.32
  -2   0   6  442.11   13.49
  -2   0   6  437.89   14.02
  -1   0   6   14.07    2.21
  -1   0   6   12.09    1.81
   0   0   6   89.05    4.15
   0   0   6   98.62    5.22
   1   0   6  116.40    5.89
   1   0   6  106.05    4.83
  -2   0  -6  100.31    5.05
   2   0   6  114.15    6.19
  -3   0  -6   30.91    3.16
   3   0   6   30.33    3.80
   3   0   6   22.19    3.40
   4   0   6  233.21   11.59
   4   0   6  239.40   10.52
  -5   0  -6  514.51   18.34
   5   0   6  523.27   18.60
   5   0   6  517.35   20.68
  -6   0  -6   11.88    3.91
   6   0   6   14.53    4.75
   6   0   6   11.48    4.06
   7   0   6  313.04   14.93
   7   0   6  293.71   16.57
  -7   0  -6  329.88   15.08
   8   0   6  150.97   12.32
   8   0   6  140.86   10.73
  -8   0  -6  144.99   10.75
  -9   0  -6  313.61   16.49
   9   0   6  331.26   16.48
   9   0   6  310.57   18.68
  10   0   6   48.92    8.18
 -10   0  -6   52.66    8.42
  10   0   6   59.44   10.46
  11   0   6   46.61   10.37
 -11   0  -6   62.29    9.60
 -12   0  -6   19.88    7.43
  12   0   6   19.11    9.64
 -13   0  -6   17.91    7.30
 -14   0  -6   33.34    9.78
 -16   1   6   -4.50    4.05
 -15   1   6   -3.17    5.45
 -14   1   6  111.52   12.75
 -13   1   6  100.05   11.70
 -12   1   6   30.89    7.36
 -11   1   6   -1.40    4.29
 -10   1   6   13.81    5.55
  -9   1   6  157.39   10.89
  -9   1   6  159.56    8.63
  -8   1   6  464.18   16.28
  -8   1   6  420.10   18.04
  -7   1   6 1481.99   41.30
  -7   1   6 1458.36   43.54
  -6   1   6    4.38    1.60
  -6   1   6    6.79    3.10
  -5   1   6   94.65    6.37
  -4   1   6   33.16    3.09
  -4   1   6   30.33    3.65
  -3   1   6  759.97   22.33
  -3   1   6  762.09   22.16
  -2   1   6  567.74   17.20
  -2   1   6  560.10   16.80
  -1   1   6  118.05    5.83
  -1   1   6  118.47    5.46
   0   1   6   69.91    4.22
   0   1   6   76.02    4.71
   1   1   6  586.15   17.94
   1   1   6  615.59   19.11
   2   1   6  564.97   19.54
   2   1   6  584.05   18.91
   3   1   6  445.16   16.98
   3   1   6  459.67   16.36
  -4  -1  -6  398.62   14.83
   4   1   6  387.44   15.39
  -5  -1  -6  279.23   12.67
   5   1   6  294.93   13.47
   6   1   6  118.49    9.59
   6   1   6  121.86    9.39
  -6  -1  -6  135.24    9.10
   7   1   6  107.45    9.59
   7   1   6  127.02   10.71
  -7  -1  -6  112.61    9.49
   8   1   6   66.25    8.26
  -8  -1  -6   62.22    8.07
   8   1   6   70.04    9.45
   9   1   6  205.26   13.75
   9   1   6  202.33   15.15
  -9  -1  -6  195.23   13.47
  10   1   6   13.77    8.15
 -10  -1  -6   21.99    7.23
  10   1   6   30.93    7.74
  11   1   6   75.86    9.91
  11   1   6   61.72   11.59
 -11  -1  -6   87.00   11.08
 -12  -1  -6   74.39   11.21
 -13  -1  -6   -8.18    6.15
 -16   2   6   -0.74    4.11
 -15   2   6   22.01    7.84
 -14   2   6    7.03    6.47
 -13   2   6    7.63    6.56
 -12   2   6   50.91    8.69
 -11   2   6  105.92    9.94
 -10   2   6  124.98   10.17
  -9   2   6 1028.67   34.51
  -9   2   6 1061.97   31.07
  -8   2   6  500.76   16.82
  -8   2   6  502.63   19.60
  -7   2   6   77.33    5.00
  -7   2   6   80.25    6.84
  -6   2   6  512.40   18.08
  -6   2   6  503.37   16.11
  -5   2   6    2.65    1.39
  -5   2   6    2.96    2.39
  -4   2   6    6.12    1.75
  -4   2   6   16.87    2.94
  -3   2   6   60.58    4.11
  -3   2   6   63.71    4.55
  -2   2   6  122.50    5.99
  -2   2   6  118.01    6.01
  -1   2   6  587.68   17.83
  -1   2   6  583.84   18.36
   0   2   6  798.66   24.21
   0   2   6  802.07   23.38
   1   2   6  398.17   13.63
   1   2   6  398.84   14.40
   1   2   6  376.24   13.70
  -2  -2  -6  276.28   11.04
   2   2   6  269.73   11.20
   2   2   6  298.08   12.16
  -2  -2  -6  280.73   11.28
  -3  -2  -6   71.50    5.74
   3   2   6   70.61    6.51
   3   2   6   78.57    6.05
   4   2   6  410.21   16.73
   4   2   6  413.12   17.04
  -4  -2  -6  407.87   15.98
   5   2   6  387.27   17.05
  -5  -2  -6  400.19   16.46
   5   2   6  412.55   18.12
   6   2   6   36.66    6.47
  -6  -2  -6   42.64    6.48
   6   2   6   25.99    5.62
  -7  -2  -6  748.11   28.17
   7   2   6  774.12   28.53
   8   2   6   38.24    7.64
  -8  -2  -6   49.91    7.81
   8   2   6   34.87    7.76
   9   2   6   18.50    7.04
  -9  -2  -6   26.39    6.70
 -10  -2  -6  105.34   11.89
  10   2   6  106.80   11.70
 -11  -2  -6   30.62    8.77
  11   2   6   30.94    8.06
 -12  -2  -6   24.40    8.77
 -13  -2  -6   17.66    8.02
 -16   3   6   -1.04    3.88
 -15   3   6  139.52   14.11
 -14   3   6   42.73    9.24
 -13   3   6   40.27    8.34
 -12   3   6   38.02    7.68
 -11   3   6  658.61   26.26
 -10   3   6   20.59    5.55
  -9   3   6   26.05    5.97
  -9   3   6   32.47    3.52
  -8   3   6  110.14    6.01
  -8   3   6  109.69    8.33
  -7   3   6   27.95    3.01
  -7   3   6   23.09    4.57
  -6   3   6   91.36    6.82
  -6   3   6   99.29    5.34
  -5   3   6  239.31    9.06
  -5   3   6  242.29   10.59
  -4   3   6   33.18    3.00
  -4   3   6   52.12    4.62
  -3   3   6   26.73    3.68
  -3   3   6   28.37    3.18
  -2   3   6  630.07   19.83
  -2   3   6  622.25   19.57
  -1   3   6  397.15   13.96
  -1   3   6  371.43   13.50
   0   3   6  514.55   17.13
   0   3   6  512.10   17.76
   1   3   6   17.88    3.53
   1   3   6   24.04    4.01
  -2  -3  -6 1177.66   34.05
  -2  -3  -6 1162.35   34.57
   2   3   6 1162.20   35.33
   2   3   6 1134.69   35.63
   3   3   6   17.89    3.73
   3   3   6   21.61    4.75
  -3  -3  -6   19.76    4.05
  -4  -3  -6   38.74    5.48
   4   3   6   33.73    6.02
   4   3   6   40.25    5.32
  -5  -3  -6 1129.04   36.09
   5   3   6 1118.62   36.99
   5   3   6 1118.34   38.31
  -6  -3  -6    8.79    4.72
   6   3   6    7.84    4.92
   6   3   6    2.82    4.40
   7   3   6   -0.72    5.07
  -7  -3  -6    3.80    4.81
  -8  -3  -6   16.26    6.35
   8   3   6   22.49    7.14
   9   3   6  170.01   13.39
  -9  -3  -6  139.80   12.70
 -10  -3  -6   -1.41    6.64
  10   3   6    8.55    5.94
 -11  -3  -6    6.26    7.57
 -12  -3  -6   74.34   12.24
 -13  -3  -6   60.10   11.78
 -16   4   6   -2.82    4.11
 -15   4   6   64.61   10.77
 -14   4   6   76.63   11.13
 -13   4   6   54.49    9.03
 -12   4   6   45.00    8.07
 -11   4   6   -5.14    4.48
 -10   4   6    9.49    4.35
  -9   4   6    5.35    4.48
  -8   4   6   23.20    2.87
  -8   4   6   20.82    4.76
  -7   4   6  398.79   13.25
  -7   4   6  376.98   15.63
  -6   4   6  267.97   12.08
  -6   4   6  289.78   10.37
  -5   4   6   15.91    3.56
  -5   4   6   17.30    2.67
  -4   4   6  257.45   11.10
  -4   4   6  255.96   10.03
  -3   4   6  493.64   16.60
  -3   4   6  490.53   17.03
  -2   4   6  311.77   12.30
  -2   4   6  313.54   12.34
  -1   4   6   14.90    3.45
  -1   4   6   18.85    3.67
   0   4   6 2297.38   60.98
   0   4   6 2143.53   61.13
   1   4   6    7.04    3.14
   1   4   6    0.09    3.02
  -2  -4  -6  150.25    8.94
  -2  -4  -6  172.36    9.49
   2   4   6  146.00    9.78
  -3  -4  -6  509.06   19.58
   3   4   6  503.05   20.26
   4   4   6    8.62    4.36
  -4  -4  -6   11.22    4.24
   5   4   6  -10.83    3.80
  -5  -4  -6    1.49    4.10
  -6  -4  -6  187.73   12.76
   6   4   6  188.88   13.22
  -7  -4  -6  401.02   19.79
   7   4   6  404.06   20.53
   8   4   6   68.92   10.18
  -8  -4  -6   77.35   10.32
   9   4   6    2.13    6.34
  -9  -4  -6   20.41    8.64
 -10  -4  -6  120.35   13.75
  10   4   6  138.19   13.56
 -11  -4  -6   93.01   12.95
 -12  -4  -6   13.56    7.86
 -17   5   6   -0.70    4.64
 -16   5   6   -7.80    5.36
 -15   5   6   20.31    7.84
 -14   5   6   -2.50    6.46
 -13   5   6   27.51    7.83
 -12   5   6    0.16    4.71
 -11   5   6   -2.64    4.54
 -10   5   6  120.45    9.86
  -9   5   6  835.28   28.94
  -8   5   6   41.68    6.11
  -8   5   6   48.06    4.03
  -7   5   6   55.13    4.25
  -7   5   6   38.28    5.42
  -6   5   6   33.36    5.05
  -6   5   6   36.30    3.75
  -5   5   6  600.93   20.87
  -4   5   6  387.59   15.09
  -4   5   6  390.22   14.24
  -3   5   6   83.46    6.50
  -3   5   6   86.26    6.12
  -2   5   6 1196.11   35.48
  -2   5   6 1174.26   35.28
  -1   5   6    0.13    2.85
  -1   5   6    1.39    2.56
   0   5   6  221.77   11.50
   0   5   6  233.53   11.41
   1   5   6   52.92    6.35
   1   5   6   43.81    5.66
   2   5   6  909.73   31.04
  -2  -5  -6  909.16   30.12
  -2  -5  -6  906.50   29.65
  -3  -5  -6    8.46    3.99
  -3  -5  -6    8.24    3.99
   3   5   6   -0.08    4.42
   4   5   6  284.98   15.63
  -4  -5  -6  269.47   14.67
  -5  -5  -6  182.89   12.37
   5   5   6  170.84   12.58
   6   5   6   36.03    8.00
  -6  -5  -6   34.03    7.32
   7   5   6   44.64    8.95
  -7  -5  -6   49.09    9.08
   8   5   6   99.49   12.09
  -8  -5  -6   95.64   12.09
  -9  -5  -6  134.82   14.59
   9   5   6  162.09   14.16
 -10  -5  -6   -4.56    6.42
 -11  -5  -6    7.20    7.79
 -17   6   6   -0.75    4.34
 -16   6   6    0.22    6.40
 -15   6   6   40.95    9.45
 -14   6   6  180.81   14.81
 -13   6   6   14.86    6.51
 -12   6   6   47.29    8.37
 -11   6   6  334.77   17.10
 -10   6   6   37.88    6.61
  -9   6   6   68.57    7.61
  -8   6   6   11.18    4.35
  -7   6   6  805.49   27.76
  -7   6   6  856.73   25.26
  -6   6   6   16.62    3.18
  -6   6   6   15.07    4.58
  -4   6   6  426.18   16.92
  -4   6   6  442.21   16.28
  -3   6   6   25.27    4.76
  -3   6   6   26.04    4.37
  -2   6   6  165.07    9.88
  -2   6   6  193.36   10.49
  -1   6   6   50.45    5.88
  -1   6   6   36.28    5.54
   0   6   6  229.84   11.97
   0   6   6  215.16   12.06
   1   6   6   22.49    5.58
  -2  -6  -6  494.40   19.55
   2   6   6  459.00   20.65
  -2  -6  -6  466.21   19.61
  -3  -6  -6  116.73    9.39
  -3  -6  -6  117.35    9.82
   3   6   6  109.55   10.17
  -4  -6  -6   31.57    6.77
   4   6   6    9.79    5.63
  -5  -6  -6  196.35   13.41
   5   6   6  178.33   13.99
  -6  -6  -6    4.78    5.85
   6   6   6    7.79    6.08
   7   6   6  231.90   16.69
  -7  -6  -6  226.57   16.09
  -8  -6  -6    4.85    6.76
   8   6   6    5.79    6.70
   9   6   6   27.30    8.79
  -9  -6  -6   34.71   10.03
 -10  -6  -6   19.64    9.29
 -17   7   6    9.53    5.18
 -16   7   6    9.53    6.98
 -15   7   6   32.66    8.16
 -14   7   6   14.83    7.73
 -13   7   6  123.90   12.29
 -12   7   6   35.14    7.58
 -11   7   6   11.78    5.53
 -10   7   6  241.47   13.94
  -9   7   6  266.33   14.19
  -8   7   6  186.20   11.55
  -7   7   6  337.62   15.67
  -7   7   6  362.72   13.73
  -6   7   6  140.52    8.26
  -6   7   6  139.66    9.64
  -5   7   6  356.63   14.60
  -5   7   6  381.48   16.03
  -4   7   6   44.45    5.36
  -4   7   6   34.34    5.82
  -3   7   6  488.41   19.19
  -3   7   6  504.50   19.21
  -2   7   6  958.54   31.27
  -2   7   6  949.67   31.55
  -1   7   6   29.80    5.92
  -1   7   6   35.26    6.06
   0   7   6 1339.22   42.92
   0   7   6 1357.40   42.14
  -1  -7  -6   70.24    8.10
  -1  -7  -6   59.25    7.61
   1   7   6   65.62    8.39
  -2  -7  -6  369.63   17.59
   2   7   6  386.22   19.07
  -2  -7  -6  389.30   18.18
   3   7   6   76.37    9.67
  -3  -7  -6   83.22    9.07
  -3  -7  -6  100.70    9.88
  -4  -7  -6   14.96    6.06
   4   7   6    4.98    6.22
   5   7   6  276.59   17.69
  -5  -7  -6  289.74   17.38
   6   7   6    8.58    6.92
  -6  -7  -6    6.33    6.39
  -7  -7  -6   20.56    8.07
   7   7   6   19.06    7.61
  -8  -7  -6   15.03    8.02
   8   7   6   -0.38    6.26
  -9  -7  -6   -6.10    6.72
 -10  -7  -6   15.88    9.80
 -17   8   6    0.75    4.38
 -16   8   6    3.92    5.80
 -15   8   6    9.80    6.74
 -14   8   6   95.21   11.54
 -13   8   6   61.95    9.41
 -12   8   6   84.37    9.96
 -11   8   6  236.54   14.46
 -10   8   6   12.57    5.12
  -9   8   6  126.21   10.05
  -8   8   6  164.45   11.20
  -7   8   6  123.15    9.96
  -7   8   6  141.76    8.47
  -6   8   6   36.28    5.03
  -6   8   6   44.85    6.73
  -5   8   6 1221.69   36.86
  -5   8   6 1139.84   37.30
  -4   8   6    6.90    3.71
  -4   8   6    0.76    4.45
  -3   8   6    1.08    4.38
  -3   8   6    1.91    3.73
  -2   8   6  505.54   20.40
  -2   8   6  472.61   20.37
  -1   8   6   68.81    8.41
  -1   8   6   60.26    7.65
   0   8   6   92.52    9.53
   0   8   6   84.05    9.68
  -1  -8  -6    2.51    4.50
   1   8   6   -0.02    4.81
  -1  -8  -6    7.71    4.44
   2   8   6   39.21    8.35
  -2  -8  -6   39.23    7.04
  -2  -8  -6   38.01    7.26
  -3  -8  -6   35.77    7.20
   3   8   6   17.93    7.16
   4   8   6   27.01    8.15
  -4  -8  -6   41.86    8.41
  -5  -8  -6   36.23    9.10
   5   8   6   45.05    9.14
   6   8   6   65.53   11.13
  -6  -8  -6   55.26   10.25
   7   8   6   -8.74    5.49
  -7  -8  -6    7.09    7.31
  -8  -8  -6   39.03   10.33
  -9  -8  -6  136.74   16.30
 -17   9   6   -0.55    4.35
 -16   9   6   -0.31    4.55
 -15   9   6   38.32    9.00
 -14   9   6   59.63    9.74
 -13   9   6    6.40    6.04
 -12   9   6   -2.10    4.80
 -11   9   6    3.80    5.28
 -10   9   6  123.59   10.73
  -9   9   6  324.94   16.61
  -8   9   6   59.89    8.15
  -7   9   6  786.58   28.55
  -6   9   6    4.05    4.89
  -6   9   6   -0.28    2.31
  -5   9   6   -1.43    4.57
  -5   9   6   -4.22    3.53
  -4   9   6  298.93   15.55
  -4   9   6  319.59   15.52
  -3   9   6  113.19    9.82
  -3   9   6  110.39   10.25
  -2   9   6  407.71   19.24
  -2   9   6  388.24   18.50
  -1   9   6   -4.11    4.07
  -1   9   6   -4.14    4.62
   0   9   6   56.40    8.87
   0   9   6   51.42    8.00
   1   9   6   26.86    7.19
  -1  -9  -6   17.24    6.05
  -1  -9  -6   28.46    7.24
  -2  -9  -6    3.24    5.14
   2   9   6    8.56    6.83
  -2  -9  -6   15.59    6.17
  -3  -9  -6   21.49    7.14
   3   9   6    5.62    6.90
  -4  -9  -6  188.41   14.85
   4   9   6  208.25   16.10
  -5  -9  -6    0.33    6.41
   5   9   6   -8.14    5.91
   6   9   6    8.45    7.34
  -6  -9  -6   10.63    7.86
  -7  -9  -6  122.55   14.37
 -16  10   6   -0.60    4.13
 -15  10   6   17.55    7.76
 -14  10   6   28.06    7.63
 -13  10   6    2.80    5.90
 -12  10   6   82.47   10.27
 -11  10   6  100.13   10.75
 -10  10   6   61.17    8.82
  -9  10   6  197.15   13.15
  -8  10   6   41.76    7.40
  -7  10   6   -3.97    4.54
  -6  10   6  158.48   10.88
  -6  10   6  165.51   11.96
  -5  10   6  195.39   12.75
  -5  10   6  196.15   12.92
  -4  10   6   18.61    6.47
  -4  10   6   23.35    6.40
  -3  10   6   84.12    9.87
  -3  10   6   87.78    9.85
  -2  10   6   43.38    8.09
  -2  10   6   37.65    7.85
  -1  10   6   35.91    7.98
  -1  10   6   28.94    7.94
   0  10   6   34.09    8.33
   1  10   6   14.12    7.18
  -1 -10  -6   14.24    6.01
  -1 -10  -6   12.23    5.81
   2  10   6  373.44   21.45
  -2 -10  -6  340.74   18.88
  -2 -10  -6  327.71   19.31
  -3 -10  -6   12.44    6.88
   3  10   6   -5.48    6.03
  -4 -10  -6   10.46    7.00
   4  10   6    4.65    6.89
   5  10   6  172.08   15.90
  -5 -10  -6  188.43   16.02
  -6 -10  -6   47.44   10.63
 -16  11   6   -4.66    4.18
 -15  11   6   -2.11    5.70
 -14  11   6   84.78   11.63
 -13  11   6   -3.33    6.34
 -12  11   6    7.40    5.43
 -11  11   6   56.47    9.17
 -10  11   6   28.55    7.73
  -9  11   6   17.39    6.75
  -8  11   6   28.56    7.53
  -7  11   6  412.68   19.87
  -6  11   6   35.71    7.51
  -6  11   6   45.19    7.63
  -5  11   6  197.37   13.88
  -5  11   6  200.19   13.63
  -4  11   6   18.56    6.85
  -4  11   6    1.24    5.69
  -3  11   6   17.54    7.11
  -3  11   6   23.05    7.65
  -2  11   6    9.67    6.60
  -2  11   6    4.30    6.48
  -1  11   6    9.98    7.08
  -1  11   6   16.23    7.27
   0  11   6  135.17   13.89
   0 -11  -6  145.50   13.40
   0 -11  -6  170.17   13.36
  -1 -11  -6    6.06    6.44
  -1 -11  -6   16.42    7.24
   1  11   6    1.70    7.00
  -2 -11  -6   12.39    6.67
   2  11   6   -0.79    6.44
  -2 -11  -6   -0.32    5.06
  -3 -11  -6  133.96   14.27
   3  11   6   98.26   13.16
   4  11   6   -1.98    4.07
  -4 -11  -6    1.10    6.82
  -5 -11  -6   -3.55    7.44
 -16  12   6    0.30    4.27
 -15  12   6    0.20    4.30
 -14  12   6    9.44    7.07
 -13  12   6    6.39    7.25
 -12  12   6   18.64    7.70
 -11  12   6   82.64   11.06
 -10  12   6   96.25   11.20
  -9  12   6  136.23   11.90
  -8  12   6   94.42   10.96
  -7  12   6   46.80    8.94
  -6  12   6   15.80    6.96
  -5  12   6  328.85   18.19
  -5  12   6  292.17   17.84
  -4  12   6   35.70    8.30
  -4  12   6   27.87    8.47
  -3  12   6   22.42    7.82
  -3  12   6   11.37    6.78
  -2  12   6  318.21   20.11
  -2  12   6  382.17   20.59
  -1  12   6    2.62    6.81
   0  12   6   27.84    9.14
   0 -12  -6   27.30    8.38
   0 -12  -6   36.12    8.98
  -1 -12  -6    0.10    5.68
  -1 -12  -6    2.32    6.18
   1  12   6    3.50    7.88
  -2 -12  -6   -0.92    6.54
   2  12   6    0.88    6.27
  -3 -12  -6   -1.75    6.14
   3  12   6    4.59    4.82
  -4 -12  -6  117.43   14.60
 -15  13   6   -3.55    4.01
 -13  13   6    5.96    7.41
 -12  13   6   89.43   11.98
 -11  13   6   50.67    9.73
 -10  13   6   -4.12    5.78
  -9  13   6   18.70    7.55
  -8  13   6   93.80   11.59
  -7  13   6  251.92   16.76
  -6  13   6   12.81    7.55
  -5  13   6   39.21    9.56
  -5  13   6   62.80   10.22
  -4  13   6  222.45   17.15
  -4  13   6  210.77   16.03
  -3  13   6    9.76    7.98
  -3  13   6   -1.73    7.01
  -2  13   6    6.37    7.37
  -2  13   6    6.69    7.58
   1 -13  -6    3.57    7.39
  -1  13   6   -0.96    6.79
   1 -13  -6    4.23    6.29
   0  13   6    0.43    6.82
   0 -13  -6    8.16    6.59
   0 -13  -6    1.17    6.40
  -1 -13  -6   12.30    6.27
  -1 -13  -6   -1.45    5.85
   1  13   6   -4.26    4.40
  -2 -13  -6  108.44   14.19
 -14  14   6    6.80    6.96
 -13  14   6   -6.87    6.99
 -12  14   6   10.42    8.18
 -11  14   6   10.23    7.16
 -10  14   6  114.45   13.01
  -9  14   6  159.52   14.28
  -8  14   6   10.53    7.71
  -7  14   6   10.26    7.93
  -6  14   6   77.61   11.77
  -5  14   6    7.42    7.49
  -4  14   6   11.52    7.80
  -4  14   6    1.72    7.98
  -3  14   6  155.47   15.44
  -3  14   6  169.28   15.48
  -2  14   6   -6.48    6.56
   1 -14  -6   -3.42    4.49
  -1  14   6    7.70    7.32
   1 -14  -6    4.62    5.02
   0 -14  -6    3.09    5.17
   0  14   6   44.68    9.42
   0 -14  -6   -1.58    4.67
 -13  15   6   12.71    9.09
 -12  15   6  101.08   13.44
 -11  15   6   85.55   12.78
 -10  15   6    2.52    8.15
  -9  15   6   34.90   10.06
  -8  15   6    2.60    7.75
  -7  15   6    3.65    7.63
  -6  15   6   12.51    8.63
  -5  15   6  226.94   17.59
  -4  15   6    1.08    8.40
  -4  15   6   -2.63    7.06
  -3  15   6    0.41    7.94
  -3  15   6   -2.42    6.68
   2 -15  -6    5.32    5.16
  -2  15   6  107.06   14.19
 -10  16   6   20.28    9.23
  -9  16   6    4.39    8.91
  -8  16   6   41.07   11.46
  -7  16   6  151.11   16.25
  -6  16   6   51.03   12.40
  -5  16   6   -3.85    9.30
  -9  20  -7   23.26    8.89
 -10  20  -7    2.13    7.69
   4 -19   7   26.56   11.39
   4 -19   7   32.14   11.20
  -6  19  -7   41.85    9.70
  -7  19  -7    6.01    7.17
  -8  19  -7   25.96    7.97
  -9  19  -7   -0.57    6.53
 -10  19  -7   24.97    8.46
 -11  19  -7   22.32    7.74
 -12  19  -7   59.49   10.78
 -13  19  -7   10.63    8.34
   2 -18   7    8.81    7.65
   2 -18   7    7.06    8.02
   3 -18   7   -2.33    6.74
   3 -18   7    6.10    6.16
   4 -18   7   67.55   12.66
   4 -18   7   75.84   12.88
  -5  18  -7   48.19    9.44
  -6  18  -7   15.41    7.25
  -7  18  -7   29.17    8.12
  -8  18  -7    0.39    6.12
  -9  18  -7   19.11    8.08
 -10  18  -7  105.74   11.79
 -11  18  -7   38.92    9.22
 -12  18  -7    8.35    6.33
 -13  18  -7   42.67    9.14
   0 -17   7    6.97    7.28
   1 -17   7    3.51    6.95
   1 -17   7    6.46    6.85
   2 -17   7    9.88    7.64
   2 -17   7   19.29    8.46
   3 -17   7   39.64    9.35
   3 -17   7   56.89   10.64
  -5  17  -7  115.28   12.22
  -6  17  -7   -6.55    5.18
  -7  17  -7   76.16   10.79
  -8  17  -7  287.91   17.46
  -9  17  -7   69.23   10.06
 -10  17  -7   -2.49    5.84
 -11  17  -7   24.31    7.56
 -12  17  -7    6.42    6.97
 -13  17  -7   -5.44    5.74
 -14  17  -7   18.77    7.41
  16 -17   7   31.73   13.62
  -2 -16   7   23.55    9.03
  -1 -16   7    1.86    6.62
   0 -16   7    2.86    6.17
   1 -16   7   65.66   10.67
   1 -16   7   64.12   10.62
   2 -16   7    4.86    5.69
   2 -16   7   13.36    6.25
   3 -16   7  291.96   18.72
   3 -16   7  334.19   19.92
  -4  16  -7   15.80    6.54
  -5  16  -7   10.71    6.40
  -6  16  -7  299.63   17.18
  -7  16  -7   69.15    9.54
  -8  16  -7   11.64    6.20
  -9  16  -7   -4.98    5.35
 -10  16  -7    5.31    5.93
 -11  16  -7   -2.24    6.06
 -12  16  -7  149.40   12.77
  12 -16   7  160.44   15.36
  13 -16   7   38.44   10.08
 -13  16  -7   40.74    8.26
 -14  16  -7    7.91    6.98
  14 -16   7   22.84    9.56
  15 -16   7   22.82   10.49
  16 -16   7   51.72   13.62
  -3 -15   7    2.74    7.21
  -2 -15   7   19.65    7.54
  -1 -15   7   69.66   11.19
   0 -15   7    2.88    5.86
   0 -15   7    4.28    5.50
   1 -15   7  261.11   16.80
   1 -15   7  265.69   17.40
   2 -15   7    5.54    5.22
   2 -15   7    0.45    5.05
  -4  15  -7  210.02   14.08
  -5  15  -7   10.55    6.17
  -6  15  -7   15.80    6.31
  -7  15  -7  113.23   10.80
  -8  15  -7   13.65    6.14
  -9  15  -7    5.75    5.39
   9 -15   7    4.94    6.04
  10 -15   7  236.58   17.24
 -10  15  -7  223.01   14.33
 -11  15  -7  133.75   11.72
  11 -15   7  152.05   14.63
 -12  15  -7   91.75   10.49
  12 -15   7  103.84   13.39
 -13  15  -7   11.03    6.68
  13 -15   7   35.02   10.16
  14 -15   7   50.92   11.56
 -14  15  -7   38.41    8.72
  15 -15   7   72.25   14.05
  16 -15   7   23.95   11.39
  -4 -14   7   59.43   11.03
  -3 -14   7   33.37    8.68
  -2 -14   7   -5.93    5.34
  -1 -14   7  225.02   16.03
   0 -14   7    5.94    5.23
   0 -14   7   10.56    5.60
   1 -14   7   36.00    7.82
   1 -14   7   24.08    7.26
   2 -14   7   30.72    7.37
   2 -14   7   23.74    7.16
  -3  14  -7    4.83    4.84
  -4  14  -7    0.68    4.64
  -5  14  -7  264.30   15.10
  -6  14  -7   28.78    6.78
   7 -14   7  214.27   14.63
  -7  14  -7  209.67   13.12
   8 -14   7  460.45   23.30
  -8  14  -7  464.26   20.14
  -9  14  -7  266.34   14.96
   9 -14   7  277.12   17.80
  10 -14   7   70.31   10.55
 -10  14  -7   57.19    7.99
  11 -14   7    5.23    6.16
 -11  14  -7    0.94    5.00
  12 -14   7    0.63    6.71
 -12  14  -7    2.85    5.60
 -13  14  -7   22.56    7.15
  13 -14   7   21.15    8.76
  14 -14   7   36.79   10.56
 -14  14  -7   30.12    8.18
  15 -14   7   33.08   10.26
  16 -14   7   16.86    9.64
  -6 -13   7   59.53   12.25
  -5 -13   7   28.04    8.58
  -4 -13   7    9.11    6.97
  -3 -13   7  333.41   20.02
  -2 -13   7   -2.63    4.84
  -1 -13   7   30.18    7.30
   0 -13   7   17.37    5.25
   0 -13   7   23.60    6.23
   1 -13   7    9.52    5.00
   1 -13   7   12.56    5.20
   2 -13   7    6.52    4.68
   2 -13   7    5.63    4.70
  -3  13  -7  431.02   19.23
  -4  13  -7    6.64    5.05
   5 -13   7   24.09    6.47
  -5  13  -7   16.50    5.32
  -6  13  -7  564.72   22.41
   6 -13   7  564.72   25.33
   7 -13   7   67.56    8.69
  -7  13  -7   52.86    7.51
   8 -13   7   52.24    8.46
  -8  13  -7   46.16    7.03
  -9  13  -7   17.88    5.52
   9 -13   7   25.79    6.75
 -10  13  -7   60.42    7.82
  10 -13   7   53.97    9.91
  11 -13   7   13.36    6.85
 -11  13  -7    5.12    5.04
 -12  13  -7   45.76    7.94
  12 -13   7   54.59   10.68
  13 -13   7  169.91   16.73
 -13  13  -7  180.97   13.08
 -14  13  -7   20.56    7.36
  14 -13   7   31.57    9.78
  15 -13   7   -5.33    8.12
  16 -13   7   39.62   12.00
  -7 -12   7   12.19    8.88
  -6 -12   7    4.43    7.05
  -5 -12   7   93.90   12.09
  -4 -12   7    6.65    6.10
  -3 -12   7    0.61    5.11
  -2 -12   7   46.46    8.38
  -1 -12   7    3.67    4.48
   0 -12   7    4.44    4.16
   0 -12   7    1.43    4.11
   1 -12   7  730.45   27.96
   1 -12   7  746.27   27.71
  -3  12  -7   15.16    5.08
  -4  12  -7  826.81   28.80
   5 -12   7   15.59    6.11
  -5  12  -7   15.28    5.00
  -6  12  -7  150.27   10.22
   6 -12   7  162.29   12.59
  -7  12  -7    2.09    3.94
   7 -12   7    4.30    3.96
  -8  12  -7  541.84   21.06
   8 -12   7  556.67   25.50
   9 -12   7  119.91   11.71
  -9  12  -7  126.07    9.50
  10 -12   7   90.66   11.78
 -10  12  -7   97.97    8.74
 -11  12  -7  169.09   11.61
  11 -12   7  206.73   16.25
 -12  12  -7   46.46    7.36
  12 -12   7   53.09   11.02
  13 -12   7   11.99    7.37
 -13  12  -7   13.22    6.08
 -14  12  -7   -3.20    5.44
  14 -12   7    4.34    8.47
  15 -12   7  173.21   19.45
  16 -12   7   50.62   13.39
  17 -12   7    6.69   12.21
  -8 -11   7   31.33   10.07
  -7 -11   7   32.74    9.81
  -6 -11   7    0.24    6.16
  -5 -11   7   16.17    7.24
  -4 -11   7  206.48   14.73
  -3 -11   7   -6.24    4.37
  -2 -11   7    6.18    4.56
  -1 -11   7  760.91   28.83
   0 -11   7    3.08    3.76
   0 -11   7    1.12    3.48
   1 -11   7   10.85    4.71
   1 -11   7   20.37    5.51
  -2  11  -7   98.95    8.52
  -3  11  -7  115.63    8.66
  -4  11  -7  102.70    7.87
   5 -11   7  809.32   31.70
  -5  11  -7  828.96   27.43
  -6  11  -7  469.89   17.88
   6 -11   7  446.48   21.49
   7 -11   7   28.46    6.89
  -7  11  -7   34.96    5.35
   8 -11   7   56.71    8.47
  -8  11  -7   44.30    5.87
   9 -11   7    3.01    5.25
  -9  11  -7   11.11    4.65
 -10  11  -7  200.33   11.88
  10 -11   7  233.12   16.22
  11 -11   7    8.54    6.26
 -11  11  -7   13.95    4.99
 -12  11  -7   13.20    5.31
  12 -11   7    9.05    6.95
  13 -11   7  154.25   15.18
 -13  11  -7  152.75   11.80
  14 -11   7   34.12   10.23
 -14  11  -7   35.47    8.03
  15 -11   7   26.09    9.86
  16 -11   7   20.91   10.63
  17 -11   7   36.64   13.24
  -9 -10   7   12.98    8.79
  -8 -10   7    1.43    7.10
  -7 -10   7   95.31   12.53
  -6 -10   7  291.50   18.41
  -5 -10   7   23.57    7.10
  -4 -10   7    2.72    4.73
  -3 -10   7  456.72   21.21
  -2 -10   7   12.72    5.07
  -1 -10   7   16.71    5.18
   0 -10   7   11.45    3.98
   1 -10   7  287.59   14.12
   1 -10   7  323.51   14.89
  -2  10  -7  163.52    9.44
  -3  10  -7  412.43   16.17
  -4  10  -7  177.55    9.52
   5 -10   7  864.47   32.45
  -5  10  -7  849.08   27.33
   6 -10   7  134.76   11.20
  -6  10  -7  131.86    8.01
   6 -10   7  127.38    7.89
  -7  10  -7   50.53    5.50
   7 -10   7   36.80    7.30
  -8  10  -7  386.92   15.59
   8 -10   7  389.46   20.15
   9 -10   7    8.15    5.29
  -9  10  -7   12.60    3.80
  10 -10   7  225.39   16.05
 -10  10  -7  218.46   11.78
  11 -10   7   92.84   11.75
 -11  10  -7   95.65    8.71
 -12  10  -7    8.58    5.12
  12 -10   7   11.12    6.93
 -13  10  -7   12.84    5.99
  13 -10   7   25.98    8.50
 -14  10  -7   29.57    7.63
  14 -10   7   27.25    9.95
  15 -10   7   89.25   14.29
  16 -10   7    6.54    9.95
  17 -10   7    9.13   10.74
 -10  -9   7   34.93   11.08
  -9  -9   7   22.35    8.29
  -8  -9   7  287.78   19.67
  -7  -9   7   84.74   11.42
  -6  -9   7   19.74    7.13
  -5  -9   7  241.73   15.35
  -4  -9   7   14.29    5.70
  -3  -9   7   20.74    5.67
  -2  -9   7   92.41    8.55
  -1  -9   7  280.34   14.02
   0  -9   7   -0.03    2.71
   0  -9   7   -2.67    2.62
   1  -9   7  730.13   24.75
   1  -9   7  743.77   25.25
  -2   9  -7   19.29    3.80
  -3   9  -7  260.87   11.39
  -4   9  -7  106.82    6.84
  -5   9  -7   45.63    4.81
   5  -9   7   44.71    4.77
   5  -9   7   44.87    6.85
   6  -9   7  931.80   34.71
   6  -9   7  921.49   27.75
  -6   9  -7  950.42   28.61
  -7   9  -7   15.75    3.43
   7  -9   7    2.65    2.55
   7  -9   7   16.22    5.49
  -8   9  -7  494.78   17.86
   8  -9   7  483.12   23.05
  -9   9  -7   67.80    6.35
   9  -9   7   75.69    9.98
 -10   9  -7   82.92    7.41
  10  -9   7   78.98   10.67
 -11   9  -7  103.79    8.78
  11  -9   7  103.11   12.43
 -12   9  -7   38.48    6.76
  12  -9   7   37.10    9.17
  13  -9   7    3.91    6.32
 -13   9  -7    2.44    5.42
  14  -9   7    2.11    7.78
 -14   9  -7   15.58    7.06
  15  -9   7   46.73   13.65
  16  -9   7    0.75    7.80
  17  -9   7   -8.58    6.87
 -10  -8   7  100.13   13.74
  -9  -8   7   73.43   11.76
  -8  -8   7    0.51    5.88
  -7  -8   7  111.86   12.22
  -6  -8   7   16.52    6.44
  -5  -8   7   16.42    5.62
  -4  -8   7  763.83   28.43
  -3  -8   7  102.36    8.94
  -2  -8   7  160.73   10.21
  -1  -8   7  736.93   25.44
   0  -8   7    1.63    2.74
   0  -8   7    0.71    2.62
   1  -8   7  664.97   22.01
   1  -8   7  649.97   22.21
  -2   8  -7    7.27    2.53
  -3   8  -7  119.65    6.79
  -4   8  -7   11.74    2.56
   5  -8   7    9.10    2.69
   5  -8   7    9.38    4.35
   6  -8   7  203.24   12.88
   6  -8   7  195.45    8.53
   7  -8   7   16.32    5.40
  -7   8  -7    5.38    1.99
   7  -8   7    8.82    2.54
   8  -8   7  239.52   15.58
  -8   8  -7  264.87   11.30
  -9   8  -7   61.91    5.98
   9  -8   7   53.50    8.77
  10  -8   7  212.03   15.46
 -10   8  -7  221.57   11.45
 -11   8  -7  212.49   12.40
  11  -8   7  207.56   16.02
  12  -8   7   39.10   10.28
 -12   8  -7   36.98    6.55
 -13   8  -7  137.32   11.73
  13  -8   7  152.93   17.32
 -14   8  -7    4.51    6.06
  14  -8   7   -3.64    8.89
  15  -8   7   -3.66    9.71
  16  -8   7    0.55    7.20
 -11  -7   7   49.66   11.18
 -10  -7   7    8.80    7.36
  -9  -7   7    4.96    6.64
  -8  -7   7   19.69    7.04
  -7  -7   7  194.25   14.29
  -6  -7   7  541.39   23.78
  -5  -7   7   10.15    5.22
  -4  -7   7   96.20    8.68
  -3  -7   7  404.52   17.22
  -2  -7   7   16.69    4.26
  -1  -7   7  651.07   22.34
   0  -7   7   17.72    3.50
  -2   7  -7  209.46    8.78
  -3   7  -7    1.35    1.08
   4  -7   7 1226.45   34.13
  -4   7  -7 1159.55   33.41
   5  -7   7  591.80   18.47
  -5   7  -7  585.74   18.51
   5  -7   7  590.33   23.81
  -6   7  -7  146.92    7.18
   6  -7   7  159.93   11.30
   6  -7   7  147.01    6.85
   7  -7   7   13.14    2.57
   7  -7   7    4.49    4.39
  -7   7  -7    4.06    1.95
   8  -7   7  307.77   17.31
   9  -7   7  235.91   15.93
  -9   7  -7  286.15   12.38
 -10   7  -7   45.34    6.04
  10  -7   7   37.03    8.84
  11  -7   7  207.76   16.96
 -11   7  -7  218.13   12.49
  12  -7   7  114.53   14.49
 -12   7  -7  112.89    9.97
 -13   7  -7    3.06    5.67
  13  -7   7    2.55    8.82
 -14   7  -7   37.03    8.27
  14  -7   7   23.26   11.17
  15  -7   7  166.43   19.51
  16  -7   7   -5.12    6.76
 -12  -6   7   -6.65    6.40
 -11  -6   7   22.11    8.07
 -10  -6   7    6.20    6.72
  -9  -6   7    7.96    6.30
  -8  -6   7  412.55   21.03
  -7  -6   7   57.88    8.67
  -6  -6   7  148.02   11.61
  -5  -6   7  749.79   27.71
  -4  -6   7  164.18   10.47
  -3  -6   7  239.86   11.84
  -2  -6   7    3.20    2.56
  -1  -6   7  790.50   25.02
   0  -6   7    1.02    1.70
   0  -6   7    3.47    1.80
   1  -6   7   97.61    5.79
   1  -6   7   87.69    5.52
  -2   6  -7  322.38   11.02
   3  -6   7  877.27   26.35
  -3   6  -7  909.18   25.35
   4  -6   7   14.25    2.62
  -4   6  -7   15.94    2.26
   5  -6   7   11.19    2.43
   5  -6   7   18.41    4.58
  -5   6  -7   16.00    2.44
  -6   6  -7  763.27   22.57
   6  -6   7  737.51   28.86
   6  -6   7  759.69   22.05
   7  -6   7  173.97   12.23
  -7   6  -7  175.54    8.35
   7  -6   7  184.83    7.76
   8  -6   7  131.65   11.38
   8  -6   7  106.61    6.16
  -9   6  -7   44.78    5.45
   9  -6   7   55.65    9.15
 -10   6  -7  113.53    8.63
  10  -6   7  107.48   12.67
  11  -6   7  175.91   15.38
 -11   6  -7  178.45   11.38
  12  -6   7    3.32    6.82
 -12   6  -7   -2.54    4.45
  13  -6   7  221.89   19.03
 -13   6  -7  216.98   14.55
  14  -6   7   19.44   10.28
  15  -6   7   28.00   11.15
  16  -6   7    2.22    6.96
 -13  -5   7   40.10   10.91
 -12  -5   7    2.39    7.41
 -11  -5   7   -0.73    6.34
 -10  -5   7  207.84   15.19
  -9  -5   7  272.03   16.95
  -8  -5   7   38.09    7.74
  -7  -5   7    2.83    4.53
  -6  -5   7  419.31   19.07
  -5  -5   7  745.30   26.84
  -4  -5   7  101.21    7.90
  -3  -5   7  103.59    7.22
  -2  -5   7  216.46    9.94
  -1  -5   7  100.59    6.07
   0  -5   7    0.37    1.68
   1  -5   7 1326.41   38.53
   1  -5   7 1412.39   36.69
   1  -5   7 1378.19   37.31
   2  -5   7   84.62    5.50
  -2   5  -7   95.59    4.52
   3  -5   7    4.45    2.05
  -3   5  -7    5.76    1.57
  -4   5  -7 1868.00   47.58
   4  -5   7 1734.33   56.53
   4  -5   7 1807.92   48.36
  -5   5  -7  561.97   16.83
   5  -5   7  547.54   22.36
   5  -5   7  571.57   17.35
  -6   5  -7   28.61    3.26
   6  -5   7   30.09    3.32
   6  -5   7   29.72    5.52
  -7   5  -7  106.60    6.47
   7  -5   7  115.27    9.86
   7  -5   7   94.95    5.89
   8  -5   7  819.69   25.09
   8  -5   7  851.40   33.35
  -9   5  -7    7.07    3.54
   9  -5   7    7.94    5.89
 -10   5  -7    1.70    3.62
  10  -5   7    7.37    6.72
 -11   5  -7   20.67    5.75
  11  -5   7   18.52    7.93
  12  -5   7    7.62    7.89
 -12   5  -7    1.06    4.80
  13  -5   7    9.32    9.53
 -13   5  -7   10.79    6.41
  14  -5   7   60.65   13.76
  15  -5   7   64.82   13.97
  16  -5   7   60.72   14.63
 -13  -4   7   -4.71    6.49
 -12  -4   7  118.11   13.26
 -11  -4   7  139.92   13.14
 -10  -4   7   43.82    8.57
  -9  -4   7   18.11    6.73
  -8  -4   7  489.69   21.94
  -7  -4   7   15.74    5.54
  -6  -4   7  118.67    9.41
  -5  -4   7   49.91    6.21
  -4  -4   7    3.85    2.63
  -3  -4   7    6.00    2.74
  -2  -4   7  315.48   12.10
  -1  -4   7 1357.66   37.48
   0  -4   7    2.06    1.49
   0  -4   7    3.92    2.37
   1  -4   7  953.61   25.99
   1  -4   7  969.18   27.88
   1  -4   7  953.27   25.46
   2  -4   7   62.66    4.58
   3  -4   7 2029.78   53.98
  -4   4  -7   12.13    1.73
   4  -4   7   11.70    2.42
   4  -4   7   13.61    3.76
   5  -4   7   19.89    4.64
  -5   4  -7   26.30    2.77
   5  -4   7   21.66    2.84
   6  -4   7  937.52   27.58
  -6   4  -7  956.66   27.50
   6  -4   7  951.41   34.24
   7  -4   7  165.01   11.82
   7  -4   7  153.60    8.08
  -7   4  -7  168.68    8.39
   8  -4   7  252.07   11.31
   8  -4   7  269.38   15.89
  -9   4  -7    0.08    3.62
   9  -4   7   -0.09    3.26
   9  -4   7    2.26    4.89
  10  -4   7   20.13    7.56
 -10   4  -7   11.46    4.92
 -11   4  -7   51.71    7.69
  11  -4   7   52.41   10.77
  12  -4   7  161.45   17.01
 -12   4  -7  167.95   12.55
 -13   4  -7   46.02    8.81
  13  -4   7   64.93   12.86
  14  -4   7  108.84   16.14
  15  -4   7   32.16   11.51
  16  -4   7   95.13   16.47
 -14  -3   7   -1.54    5.88
 -13  -3   7   36.06    8.85
 -12  -3   7   93.75   11.99
 -11  -3   7    2.70    5.31
 -10  -3   7   42.88    8.16
  -9  -3   7  117.82   11.08
  -8  -3   7   33.37    6.57
  -7  -3   7   42.43    6.73
  -6  -3   7  872.38   29.65
  -5  -3   7   11.97    3.63
  -4  -3   7 1156.22   34.84
  -3  -3   7  862.56   26.42
  -2  -3   7   89.98    5.59
  -1  -3   7  961.50   26.71
  -1  -3   7  927.75   27.75
   0  -3   7    1.28    1.17
   0  -3   7   -0.71    1.48
   1  -3   7  686.46   20.73
   2  -3   7  231.63    9.06
   3  -3   7 1380.48   37.79
  -4   3  -7  631.38   17.94
   4  -3   7  623.11   23.43
   4  -3   7  636.73   19.27
   5  -3   7  105.36    8.16
  -5   3  -7  109.90    5.68
   5  -3   7  105.51    6.16
   6  -3   7   49.90    4.64
   6  -3   7   48.05    6.68
  -6   3  -7   52.95    4.86
   7  -3   7   39.87    6.79
   7  -3   7   30.93    4.47
   8  -3   7   67.59    8.91
   8  -3   7   67.31    6.42
   9  -3   7  467.94   18.26
   9  -3   7  463.38   23.19
  -9   3  -7  450.37   18.75
 -10   3  -7   98.47    9.27
  10  -3   7  116.46   12.78
  11  -3   7   54.93   11.14
 -11   3  -7   48.78    7.80
  12  -3   7   66.03   12.04
 -12   3  -7   57.19    8.83
 -13   3  -7   62.34    9.82
  13  -3   7   65.69   13.29
  14  -3   7   46.99   11.93
  15  -3   7   -9.99    8.57
  16  -3   7   28.88   13.64
 -14  -2   7    6.84    6.15
 -13  -2   7   15.20    7.94
 -12  -2   7    4.71    6.02
 -11  -2   7    7.64    5.74
 -10  -2   7   72.73    9.48
  -9  -2   7    6.46    5.11
  -8  -2   7  343.18   16.65
  -7  -2   7   10.58    4.45
  -6  -2   7  180.30   10.38
  -5  -2   7  534.96   19.31
  -4  -2   7   23.57    3.88
  -3  -2   7    6.62    2.20
  -3  -2   7    6.91    2.49
  -2  -2   7   58.63    4.27
  -2  -2   7   55.95    4.39
  -1  -2   7  662.64   18.59
  -1  -2   7  642.05   19.95
   0  -2   7    2.20    1.87
   1  -2   7 1956.44   52.16
   2  -2   7   78.24    4.80
   3  -2   7  478.39   18.40
   3  -2   7  467.50   15.34
   4  -2   7    6.12    3.18
  -4   2  -7    8.20    2.15
   4  -2   7   10.38    2.51
   5  -2   7  335.25   15.82
   5  -2   7  340.99   12.90
  -5   2  -7  351.03   12.62
   6  -2   7   10.11    3.95
  -6   2  -7    6.46    2.95
   6  -2   7    5.43    3.07
   7  -2   7  285.93   15.75
   7  -2   7  282.82   12.60
  -8   2  -7 1400.49   42.42
   8  -2   7 1358.24   48.94
   8  -2   7 1433.89   42.13
   9  -2   7  153.87   13.15
  -9   2  -7  148.44   10.62
   9  -2   7  140.04   10.27
  10  -2   7   93.64    9.01
  10  -2   7   98.19   12.22
 -10   2  -7   81.07    8.84
  11  -2   7   51.65   10.43
 -11   2  -7   38.83    7.61
  12  -2   7    0.26    7.77
 -12   2  -7    6.64    6.00
 -13   2  -7   26.29    8.24
  13  -2   7   39.52   11.70
  14  -2   7   27.14   11.11
  15  -2   7   86.51   15.64
 -15  -1   7    3.10    4.12
 -14  -1   7   21.77    7.86
 -13  -1   7   13.23    7.54
 -12  -1   7   51.79    9.06
 -11  -1   7  197.66   14.10
 -10  -1   7  180.98   12.77
  -9  -1   7    1.66    4.12
  -8  -1   7  403.29   17.95
  -7  -1   7    9.65    4.19
  -6  -1   7  131.77    8.70
  -5  -1   7    7.02    2.93
  -5  -1   7    6.86    2.54
  -4  -1   7 1739.88   48.19
  -4  -1   7 1741.15   47.88
  -3  -1   7 1920.90   51.31
  -3  -1   7 1888.56   51.52
  -2  -1   7  221.48    8.19
  -2  -1   7  222.16    9.03
  -1  -1   7 2030.86   52.47
  -1  -1   7 2025.22   54.06
   0  -1   7    0.15    1.47
   1  -1   7    4.15    2.01
   2  -1   7   61.50    4.54
   3  -1   7  622.09   22.13
  -3   1  -7  616.26   18.29
   3  -1   7  607.73   19.39
   4  -1   7   80.77    5.84
  -4   1  -7   86.66    5.66
   4  -1   7   89.05    7.04
   5  -1   7  270.22   13.44
  -5   1  -7  252.91   10.91
   5  -1   7  253.91   11.29
   6  -1   7 1123.70   38.89
   6  -1   7 1113.86   34.01
   7  -1   7   24.12    5.83
   7  -1   7   24.06    5.13
  -7   1  -7   21.82    4.90
  -8   1  -7  351.59   15.64
   8  -1   7  329.68   15.47
   8  -1   7  290.65   17.50
   9  -1   7    1.28    4.61
   9  -1   7   -1.93    5.86
  -9   1  -7    5.92    4.86
 -10   1  -7   11.08    5.75
  10  -1   7    5.13    5.39
  10  -1   7   15.08    7.60
  11  -1   7    3.87    7.31
 -11   1  -7   -4.12    5.72
 -12   1  -7  176.85   14.19
  12  -1   7  153.06   15.92
  13  -1   7   58.00   12.56
  14  -1   7   45.07   12.22
 -15   0   7    3.61    4.05
 -14   0   7   22.49    8.08
 -13   0   7  160.15   13.74
 -12   0   7   47.41    8.34
 -11   0   7    2.65    5.23
 -10   0   7  191.45   12.93
  -9   0   7   72.81    8.34
  -8   0   7  267.43   13.93
  -7   0   7   16.06    3.10
  -7   0   7   15.77    4.31
  -6   0   7  740.79   24.47
  -6   0   7  730.37   23.18
  -5   0   7  540.74   17.86
  -5   0   7  551.04   18.77
  -4   0   7   11.41    2.39
  -4   0   7    7.78    2.76
  -3   0   7 1387.99   38.35
  -3   0   7 1390.42   38.05
  -2   0   7   68.58    4.34
  -2   0   7   83.52    4.94
  -1   0   7    6.84    2.07
  -1   0   7    6.33    1.82
   0   0   7    1.35    1.48
   0   0   7   -0.62    1.23
   1   0   7 1193.51   33.94
   1   0   7 1204.63   32.24
  -2   0  -7   18.87    2.57
   2   0   7   28.11    3.70
   3   0   7   49.81    4.84
  -3   0  -7   58.40    4.36
  -4   0  -7  396.84   14.66
   4   0   7  431.46   15.76
   4   0   7  424.66   17.19
   5   0   7   14.04    3.86
   5   0   7   23.76    4.95
   6   0   7   21.79    5.44
   6   0   7   20.65    4.80
  -6   0  -7   22.80    4.77
   7   0   7  123.94   10.77
  -7   0  -7  129.51    9.35
   7   0   7  132.98    9.97
  -8   0  -7   69.09    8.25
   8   0   7   76.98    8.49
   8   0   7   66.52    9.23
   9   0   7  145.06   12.95
   9   0   7  125.84   10.94
  -9   0  -7  137.29   11.30
  10   0   7  442.43   24.50
  10   0   7  486.14   22.14
 -10   0  -7  462.38   21.30
  11   0   7   69.90   11.69
 -11   0  -7  104.49   11.22
 -12   0  -7  145.55   13.31
  12   0   7  152.09   15.47
 -15   1   7   -2.28    5.16
 -14   1   7   18.58    7.91
 -13   1   7   12.84    6.53
 -12   1   7    6.23    5.76
 -11   1   7  101.92   10.41
 -10   1   7   74.40    8.72
  -9   1   7   56.39    5.27
  -9   1   7   41.64    6.76
  -8   1   7  288.59   14.22
  -8   1   7  293.52   12.17
  -7   1   7   99.82    6.13
  -6   1   7   23.35    4.22
  -5   1   7   18.81    2.82
  -5   1   7   23.88    3.75
  -4   1   7  672.68   21.11
  -4   1   7  685.88   20.79
  -3   1   7  481.59   15.52
  -3   1   7  487.86   15.71
  -2   1   7   52.83    3.97
  -2   1   7   58.93    4.25
  -1   1   7 1173.65   33.85
  -1   1   7 1239.72   33.04
   0   1   7   -1.23    1.58
   0   1   7    2.79    1.90
   1   1   7   34.49    3.59
   1   1   7   38.46    4.22
  -2  -1  -7 1266.20   35.25
  -2  -1  -7 1305.68   36.12
   2   1   7 1273.37   37.11
   2   1   7 1311.29   39.98
   3   1   7  112.75    7.09
   3   1   7   92.60    6.73
   4   1   7   36.49    5.11
   4   1   7   28.27    4.62
   5   1   7  363.13   15.94
  -5  -1  -7  404.80   15.77
  -6  -1  -7  148.42    9.69
   6   1   7  132.69   10.02
   7   1   7  145.82   10.82
  -7  -1  -7  121.68   10.12
   7   1   7  133.27   11.26
   8   1   7  221.08   13.67
  -8  -1  -7  200.71   12.85
   8   1   7  200.39   14.55
  -9  -1  -7  197.57   13.42
   9   1   7  184.90   13.29
   9   1   7  175.64   14.73
  10   1   7  294.54   17.19
 -10  -1  -7  302.66   17.60
  10   1   7  281.17   19.12
 -11  -1  -7   -1.47    6.32
  11   1   7   -5.37    5.54
 -12  -1  -7    8.77    7.01
 -16   2   7   -7.28    3.83
 -15   2   7  -12.33    5.31
 -14   2   7    4.06    6.38
 -13   2   7  115.98   11.94
 -12   2   7   10.63    5.59
 -11   2   7   84.07    9.50
 -10   2   7  226.08   13.65
  -9   2   7  273.02   11.48
  -9   2   7  274.51   14.33
  -8   2   7  120.72    6.82
  -8   2   7   97.20    8.22
  -7   2   7   99.42    5.83
  -7   2   7   84.64    7.32
  -6   2   7  806.36   25.55
  -6   2   7  950.78   28.03
  -5   2   7  112.80    6.98
  -4   2   7    7.42    2.55
  -4   2   7   12.55    2.43
  -3   2   7  651.90   19.88
  -3   2   7  633.97   19.95
  -2   2   7   23.70    3.21
  -2   2   7   28.97    3.38
  -1   2   7   24.94    3.19
  -1   2   7   31.56    3.70
   0   2   7   -0.38    1.85
   0   2   7   -0.66    2.00
   1   2   7  101.23    6.19
   1   2   7   91.61    5.88
   1   2   7   94.73    6.37
   2   2   7   27.69    3.51
   2   2   7   23.29    4.18
   3   2   7  542.25   19.71
  -3  -2  -7  522.21   18.52
   3   2   7  532.74   19.49
   4   2   7  413.03   17.42
   4   2   7  434.15   17.76
  -4  -2  -7  450.09   16.93
  -5  -2  -7  478.42   18.84
   5   2   7  486.24   20.34
   5   2   7  490.14   19.93
   6   2   7  756.48   28.33
  -6  -2  -7  813.18   28.30
   6   2   7  817.12   30.59
  -7  -2  -7   50.31    7.52
   7   2   7   34.93    6.75
   7   2   7   62.01    8.42
  -8  -2  -7  267.57   15.62
   8   2   7  269.48   15.85
  -9  -2  -7   13.82    6.27
   9   2   7   25.98    7.89
 -10  -2  -7   21.37    7.91
  10   2   7   21.97    7.35
  11   2   7   15.43    6.80
 -11  -2  -7   17.92    8.38
 -12  -2  -7   26.58    8.63
 -16   3   7   -5.29    3.74
 -15   3   7  126.93   14.06
 -14   3   7   20.15    7.71
 -13   3   7   14.42    6.50
 -12   3   7   33.25    7.19
 -11   3   7  195.09   13.03
 -10   3   7   33.92    6.67
  -9   3   7   48.01    6.82
  -9   3   7   57.59    4.82
  -8   3   7  824.83   28.49
  -8   3   7  866.61   25.52
  -7   3   7  208.79    8.62
  -7   3   7  180.87   10.39
  -6   3   7   48.39    4.14
  -6   3   7   49.77    5.42
  -4   3   7   94.82    5.52
  -4   3   7   81.78    6.02
  -3   3   7   47.91    4.71
  -3   3   7   53.45    4.35
  -2   3   7 1421.01   40.32
  -2   3   7 1460.21   40.77
  -1   3   7   92.71    6.14
  -1   3   7  102.34    6.26
   0   3   7    2.41    2.55
   0   3   7    3.97    2.38
   1   3   7 2789.39   77.78
   1   3   7 2970.95   77.13
   2   3   7   42.80    4.50
   2   3   7   44.38    5.79
  -2  -3  -7   45.73    5.13
  -2  -3  -7   58.86    5.60
   3   3   7  587.22   21.10
  -3  -3  -7  585.76   20.79
   3   3   7  563.07   21.55
  -4  -3  -7  195.75   11.08
   4   3   7  212.20   11.60
   4   3   7  230.28   12.76
   5   3   7   38.53    6.83
  -5  -3  -7   45.71    6.39
   6   3   7  520.00   22.59
  -6  -3  -7  525.43   21.74
  -7  -3  -7  111.58   10.32
   7   3   7  109.84   11.08
   8   3   7   84.76   10.91
  -8  -3  -7   77.70    9.72
   9   3   7   34.51    8.52
  -9  -3  -7   23.01    7.54
 -10  -3  -7   24.80    8.69
  10   3   7   12.52    7.82
  11   3   7  147.06   13.70
 -11  -3  -7  146.25   14.75
 -16   4   7    1.17    4.33
 -15   4   7   -0.77    6.91
 -14   4   7   32.94    8.23
 -13   4   7    5.34    5.50
 -12   4   7   42.84    8.08
 -11   4   7  180.70   12.70
 -10   4   7  102.90    9.78
  -9   4   7   13.81    5.07
  -8   4   7  254.44   13.10
  -8   4   7  255.31   10.19
  -7   4   7   23.89    4.94
  -7   4   7   34.94    3.56
  -6   4   7    4.15    3.30
  -6   4   7    8.00    2.35
  -4   4   7  413.95   15.56
  -4   4   7  420.79   14.76
  -3   4   7  137.79    7.52
  -3   4   7  138.04    7.89
  -2   4   7   31.20    4.01
  -2   4   7   24.17    4.09
  -1   4   7 2927.45   78.14
  -1   4   7 2906.99   78.71
   0   4   7    1.28    2.54
   0   4   7    1.56    3.10
   1   4   7  814.81   26.04
   1   4   7  788.65   26.84
  -2  -4  -7  184.64   10.35
   2   4   7  201.10   11.49
  -2  -4  -7  200.69   10.40
  -3  -4  -7   55.75    6.39
  -3  -4  -7   59.17    6.54
   3   4   7   50.22    6.88
   4   4   7  377.71   17.97
  -4  -4  -7  396.01   17.22
  -5  -4  -7  133.14   10.57
   5   4   7  153.95   11.75
   6   4   7  109.36   10.87
  -6  -4  -7  106.12   10.26
   7   4   7   40.30    8.40
  -7  -4  -7   34.45    7.40
   8   4   7   17.09    7.28
  -8  -4  -7   25.52    8.15
  -9  -4  -7  135.95   14.07
   9   4   7  156.00   13.64
 -10  -4  -7  203.85   15.85
  10   4   7  161.36   14.28
 -11  -4  -7   21.64    9.03
 -16   5   7   -0.68    4.41
 -15   5   7   65.22   11.61
 -14   5   7   18.38    7.69
 -13   5   7  155.74   12.96
 -12   5   7   97.25   10.70
 -11   5   7  174.30   12.34
 -10   5   7    2.45    4.25
  -9   5   7    2.42    4.03
  -8   5   7   65.10    4.88
  -8   5   7   56.19    6.70
  -7   5   7  316.75   11.87
  -7   5   7  299.65   13.95
  -6   5   7 1211.19   37.07
  -6   5   7 1223.35   35.00
  -5   5   7   13.85    4.04
  -5   5   7    8.76    2.23
  -4   5   7   40.00    4.47
  -4   5   7   36.55    5.11
  -3   5   7  573.62   19.50
  -3   5   7  529.49   19.14
  -2   5   7   39.92    5.16
  -2   5   7   45.78    5.27
  -1   5   7  773.22   25.89
  -1   5   7  823.41   26.75
   0   5   7    0.08    3.46
   0   5   7   -1.41    2.60
   1   5   7  321.11   14.14
   1   5   7  308.95   14.70
  -2  -5  -7  188.39   10.84
  -2  -5  -7  180.54   10.78
   2   5   7  213.28   12.41
  -3  -5  -7  212.63   12.05
   3   5   7  214.38   13.21
  -3  -5  -7  218.96   12.52
  -4  -5  -7   34.40    6.74
   4   5   7   38.26    7.27
  -5  -5  -7   83.21    9.45
   5   5   7   74.97    9.60
   6   5   7   -0.92    5.76
  -6  -5  -7    5.46    5.11
  -7  -5  -7  122.05   12.16
   7   5   7  130.13   12.91
  -8  -5  -7  486.52   24.59
   8   5   7  479.30   24.40
   9   5   7   -0.11    6.77
  -9  -5  -7    9.86    7.56
  10   5   7   -3.45    6.71
 -10  -5  -7   -0.37    7.14
 -11  -5  -7   27.50    9.43
 -17   6   7   -3.22    4.47
 -16   6   7    1.76    5.16
 -15   6   7   42.08   10.30
 -14   6   7   16.02    7.37
 -13   6   7    5.31    6.15
 -12   6   7    2.08    4.99
 -11   6   7   19.76    6.20
 -10   6   7   14.80    5.11
  -9   6   7  428.27   18.51
  -8   6   7 1365.54   42.34
  -7   6   7   35.91    6.00
  -7   6   7   27.04    3.90
  -6   6   7   24.76    3.80
  -6   6   7   16.05    4.71
  -5   6   7  420.15   16.92
  -5   6   7  420.33   15.94
  -4   6   7  481.79   18.41
  -4   6   7  481.21   17.99
  -3   6   7  585.34   21.32
  -3   6   7  596.55   21.34
  -2   6   7  201.51   11.08
  -2   6   7  212.37   11.21
  -1   6   7  360.78   15.93
  -1   6   7  364.49   15.55
   0   6   7    3.59    3.79
   0   6   7    8.04    4.10
   1   6   7  223.12   13.15
  -2  -6  -7   13.52    4.60
  -2  -6  -7   14.51    4.94
   2   6   7   14.18    5.22
  -3  -6  -7  915.60   32.46
   3   6   7  910.63   33.46
  -3  -6  -7  915.54   31.71
   4   6   7   12.78    6.53
  -4  -6  -7   16.45    5.73
   5   6   7  144.90   12.38
  -5  -6  -7  145.82   12.26
   6   6   7  358.87   20.00
  -6  -6  -7  306.75   18.09
  -7  -6  -7   15.59    7.42
   7   6   7   21.91    7.94
  -8  -6  -7    2.42    6.85
   8   6   7   -8.70    5.72
   9   6   7   -5.85    6.14
  -9  -6  -7    9.27    7.74
 -10  -6  -7   18.98    8.12
 -17   7   7    7.71    4.92
 -16   7   7    5.90    5.05
 -15   7   7   -6.96    6.83
 -14   7   7   33.89    8.29
 -13   7   7  207.22   14.99
 -12   7   7    5.31    5.07
 -11   7   7   49.68    7.80
 -10   7   7  105.29    9.55
  -9   7   7  135.97   10.27
  -8   7   7  303.91   15.18
  -7   7   7  126.31    7.87
  -7   7   7  124.18    9.45
  -6   7   7  143.63    9.76
  -6   7   7  108.77    7.26
  -5   7   7  500.89   19.83
  -5   7   7  494.50   18.79
  -4   7   7  250.66   12.18
  -4   7   7  226.09   12.37
  -3   7   7   61.47    7.21
  -3   7   7   66.56    7.03
  -2   7   7  208.94   12.01
  -2   7   7  227.32   12.47
  -1   7   7  217.67   12.89
  -1   7   7  210.57   12.46
   0   7   7    1.96    4.38
   0   7   7    1.51    4.02
   1   7   7  710.81   27.32
  -1  -7  -7  675.30   26.07
  -1  -7  -7  673.06   25.64
  -2  -7  -7  200.77   12.51
  -2  -7  -7  208.38   12.87
   2   7   7  209.40   13.90
   3   7   7   14.26    5.92
  -3  -7  -7   25.06    6.36
  -3  -7  -7   24.14    6.23
  -4  -7  -7  352.06   18.85
   4   7   7  377.51   20.15
   5   7   7   39.02    8.85
  -5  -7  -7   58.25    9.16
  -6  -7  -7   10.06    6.84
   6   7   7    2.40    6.38
   7   7   7   -1.35    6.42
  -7  -7  -7    0.80    6.21
   8   7   7   22.66    8.51
  -8  -7  -7   29.89    9.88
   9   7   7   28.48    9.49
  -9  -7  -7   44.75    9.95
 -16   8   7   -2.62    3.98
 -15   8   7  116.16   13.70
 -14   8   7   11.11    6.99
 -13   8   7    2.66    6.01
 -12   8   7  133.23   11.73
 -11   8   7   53.84    8.50
 -10   8   7   78.91    9.12
  -9   8   7    6.12    4.74
  -8   8   7   64.27    8.01
  -7   8   7  140.81   10.31
  -7   8   7  135.81    8.83
  -5   8   7   40.67    6.82
  -5   8   7   52.83    6.32
  -4   8   7  414.91   18.24
  -4   8   7  413.52   17.76
  -3   8   7  228.40   13.17
  -3   8   7  220.45   12.89
  -2   8   7    6.55    4.68
  -2   8   7    7.00    5.07
  -1   8   7  685.89   26.91
  -1   8   7  700.39   26.19
   0   8   7    2.13    4.91
   0   8   7    4.64    5.01
  -1  -8  -7   23.33    6.07
  -1  -8  -7   24.84    6.17
   1   8   7   19.76    6.61
  -2  -8  -7  203.42   13.34
   2   8   7  220.84   15.27
  -2  -8  -7  215.51   13.89
   3   8   7   -9.57    5.61
  -3  -8  -7    0.29    5.00
   4   8   7   25.38    8.03
  -4  -8  -7   19.80    7.33
  -5  -8  -7  171.65   14.54
   5   8   7  148.09   14.78
   6   8   7    3.75    6.85
  -6  -8  -7    1.85    6.57
  -7  -8  -7   28.78    8.99
   7   8   7   33.04    9.23
  -8  -8  -7  122.11   14.32
   8   8   7  114.16   14.50
 -16   9   7    3.07    3.85
 -15   9   7    2.52    7.58
 -14   9   7   68.71   10.78
 -13   9   7   47.72    9.05
 -12   9   7   48.10    8.75
 -11   9   7   47.84    8.25
 -10   9   7   14.87    6.39
  -9   9   7  150.00   11.54
  -8   9   7  221.45   13.59
  -7   9   7   58.18    8.06
  -6   9   7  576.84   22.64
  -6   9   7  504.85   20.79
  -5   9   7  150.67   10.61
  -5   9   7  154.44   11.55
  -4   9   7   44.37    7.26
  -4   9   7   37.62    7.23
  -3   9   7  921.05   32.65
  -3   9   7  932.17   33.07
  -2   9   7  214.93   14.06
  -2   9   7  208.14   13.43
  -1   9   7   16.97    6.75
  -1   9   7   12.67    6.54
   0   9   7   -4.00    5.09
   0   9   7    7.69    5.64
   1   9   7   -5.13    5.80
  -1  -9  -7    3.64    4.54
  -1  -9  -7   -4.29    4.10
   2   9   7   59.10   10.12
  -2  -9  -7   40.80    8.29
  -2  -9  -7   37.70    7.84
   3   9   7  366.88   21.63
  -3  -9  -7  401.14   21.00
  -4  -9  -7   20.91    7.46
   4   9   7   10.47    8.30
   5   9   7   -1.64    6.21
  -5  -9  -7   -5.38    6.45
   6   9   7  150.63   15.20
  -6  -9  -7  122.66   13.93
  -7  -9  -7   -0.15    7.58
 -16  10   7    1.56    4.67
 -15  10   7   74.25   11.77
 -14  10   7  107.94   12.58
 -13  10   7   77.17   10.81
 -12  10   7    0.09    5.51
 -11  10   7   11.40    6.16
 -10  10   7  473.08   21.88
  -9  10   7  204.34   13.95
  -8  10   7  271.46   15.62
  -7  10   7  102.90   10.32
  -6  10   7  113.24   10.94
  -6  10   7  128.05   10.29
  -5  10   7   95.73    9.75
  -5  10   7   93.14   10.03
  -4  10   7   25.33    6.82
  -4  10   7    9.50    5.88
  -3  10   7   24.34    7.05
  -3  10   7   13.28    6.34
  -2  10   7  252.42   15.29
  -2  10   7  226.24   15.22
  -1  10   7   -0.95    5.89
  -1  10   7   -1.25    6.22
   0  10   7   -2.65    5.61
  -1 -10  -7  472.89   22.91
   1  10   7  506.46   25.18
  -1 -10  -7  514.64   23.93
  -2 -10  -7   31.47    8.59
   2  10   7   21.46    7.99
  -2 -10  -7   24.67    7.36
  -3 -10  -7   54.08    9.84
   3  10   7   49.73   10.38
  -4 -10  -7   99.09   12.69
   4  10   7   43.80   10.13
  -5 -10  -7    0.84    7.17
   5  10   7   -0.17    7.02
  -6 -10  -7   15.12    8.68
 -16  11   7    2.71    5.17
 -15  11   7   12.40    7.70
 -14  11   7   60.32   10.39
 -13  11   7   31.56    8.29
 -12  11   7  154.48   13.59
 -11  11   7   82.68   10.91
 -10  11   7  296.20   17.48
  -9  11   7    9.99    6.91
  -8  11   7   75.49    9.92
  -7  11   7   38.98    8.18
  -6  11   7   -1.69    5.56
  -6  11   7   -1.26    4.84
  -5  11   7  152.38   12.46
  -5  11   7  139.38   11.95
  -4  11   7  382.72   19.71
  -4  11   7  390.81   20.12
  -3  11   7   -0.65    6.26
  -3  11   7   -1.47    6.05
  -2  11   7   40.34    9.02
  -2  11   7   31.55    8.87
  -1  11   7  505.87   23.88
  -1  11   7  511.96   25.45
   0 -11  -7   -8.89    5.66
   0  11   7    2.29    6.74
   0 -11  -7    4.21    6.20
   1  11   7   15.63    8.03
  -1 -11  -7   40.75    8.57
  -1 -11  -7   26.83    8.38
  -2 -11  -7   28.89    8.39
   2  11   7   23.74    8.79
  -2 -11  -7   30.67    8.91
  -3 -11  -7    6.02    6.95
   3  11   7    4.46    5.31
   4  11   7    8.66    5.63
  -4 -11  -7   -4.58    6.26
  -5 -11  -7    7.42    8.51
 -15  12   7   -5.77    6.65
 -14  12   7   18.43    8.47
 -13  12   7   75.35   11.14
 -12  12   7  144.60   13.12
 -11  12   7   -1.75    6.39
 -10  12   7   11.34    6.79
  -9  12   7   36.61    8.33
  -8  12   7   25.17    7.50
  -7  12   7  147.41   12.81
  -6  12   7  382.45   20.36
  -5  12   7   36.89    8.68
  -5  12   7   60.10   10.32
  -4  12   7   12.96    7.36
  -4  12   7    5.61    6.88
  -3  12   7  414.79   21.50
  -3  12   7  383.21   22.35
  -2  12   7   23.84    8.97
  -2  12   7   19.07    8.83
  -1  12   7   32.76    9.57
   0 -12  -7    0.24    6.13
   0  12   7   -4.36    6.43
   0 -12  -7    8.46    6.21
  -1 -12  -7   54.72   10.40
   1  12   7   32.53    9.84
  -1 -12  -7   46.14   10.43
  -2 -12  -7   17.56    8.36
   2  12   7    0.36    4.75
  -3 -12  -7   75.76   12.39
 -15  13   7   66.95   12.29
 -14  13   7   55.49   11.13
 -13  13   7   10.18    7.85
 -12  13   7   14.32    7.75
 -11  13   7   31.94    9.01
 -10  13   7   29.88    8.70
  -9  13   7  131.31   13.42
  -8  13   7  529.28   25.20
  -7  13   7    7.63    7.73
  -6  13   7    8.12    7.32
  -5  13   7  170.92   15.08
  -5  13   7  158.35   14.14
  -4  13   7   28.61    9.09
  -4  13   7   17.64    8.35
  -3  13   7   48.93   10.41
  -3  13   7   53.52   10.86
  -2  13   7   19.67    8.88
  -2  13   7   24.16    9.08
   1 -13  -7   46.06    9.89
   1 -13  -7   48.10   10.39
  -1  13   7   28.61   10.01
   0  13   7   -0.05    5.99
   0 -13  -7    3.27    6.31
   0 -13  -7    2.58    7.24
  -1 -13  -7   35.82    8.88
  -1 -13  -7   41.60   10.08
 -14  14   7   53.84   11.90
 -13  14   7  113.02   14.05
 -12  14   7   24.57    8.92
 -11  14   7  143.94   14.55
 -10  14   7  172.83   14.89
  -9  14   7    5.74    7.96
  -8  14   7    4.19    8.16
  -7  14   7   10.04    8.13
  -6  14   7    6.30    8.70
  -5  14   7    3.81    7.76
  -4  14   7  100.25   13.54
  -4  14   7  100.14   13.08
  -3  14   7   12.84    8.34
  -3  14   7   11.84    8.51
  -2  14   7    3.14    7.45
  -1  14   7   41.86   10.63
   1 -14  -7   45.05   11.62
   1 -14  -7   41.92   11.19
   0 -14  -7   -5.14    7.28
   0 -14  -7   -5.02    6.85
 -12  15   7   80.47   12.44
 -11  15   7    8.59    8.76
 -10  15   7   -2.29    7.52
  -9  15   7    1.64    8.34
  -8  15   7   40.12   10.53
  -7  15   7   20.83    9.19
  -6  15   7  133.93   15.39
  -5  15   7    9.09    8.73
  -4  15   7    3.48    9.08
  -4  15   7    3.20    7.30
  -3  15   7   72.12   11.92
  -3  15   7   90.76   13.97
  -2  15   7   14.81    9.83
  -8  20  -8   12.13    8.25
  -9  20  -8    3.54    7.66
 -10  20  -8   19.21    8.68
 -11  20  -8   12.79    8.39
   4 -19   8   -2.61    8.56
   4 -19   8   -5.74    7.26
   5 -19   8   47.76   12.14
   5 -19   8   48.73   12.10
  -6  19  -8   -0.05    6.03
  -7  19  -8   14.89    7.30
  -8  19  -8   -9.28    5.41
  -9  19  -8   18.53    7.97
 -10  19  -8   -1.98    6.25
 -11  19  -8   18.40    7.24
   2 -18   8    0.52    6.67
   2 -18   8   16.53    8.17
   3 -18   8   31.39    9.58
   3 -18   8   39.30   10.21
   4 -18   8    7.81    7.84
   4 -18   8   -2.43    7.35
  -6  18  -8   25.39    7.67
  -7  18  -8   25.47    8.00
  -8  18  -8   15.31    7.36
  -9  18  -8   43.71    9.06
 -10  18  -8   30.93    8.65
 -11  18  -8    4.76    6.63
 -12  18  -8   16.33    7.02
   0 -17   8    6.01    7.25
   1 -17   8   12.88    7.40
   1 -17   8   12.63    7.10
   2 -17   8    3.42    6.42
   2 -17   8   -1.18    5.71
   3 -17   8   12.81    6.69
   3 -17   8    1.19    6.37
  -5  17  -8    4.97    6.03
  -6  17  -8   41.09    8.85
  -7  17  -8  101.94   11.46
  -8  17  -8   38.38    8.38
  -9  17  -8   13.52    7.13
 -10  17  -8   -0.72    6.30
 -11  17  -8  106.89   11.56
 -12  17  -8   42.41    8.88
  14 -17   8   54.57   12.15
  15 -17   8   26.92   11.30
  -2 -16   8   11.00    8.18
  -1 -16   8    5.04    7.20
   0 -16   8    9.60    6.79
   1 -16   8    1.93    5.83
   1 -16   8    5.46    5.70
   2 -16   8   90.12   11.82
   2 -16   8  132.40   13.17
   3 -16   8   19.29    7.37
   3 -16   8   21.01    7.58
  -5  16  -8   71.75    9.98
  -6  16  -8   -0.58    5.25
  -7  16  -8    5.73    5.70
  -8  16  -8    8.00    6.48
  -9  16  -8  110.45   11.31
 -10  16  -8   42.72    8.14
 -11  16  -8    0.82    5.90
  11 -16   8    0.82    7.41
  12 -16   8   44.12   10.90
 -12  16  -8   34.46    8.02
  13 -16   8   -6.22    6.90
  14 -16   8   16.23    9.26
  15 -16   8   -3.26    8.53
  16 -16   8   37.24   12.93
  -3 -15   8   32.80    9.77
  -2 -15   8   -1.68    5.22
  -1 -15   8   -1.36    5.71
   0 -15   8   65.49   10.35
   1 -15   8    7.48    5.85
   1 -15   8    8.09    5.59
   2 -15   8    2.28    4.85
   2 -15   8    4.88    4.75
   3 -15   8   49.23    9.12
   3 -15   8   46.37    9.14
  -4  15  -8   28.49    7.15
  -5  15  -8   17.15    6.25
  -6  15  -8    7.55    5.55
  -7  15  -8  391.30   18.99
  -8  15  -8    3.22    5.16
   8 -15   8   15.39    5.86
  -9  15  -8   18.35    6.16
   9 -15   8   15.53    6.89
  10 -15   8   62.76   10.42
 -10  15  -8   61.69    9.04
  11 -15   8   17.69    7.05
 -11  15  -8   14.47    6.28
 -12  15  -8    6.09    6.09
  12 -15   8    8.52    7.40
  13 -15   8   13.45    8.46
  14 -15   8  126.92   16.36
  15 -15   8    8.69    9.20
  16 -15   8   37.85   13.31
  -5 -14   8   52.20   11.29
  -4 -14   8   -2.31    6.43
  -3 -14   8   -1.02    6.09
  -2 -14   8  113.74   12.61
  -1 -14   8    0.41    5.86
   0 -14   8    7.39    5.18
   0 -14   8   16.83    5.94
   1 -14   8   19.63    5.89
   1 -14   8   15.84    5.29
   2 -14   8  184.55   13.09
   2 -14   8  166.39   12.71
  -4  14  -8  113.63   10.53
  -5  14  -8  656.29   25.57
   6 -14   8    3.99    4.68
  -6  14  -8    8.55    5.31
   7 -14   8   -2.09    4.96
  -7  14  -8    2.16    4.95
  -8  14  -8    7.78    5.13
   8 -14   8    8.79    5.67
   9 -14   8   76.85   10.82
  -9  14  -8   57.89    8.12
  10 -14   8    1.14    5.78
 -10  14  -8   10.50    5.43
 -11  14  -8  148.61   11.27
  11 -14   8  142.96   14.02
  12 -14   8  131.08   15.10
 -12  14  -8  132.02   11.28
  13 -14   8   31.74   10.29
  14 -14   8   70.33   12.63
  15 -14   8   30.63   11.24
  16 -14   8   70.62   14.82
  -6 -13   8    3.29    7.25
  -5 -13   8    2.72    6.52
  -4 -13   8   28.75    8.11
  -3 -13   8   18.15    7.28
  -2 -13   8   -3.33    4.76
  -1 -13   8   15.94    6.08
   0 -13   8  602.89   24.99
   0 -13   8  574.46   25.13
   1 -13   8    7.09    5.11
   1 -13   8    9.91    4.79
   2 -13   8  218.67   13.75
   2 -13   8  225.48   13.70
  -3  13  -8   61.07    7.78
  -4  13  -8    4.41    4.52
  -5  13  -8   80.90    8.63
   5 -13   8  101.59   10.62
   6 -13   8   82.30    9.53
  -6  13  -8   74.84    8.14
   7 -13   8   58.69    8.56
  -7  13  -8   45.47    6.78
  -8  13  -8   12.67    5.24
   8 -13   8   22.23    5.93
  -9  13  -8  424.70   18.46
   9 -13   8  420.83   22.53
 -10  13  -8   80.97    8.64
  10 -13   8   98.05   12.16
  11 -13   8   43.91    9.81
 -11  13  -8   42.65    7.21
  12 -13   8   67.26   11.57
 -12  13  -8   75.64    8.64
  13 -13   8   23.92    8.88
  14 -13   8   84.76   13.75
  15 -13   8   53.91   12.89
  16 -13   8   25.00   10.85
  -7 -12   8    6.70    8.03
  -6 -12   8   21.62    8.51
  -5 -12   8    9.52    6.90
  -4 -12   8   -3.24    5.07
  -3 -12   8   43.85    8.47
  -2 -12   8  184.74   13.48
  -1 -12   8    6.13    4.98
   0 -12   8  135.38   10.55
   0 -12   8  122.25   10.46
   1 -12   8   -2.14    3.30
   1 -12   8   17.09    5.35
  -3  12  -8    1.06    3.69
  -4  12  -8  325.07   15.12
  -5  12  -8  218.77   12.10
  -6  12  -8   55.14    6.71
   6 -12   8   57.60    8.12
  -7  12  -8  398.47   16.70
   7 -12   8  387.34   20.16
  -8  12  -8  177.46   10.81
   8 -12   8  192.44   13.83
  -9  12  -8  242.50   12.99
   9 -12   8  271.02   17.28
  10 -12   8   19.54    7.12
 -10  12  -8   28.64    6.09
  11 -12   8   36.29    8.92
 -11  12  -8   26.01    6.04
  12 -12   8   19.69    8.05
 -12  12  -8   17.96    5.75
  13 -12   8  101.54   14.27
  14 -12   8   67.79   12.77
  15 -12   8   46.19   12.10
  16 -12   8   21.37    9.90
  -8 -11   8    3.03    8.25
  -7 -11   8   28.36    9.21
  -6 -11   8   55.96   10.64
  -5 -11   8   64.99   10.24
  -4 -11   8   27.25    7.34
  -3 -11   8  116.88   11.53
  -2 -11   8  223.87   14.14
  -1 -11   8    2.35    4.06
   0 -11   8  406.99   17.82
   0 -11   8  378.33   17.94
   1 -11   8   22.07    4.99
  -3  11  -8    5.74    3.48
  -4  11  -8   70.19    6.85
  -5  11  -8  911.35   29.40
   6 -11   8   13.80    5.80
  -6  11  -8   13.48    3.82
   6 -11   8   14.81    4.04
  -7  11  -8   49.60    5.60
   7 -11   8   39.52    7.62
   8 -11   8   11.81    5.35
  -8  11  -8   23.25    4.50
  -9  11  -8  124.11    8.38
   9 -11   8  103.14   11.52
  10 -11   8    8.70    5.60
 -10  11  -8   -0.30    4.02
  11 -11   8  172.77   14.95
 -11  11  -8  177.10   11.24
 -12  11  -8  204.15   12.46
  12 -11   8  182.58   16.05
  13 -11   8  186.47   16.97
  14 -11   8    3.87    7.87
  15 -11   8   70.18   13.62
  16 -11   8   67.74   14.55
  -9 -10   8    9.51    8.66
  -8 -10   8   15.97    8.42
  -7 -10   8   81.66   11.97
  -6 -10   8    8.94    6.06
  -5 -10   8   10.49    6.08
  -4 -10   8   93.11   10.23
  -3 -10   8   63.97    8.62
  -2 -10   8   60.56    7.78
  -1 -10   8   10.31    4.29
   0 -10   8 1517.81   45.48
   0 -10   8 1507.33   46.32
   1 -10   8  115.06    8.59
   1 -10   8  118.08    8.69
  -2  10  -8   25.36    4.35
  -3  10  -8  182.85    9.81
  -4  10  -8   34.15    4.64
  -5  10  -8  205.86   10.24
   6 -10   8  208.65   14.06
   6 -10   8  212.51   10.45
  -6  10  -8  236.29   10.82
  -7  10  -8  803.69   25.90
   7 -10   8  814.05   32.42
  -8  10  -8    9.46    3.54
   8 -10   8   15.33    5.36
  -9  10  -8  148.90    9.29
   9 -10   8  187.78   13.76
  10 -10   8  248.56   17.16
 -10  10  -8  249.76   12.36
 -11  10  -8  130.29    9.63
  11 -10   8  134.54   13.08
  12 -10   8   82.39   12.17
 -12  10  -8  101.61    9.47
  13 -10   8   45.97   10.60
  14 -10   8  139.89   16.60
  15 -10   8  106.35   16.06
  16 -10   8  -13.58    7.23
 -10  -9   8   -0.16    8.24
  -9  -9   8   43.94   10.66
  -8  -9   8   31.82    9.41
  -7  -9   8    6.03    6.38
  -6  -9   8    9.67    5.66
  -5  -9   8  588.40   25.53
  -4  -9   8   14.67    5.59
  -3  -9   8    3.25    4.13
  -2  -9   8 1301.87   41.59
  -1  -9   8  137.30    9.70
   0  -9   8  119.05    8.17
   0  -9   8  129.08    8.71
   1  -9   8   19.57    4.21
   1  -9   8   16.00    3.83
  -2   9  -8  408.78   15.33
  -3   9  -8   22.19    3.60
  -4   9  -8   16.80    3.28
   5  -9   8  324.25   13.20
   6  -9   8  226.97   10.16
   6  -9   8  241.17   14.66
   7  -9   8  277.76   10.93
   7  -9   8  270.18   16.24
   8  -9   8  330.91   18.42
   9  -9   8  815.26   33.94
 -10   9  -8    6.56    3.45
  10  -9   8   -0.81    4.48
 -11   9  -8   25.26    5.59
  11  -9   8   25.63    7.82
  12  -9   8   37.18    9.67
 -12   9  -8   29.52    6.22
  13  -9   8   69.47   12.27
  14  -9   8   14.54   10.14
  15  -9   8   16.54   10.96
  16  -9   8    2.74    6.78
 -10  -8   8   49.44   11.06
  -9  -8   8    0.03    6.44
  -8  -8   8   10.70    7.35
  -7  -8   8  382.95   20.88
  -6  -8   8    2.94    5.20
  -5  -8   8   75.91    9.08
  -4  -8   8  323.98   16.43
  -3  -8   8    7.54    4.25
  -2  -8   8   16.72    4.50
  -1  -8   8   10.46    3.68
   0  -8   8   30.95    4.57
   0  -8   8   37.58    4.88
   1  -8   8    7.91    2.96
   1  -8   8   11.05    3.21
  -2   8  -8 1186.76   34.27
  -3   8  -8    1.93    1.28
   4  -8   8  814.87   24.98
  -4   8  -8  754.69   23.67
  -5   8  -8  163.30    7.73
   5  -8   8  154.01    7.98
   5  -8   8  165.30   11.34
  -6   8  -8   14.12    2.98
   6  -8   8   11.18    2.88
   6  -8   8   12.46    5.02
  -7   8  -8 2286.06   61.13
   7  -8   8 2195.21   72.26
   7  -8   8 2264.11   59.72
  -8   8  -8  200.26    9.66
   8  -8   8  265.70   15.59
   9  -8   8   33.99    7.46
  10  -8   8  139.56   12.51
 -10   8  -8   78.51    6.69
  11  -8   8  221.22   17.14
 -11   8  -8  217.95   12.15
 -12   8  -8    6.09    4.73
  12  -8   8    0.57    7.52
  13  -8   8  201.23   18.39
  14  -8   8  149.49   18.06
  15  -8   8   42.58   13.38
  16  -8   8   -0.92    6.26
 -11  -7   8   -9.70    6.32
 -10  -7   8   -0.17    6.68
  -9  -7   8  118.92   12.93
  -8  -7   8    9.56    6.33
  -7  -7   8    5.67    5.73
  -6  -7   8   55.68    8.55
  -5  -7   8  189.25   12.51
  -4  -7   8   67.33    7.75
  -3  -7   8  154.83    9.81
  -2  -7   8  394.82   16.19
  -1  -7   8   10.19    3.23
   0  -7   8 1781.06   49.01
   0  -7   8 1787.62   50.10
   1  -7   8    4.32    2.38
   1  -7   8    6.28    2.50
  -2   7  -8 1762.75   47.71
   3  -7   8   47.95    4.79
  -3   7  -8   42.16    3.82
   4  -7   8   11.61    2.88
  -4   7  -8   12.35    2.38
   5  -7   8  787.43   24.08
   5  -7   8  797.91   30.47
  -5   7  -8  824.43   23.70
   6  -7   8  334.13   12.14
  -6   7  -8  338.60   12.13
   6  -7   8  333.70   17.15
   7  -7   8   41.55    4.01
   7  -7   8   43.60    7.42
  -7   7  -8   46.10    4.50
   8  -7   8    6.23    4.62
  -8   7  -8   13.90    3.40
   9  -7   8  109.77   12.09
  10  -7   8  152.44   14.00
  11  -7   8  222.84   17.62
 -11   7  -8  254.86   13.16
  12  -7   8  159.04   16.75
 -12   7  -8  149.52   11.41
  13  -7   8  121.47   15.94
  14  -7   8   93.79   15.17
  15  -7   8  111.30   17.67
  16  -7   8    7.04    7.29
 -12  -6   8   27.16    9.81
 -11  -6   8   90.51   12.68
 -10  -6   8   34.78    8.82
  -9  -6   8   16.01    6.80
  -8  -6   8    1.78    5.33
  -7  -6   8   63.65    8.85
  -6  -6   8   53.11    8.09
  -5  -6   8  827.21   29.71
  -4  -6   8   22.64    5.09
  -3  -6   8   20.16    4.23
  -2  -6   8 1123.33   34.09
  -1  -6   8    2.74    2.37
   0  -6   8 4429.16  114.91
   1  -6   8   35.04    3.54
   1  -6   8   39.68    3.74
  -2   6  -8   16.28    2.31
   2  -6   8    7.63    2.70
  -3   6  -8  864.59   24.05
   3  -6   8  838.69   25.73
   4  -6   8  657.63   20.56
  -4   6  -8  669.59   19.31
  -5   6  -8  194.64    7.66
   5  -6   8  186.00   11.99
   5  -6   8  198.74    8.55
   6  -6   8  979.95   28.62
   6  -6   8 1020.10   36.63
  -6   6  -8 1002.68   28.50
   7  -6   8   10.26    5.09
   7  -6   8   13.06    2.99
  -7   6  -8    2.45    2.84
  -8   6  -8  357.96   13.72
   8  -6   8  349.26   19.11
   8  -6   8  346.14   12.90
   9  -6   8 1031.20   40.33
  10  -6   8  307.16   19.43
  11  -6   8   63.14   11.24
 -11   6  -8   76.11    7.85
 -12   6  -8   79.79    9.01
  12  -6   8   75.01   12.96
  13  -6   8   79.69   14.39
  14  -6   8   29.37   11.56
  15  -6   8    8.60   11.03
  16  -6   8    0.07    6.96
 -13  -5   8   -3.38    7.72
 -12  -5   8   15.50    8.66
 -11  -5   8   -3.18    5.88
 -10  -5   8   52.72    9.47
  -9  -5   8   63.87    9.64
  -8  -5   8    5.27    5.19
  -7  -5   8  339.66   17.51
  -6  -5   8    7.41    4.46
  -5  -5   8  190.30   11.71
  -4  -5   8   17.26    4.39
  -3  -5   8   67.23    6.37
  -2  -5   8 2080.82   57.31
  -1  -5   8   30.08    3.72
   0  -5   8 1005.51   28.49
   0  -5   8  989.33   30.12
   1  -5   8   14.41    2.22
   1  -5   8   13.33    2.26
   1  -5   8   11.19    2.95
   2  -5   8   94.37    5.78
  -2   5  -8   80.44    4.10
   3  -5   8  211.37    9.01
  -4   5  -8  833.25   22.70
   4  -5   8  805.56   24.29
   5  -5   8   84.61    7.82
  -5   5  -8   88.72    4.70
   5  -5   8   87.73    5.59
   6  -5   8  213.01   12.72
  -6   5  -8  209.25    8.36
   6  -5   8  189.47    8.62
  -7   5  -8 1490.49   41.27
   7  -5   8 1437.05   50.17
   7  -5   8 1483.04   41.11
   8  -5   8  436.78   21.98
  -8   5  -8  467.54   16.54
   8  -5   8  431.93   15.78
   9  -5   8  152.66   13.14
  10  -5   8   15.47    7.23
 -10   5  -8   11.44    4.11
 -11   5  -8   16.68    5.43
  11  -5   8    6.85    7.37
 -12   5  -8    2.39    5.51
  12  -5   8   13.98    8.68
  13  -5   8   77.66   14.33
  14  -5   8   56.96   13.08
  15  -5   8   48.69   13.80
  16  -5   8   -0.97    9.93
 -13  -4   8    1.57    6.75
 -12  -4   8   21.11    8.23
 -11  -4   8    3.84    6.02
 -10  -4   8    7.79    6.18
  -9  -4   8  366.30   19.03
  -8  -4   8  144.26   11.73
  -7  -4   8   48.54    7.50
  -6  -4   8  202.37   12.17
  -5  -4   8  281.79   13.52
  -4  -4   8  762.93   25.49
  -3  -4   8   40.78    4.94
  -2  -4   8   16.70    3.15
  -1  -4   8   13.60    3.17
  -1  -4   8   15.29    2.61
   0  -4   8   24.58    2.60
   0  -4   8   22.83    3.43
   1  -4   8   47.77    4.37
   2  -4   8 2395.27   63.62
   3  -4   8   77.16    5.18
   4  -4   8   83.65    5.42
   4  -4   8   94.32    7.79
   5  -4   8 1664.74   45.06
  -5   4  -8 1670.95   43.80
   5  -4   8 1596.19   53.05
   6  -4   8  346.16   12.82
   6  -4   8  330.58   16.75
  -6   4  -8  340.97   12.01
   7  -4   8    6.69    3.05
   7  -4   8   11.55    4.80
  -7   4  -8    8.82    2.99
   8  -4   8   79.20    6.76
  -8   4  -8   72.10    6.60
   8  -4   8   80.85    9.84
   9  -4   8   85.24   10.63
   9  -4   8   93.77    7.81
  10  -4   8   35.88    8.95
 -10   4  -8   34.19    6.34
 -11   4  -8  163.83   11.48
  11  -4   8  162.57   15.34
 -12   4  -8  206.06   13.99
  12  -4   8  220.70   18.11
  13  -4   8  130.58   16.66
  14  -4   8   22.09   10.37
  15  -4   8   60.52   14.38
  16  -4   8   41.35   13.40
 -14  -3   8   48.90   11.10
 -13  -3   8    3.87    7.14
 -12  -3   8    4.26    5.98
 -11  -3   8  119.55   12.40
 -10  -3   8   70.68    9.78
  -9  -3   8  194.56   13.18
  -8  -3   8   15.25    5.70
  -7  -3   8  700.11   26.02
  -6  -3   8  207.36   11.74
  -5  -3   8  158.32    9.60
  -4  -3   8    6.29    3.08
  -3  -3   8  803.39   25.29
  -3  -3   8  796.32   24.94
  -2  -3   8   89.05    5.59
  -2  -3   8   90.38    5.94
  -1  -3   8   44.37    3.82
  -1  -3   8   43.43    4.16
   0  -3   8 5958.52  151.80
   0  -3   8 5924.23  150.40
   1  -3   8  187.76    8.31
   2  -3   8   17.46    2.95
   3  -3   8 1705.57   46.47
   4  -3   8    5.35    2.38
   4  -3   8    3.48    2.97
  -4   3  -8    3.46    1.50
  -5   3  -8   77.47    4.86
   5  -3   8   71.26    5.42
   5  -3   8   80.87    7.48
  -6   3  -8  661.10   20.51
   6  -3   8  628.05   25.52
   6  -3   8  634.65   20.81
   7  -3   8  185.13   12.40
  -7   3  -8  167.10    9.20
   7  -3   8  168.08    9.25
   8  -3   8  252.74   15.76
   8  -3   8  259.90   12.46
   9  -3   8  175.86   14.03
   9  -3   8  162.16   10.43
 -10   3  -8   45.13    7.10
  10  -3   8   48.51    9.77
  11  -3   8   58.90   11.12
 -11   3  -8   56.74    8.41
  12  -3   8    1.13    8.27
  13  -3   8    7.11    9.97
  14  -3   8   47.53   12.55
  15  -3   8   -3.20    9.28
 -14  -2   8    9.76    7.89
 -13  -2   8   15.65    7.54
 -12  -2   8  105.10   12.16
 -11  -2   8   33.08    7.79
 -10  -2   8   12.87    6.00
  -9  -2   8  102.27    9.94
  -8  -2   8   19.35    5.63
  -7  -2   8  243.19   13.14
  -6  -2   8    7.29    3.49
  -5  -2   8  713.67   23.82
  -5  -2   8  699.83   23.25
  -4  -2   8  616.63   20.71
  -4  -2   8  634.10   20.87
  -3  -2   8  213.00    9.57
  -3  -2   8  216.57    9.23
  -2  -2   8 2449.66   65.52
  -2  -2   8 2444.27   64.33
  -1  -2   8  215.95    9.07
  -1  -2   8  201.28    7.31
   0  -2   8   44.65    4.13
   1  -2   8    7.23    2.32
   2  -2   8   32.07    3.60
   3  -2   8  416.41   14.44
   4  -2   8 2278.58   69.30
   4  -2   8 2242.50   60.81
  -4   2  -8 2265.94   59.49
   5  -2   8    3.41    2.63
   5  -2   8    7.22    3.68
  -5   2  -8    3.57    2.32
  -6   2  -8  407.23   15.18
   6  -2   8  418.38   19.03
   6  -2   8  398.13   15.48
   7  -2   8  690.28   23.44
  -7   2  -8  675.63   23.11
   7  -2   8  678.90   27.79
   8  -2   8  236.07   15.59
   8  -2   8  242.87   12.54
  -9   2  -8  219.08   12.61
   9  -2   8  196.52   14.97
   9  -2   8  192.92   12.15
  10  -2   8   32.61    8.87
 -10   2  -8   38.81    7.08
  10  -2   8   37.04    6.74
  11  -2   8    5.17    7.87
 -11   2  -8   -0.55    5.08
  12  -2   8   66.87   12.63
  13  -2   8   -5.63    8.40
  14  -2   8   38.16   11.77
  15  -2   8   10.63    9.77
 -15  -1   8   -1.11    7.58
 -14  -1   8  108.37   12.96
 -13  -1   8   40.11    8.79
 -12  -1   8   61.51   10.04
 -11  -1   8   39.69    7.94
 -10  -1   8    1.13    4.51
  -9  -1   8  146.18   11.18
  -8  -1   8  288.80   14.96
  -7  -1   8 2171.83   61.88
  -7  -1   8 2129.16   59.89
  -6  -1   8  319.15   14.21
  -6  -1   8  332.81   13.42
  -5  -1   8  194.60    9.17
  -5  -1   8  182.87    9.54
  -4  -1   8  779.74   24.57
  -4  -1   8  817.79   24.79
  -3  -1   8   64.02    4.79
  -3  -1   8   71.26    5.09
  -2  -1   8   15.99    2.37
  -2  -1   8   21.73    3.03
  -1  -1   8   11.05    2.68
  -1  -1   8    9.76    1.87
   0  -1   8  242.24    9.85
   1  -1   8   62.58    4.81
   2  -1   8 1689.67   46.45
  -3   1  -8   26.97    3.05
   3  -1   8   33.69    4.03
   3  -1   8   37.40    4.76
   4  -1   8 1423.21   41.13
  -4   1  -8 1467.38   40.20
   4  -1   8 1449.29   46.40
   5  -1   8  618.33   21.14
  -5   1  -8  629.81   20.48
   5  -1   8  598.54   23.77
  -6   1  -8   33.41    5.04
   6  -1   8   33.22    6.01
   6  -1   8   35.08    5.21
   7  -1   8  479.93   22.11
   7  -1   8  498.84   19.46
   8  -1   8    2.42    4.46
   8  -1   8    0.96    5.28
  -8   1  -8    3.61    4.25
   9  -1   8  147.28   11.25
   9  -1   8  143.46   13.09
  -9   1  -8  140.63   10.70
  10  -1   8  -10.14    4.67
  10  -1   8    4.37    7.07
 -10   1  -8   -3.23    4.83
 -11   1  -8   69.96    9.45
  11  -1   8   56.91   11.19
  12  -1   8   35.60   10.67
  13  -1   8    2.08    8.53
 -15   0   8   18.74    8.00
 -14   0   8   55.62   10.25
 -13   0   8   31.13    8.81
 -12   0   8    8.15    6.30
 -11   0   8  156.81   12.39
 -10   0   8  233.23   14.19
  -9   0   8  689.28   26.16
  -8   0   8  259.88   11.93
  -8   0   8  268.18   13.87
  -7   0   8   44.95    4.71
  -7   0   8   33.60    5.65
  -6   0   8  981.88   30.53
  -6   0   8  959.11   29.35
  -5   0   8   81.08    5.54
  -5   0   8   77.57    6.14
  -4   0   8   68.14    5.02
  -4   0   8   64.86    5.29
  -3   0   8 1744.08   47.39
  -3   0   8 1772.74   48.13
  -2   0   8   34.90    3.64
  -2   0   8   35.29    3.34
  -1   0   8   44.96    3.57
  -1   0   8   54.11    4.32
   0   0   8  523.11   15.48
   0   0   8  537.05   17.37
   1   0   8    4.74    2.58
   1   0   8    2.30    1.87
  -2   0  -8  431.70   13.57
  -2   0  -8  419.95   13.83
   2   0   8  459.80   15.69
   3   0   8   52.60    5.15
  -3   0  -8   60.49    4.58
   4   0   8   26.95    4.38
  -4   0  -8   28.64    3.76
   4   0   8   24.26    4.32
   5   0   8  597.88   21.53
   5   0   8  611.96   23.58
  -5   0  -8  586.19   20.60
   6   0   8  405.56   17.17
   6   0   8  427.24   19.36
   7   0   8   90.30    9.58
   7   0   8   83.68    8.41
  -7   0  -8   86.35    8.07
   8   0   8   21.49    6.87
   8   0   8   23.41    6.25
  -8   0  -8   15.56    5.45
  -9   0  -8   18.49    6.15
   9   0   8   20.10    7.43
   9   0   8   13.68    5.96
 -10   0  -8  213.72   14.13
  10   0   8  226.71   14.61
  10   0   8  198.36   16.21
  11   0   8   68.19   12.06
 -11   0  -8   69.71    9.94
 -15   1   8   24.78    8.93
 -14   1   8   57.43   10.62
 -13   1   8   92.87   11.44
 -12   1   8  159.26   12.83
 -11   1   8  115.56   10.69
 -10   1   8    1.89    4.74
  -9   1   8   36.53    4.61
  -9   1   8   29.57    6.32
  -8   1   8   16.24    2.99
  -8   1   8    5.21    4.16
  -7   1   8   20.01    4.68
  -6   1   8  189.38    9.99
  -6   1   8  213.24    9.34
  -5   1   8 1742.61   47.09
  -5   1   8 1667.47   47.59
  -4   1   8    5.16    2.66
  -4   1   8    3.69    1.97
  -3   1   8  439.63   15.17
  -3   1   8  445.74   14.79
  -2   1   8 1762.02   47.95
  -2   1   8 1744.98   47.07
  -1   1   8    0.90    1.90
  -1   1   8    1.06    1.91
   0   1   8 1582.54   44.75
   0   1   8 1640.05   43.36
   1   1   8  394.86   14.72
   1   1   8  387.59   13.24
   2   1   8  324.40   13.09
  -2  -1  -8  331.71   12.15
   2   1   8  311.64   13.26
  -2  -1  -8  325.54   11.84
   3   1   8   74.00    6.30
  -3  -1  -8   72.30    5.47
   3   1   8   76.02    6.41
   4   1   8   72.06    6.88
   4   1   8   75.18    6.91
   5   1   8  173.53   10.89
   5   1   8  208.78   11.38
   6   1   8  255.00   13.82
  -6  -1  -8  267.83   13.44
   7   1   8    6.03    5.03
   7   1   8   -0.24    4.65
  -7  -1  -8    1.06    4.37
   8   1   8   39.12    8.18
   8   1   8   39.72    8.05
  -8  -1  -8   34.73    6.95
   9   1   8  251.04   17.27
   9   1   8  290.51   16.57
  -9  -1  -8  262.11   15.83
  10   1   8   79.63   10.40
 -10  -1  -8   77.01   10.47
  11   1   8   -2.27    6.85
 -16   2   8   54.61   12.12
 -15   2   8   51.09   10.17
 -14   2   8   34.53    8.48
 -13   2   8  148.24   12.93
 -12   2   8   95.36   10.83
 -11   2   8   25.48    6.50
 -10   2   8  117.74   10.10
  -9   2   8  113.57    7.07
  -9   2   8  108.81    9.30
  -8   2   8  372.67   16.47
  -8   2   8  368.10   13.95
  -7   2   8 1416.66   39.98
  -7   2   8 1403.92   42.10
  -6   2   8  382.17   15.26
  -5   2   8   92.38    5.68
  -5   2   8   74.64    6.26
  -4   2   8 2320.99   62.84
  -4   2   8 2385.77   63.42
  -3   2   8   33.77    3.93
  -3   2   8   41.15    4.06
  -2   2   8  476.58   15.94
  -2   2   8  484.38   16.42
  -1   2   8  363.11   12.80
  -1   2   8  368.78   13.66
   0   2   8   64.73    5.35
   0   2   8   78.99    5.73
   1   2   8   38.99    4.80
   1   2   8   30.02    4.18
   1   2   8   30.56    3.89
   3   2   8  376.21   15.35
   3   2   8  382.14   16.08
   4   2   8 1353.00   41.18
   4   2   8 1311.53   43.17
  -4  -2  -8 1334.72   39.98
  -5  -2  -8   17.37    4.64
   5   2   8   24.53    5.16
   5   2   8   16.67    5.38
   6   2   8   17.32    5.70
   6   2   8   15.69    5.70
  -6  -2  -8   21.24    5.60
  -7  -2  -8  613.83   25.11
   7   2   8  679.95   26.63
  -8  -2  -8   84.25   10.00
   8   2   8   79.52    9.81
   9   2   8   -2.04    6.04
  -9  -2  -8   -1.28    5.40
 -10  -2  -8   24.96    8.27
  10   2   8   14.20    7.12
  11   2   8   -4.65    6.22
 -16   3   8   10.57    8.08
 -15   3   8   27.70    8.71
 -14   3   8   -1.24    6.14
 -13   3   8   36.60    8.54
 -12   3   8   28.07    7.66
 -11   3   8  216.23   13.83
 -10   3   8  136.99   10.80
  -9   3   8 1082.20   31.68
  -9   3   8 1039.82   35.12
  -8   3   8  451.03   18.98
  -8   3   8  491.03   16.56
  -7   3   8   -1.82    3.55
  -7   3   8    4.23    2.44
  -6   3   8  654.18   22.36
  -5   3   8    3.13    1.91
  -5   3   8    3.70    2.91
  -4   3   8 1525.64   43.44
  -4   3   8 1596.70   44.27
  -3   3   8   64.70    5.52
  -3   3   8   62.33    5.09
  -2   3   8  376.06   13.95
  -2   3   8  349.85   13.35
  -1   3   8   33.79    4.44
  -1   3   8   24.26    3.91
   0   3   8  946.35   29.49
   0   3   8  933.97   28.33
   1   3   8  242.98   11.01
   1   3   8  236.98   11.61
  -2  -3  -8 2055.29   56.16
   2   3   8 1954.67   59.14
   2   3   8 1947.14   57.04
  -2  -3  -8 2024.28   55.02
  -3  -3  -8    3.95    2.95
   3   3   8    3.63    3.06
   3   3   8    3.82    3.91
   4   3   8    0.70    3.76
  -4  -3  -8    7.50    3.39
   5   3   8  608.03   24.18
  -5  -3  -8  597.21   22.96
  -6  -3  -8    6.35    4.89
   6   3   8    4.11    4.82
   7   3   8   38.54    7.56
  -7  -3  -8   43.19    7.59
   8   3   8    5.69    6.21
  -8  -3  -8   -4.66    5.42
  -9  -3  -8   36.61    8.44
   9   3   8   28.31    8.52
  10   3   8    5.67    7.16
 -10  -3  -8    8.74    7.37
  11   3   8   47.45   10.01
 -16   4   8    6.12    7.51
 -15   4   8   70.34   11.42
 -14   4   8  111.76   12.80
 -13   4   8   81.65   10.55
 -12   4   8   -0.14    5.57
 -11   4   8  242.76   14.75
 -10   4   8  335.24   16.83
  -9   4   8  143.72   10.41
  -8   4   8   88.09    5.85
  -8   4   8   79.46    7.82
  -7   4   8  192.77    8.81
  -7   4   8  176.86   10.33
  -6   4   8  423.90   16.60
  -5   4   8  682.47   22.04
  -5   4   8  694.23   23.18
  -4   4   8   30.29    3.88
  -4   4   8   34.51    4.75
  -3   4   8   78.98    6.35
  -3   4   8   72.29    5.79
  -2   4   8  590.93   19.95
  -2   4   8  581.30   20.19
  -1   4   8  246.36   11.27
  -1   4   8  244.21   11.66
   0   4   8 1570.30   44.37
   0   4   8 1491.63   45.04
   1   4   8   65.53    6.43
   1   4   8   57.47    6.54
  -2  -4  -8   31.75    5.12
  -2  -4  -8   35.40    5.32
   2   4   8   34.98    5.83
  -3  -4  -8  560.42   21.38
   3   4   8  590.75   22.83
  -3  -4  -8  548.58   20.80
   4   4   8    4.06    4.85
  -4  -4  -8    4.83    4.00
  -5  -4  -8    8.13    4.64
   5   4   8    4.81    4.84
  -6  -4  -8    9.33    5.09
   6   4   8   -3.59    4.76
  -7  -4  -8   35.33    7.80
   7   4   8   39.97    8.82
   8   4   8    4.82    7.05
  -8  -4  -8   13.68    7.52
  -9  -4  -8   89.11   12.11
   9   4   8   88.98   12.03
 -10  -4  -8    7.65    7.23
  10   4   8    2.10    7.68
  11   4   8    4.01    7.74
 -16   5   8   78.69   12.51
 -15   5   8   95.34   12.90
 -14   5   8   12.43    7.53
 -13   5   8  183.74   14.21
 -12   5   8  157.32   12.65
 -11   5   8   76.64    9.45
 -10   5   8   29.40    6.53
  -9   5   8   98.33    8.84
  -8   5   8  249.01   10.57
  -8   5   8  242.44   12.80
  -7   5   8  713.26   22.77
  -7   5   8  717.08   25.08
  -6   5   8   31.82    5.39
  -5   5   8  673.81   21.75
  -5   5   8  616.83   22.33
  -4   5   8   78.49    6.84
  -4   5   8   73.62    5.93
  -3   5   8  369.91   14.68
  -3   5   8  333.05   14.28
  -2   5   8 2084.48   59.07
  -2   5   8 2109.17   58.72
  -1   5   8   69.50    6.64
  -1   5   8   57.24    6.38
   0   5   8  215.43   11.21
   0   5   8  199.29   11.40
   1   5   8   77.77    8.20
   1   5   8   79.82    7.50
  -2  -5  -8   63.51    7.27
   2   5   8   50.87    7.30
  -2  -5  -8   61.18    7.13
  -3  -5  -8   15.90    5.09
   3   5   8   27.23    6.19
  -3  -5  -8   19.80    5.36
  -4  -5  -8  211.37   12.90
   4   5   8  196.67   13.55
   5   5   8   86.44   10.55
  -5  -5  -8   90.37    9.79
   6   5   8   58.85    9.35
  -6  -5  -8   33.70    7.30
   7   5   8  148.22   14.32
  -7  -5  -8  164.59   13.56
   8   5   8   -6.73    6.30
  -8  -5  -8   12.35    7.37
   9   5   8   17.98    7.70
  -9  -5  -8    6.50    7.75
  10   5   8   33.61    9.63
 -16   6   8    0.11    7.35
 -15   6   8    5.02    7.43
 -14   6   8  115.81   13.26
 -13   6   8   99.85   11.32
 -12   6   8   64.93    9.46
 -11   6   8   16.95    5.96
 -10   6   8   25.22    6.36
  -9   6   8  185.82   11.86
  -8   6   8  267.04   13.99
  -7   6   8  536.69   18.59
  -7   6   8  508.39   20.52
  -5   6   8  232.54   12.11
  -5   6   8  223.63   11.05
  -4   6   8 1424.82   41.79
  -4   6   8 1366.92   41.78
  -3   6   8    6.89    3.17
  -3   6   8    3.70    4.12
  -2   6   8   35.12    5.72
  -2   6   8   41.15    6.06
  -1   6   8   71.19    7.40
  -1   6   8   71.47    7.58
   0   6   8    5.72    4.71
   0   6   8    6.01    4.34
   1   6   8    7.26    4.61
   2   6   8  249.04   14.45
  -2  -6  -8  231.80   12.96
  -2  -6  -8  213.53   12.78
  -3  -6  -8   19.13    5.74
  -3  -6  -8   21.07    5.61
   3   6   8   16.40    6.23
   4   6   8   -1.15    5.05
  -4  -6  -8    8.30    5.30
  -5  -6  -8  122.87   11.49
   5   6   8  135.31   12.92
  -6  -6  -8    2.42    5.87
   6   6   8   -7.28    6.04
  -7  -6  -8   -7.59    5.83
   7   6   8   -3.94    6.11
   8   6   8   42.28    9.51
  -8  -6  -8   37.04    9.40
   9   6   8   83.32   12.73
  -9  -6  -8   63.77   12.04
 -16   7   8   -4.39    7.16
 -15   7   8   56.05   10.99
 -14   7   8  106.52   12.79
 -13   7   8   72.61   10.16
 -12   7   8    1.59    5.20
 -11   7   8  162.02   12.20
 -10   7   8   41.38    7.41
  -9   7   8  190.99   12.32
  -8   7   8    1.15    4.27
  -7   7   8  106.67    7.57
  -7   7   8   95.69    8.73
  -6   7   8  243.25   13.24
  -5   7   8   25.85    4.66
  -5   7   8   23.40    5.61
  -4   7   8    5.96    4.30
  -4   7   8    4.66    3.41
  -3   7   8  565.56   22.32
  -3   7   8  622.24   22.82
  -2   7   8   68.73    7.90
  -2   7   8   63.06    7.68
  -1   7   8    1.03    4.17
  -1   7   8    7.09    4.79
   0   7   8  496.45   20.40
   0   7   8  462.58   20.96
   1   7   8    3.51    4.96
  -1  -7  -8    4.04    4.43
  -1  -7  -8    2.82    4.87
   2   7   8    2.66    5.21
  -2  -7  -8   15.57    5.22
  -2  -7  -8   14.76    5.38
   3   7   8   88.98   10.78
  -3  -7  -8   73.27    9.33
  -4  -7  -8   68.99    9.55
   4   7   8   74.59   11.13
   5   7   8  -12.19    5.35
  -5  -7  -8    3.77    6.42
   6   7   8   -6.75    6.07
  -6  -7  -8   -4.84    6.39
   7   7   8  132.13   14.69
  -7  -7  -8  105.92   12.80
  -8  -7  -8   -7.65    6.40
   8   7   8  -10.14    6.45
 -16   8   8   90.20   12.95
 -15   8   8   87.00   12.21
 -14   8   8   10.42    7.08
 -13   8   8   86.37   11.00
 -12   8   8  226.88   15.17
 -11   8   8   66.73    9.19
 -10   8   8   32.92    7.19
  -9   8   8  143.67   11.26
  -8   8   8   19.86    6.09
  -7   8   8    8.83    3.58
  -7   8   8    3.82    4.73
  -6   8   8   18.60    5.74
  -6   8   8   12.13    4.13
  -5   8   8  687.58   25.06
  -5   8   8  687.68   25.63
  -4   8   8   10.37    5.03
  -4   8   8   11.00    5.05
  -3   8   8   18.82    5.94
  -3   8   8   22.11    5.90
  -2   8   8  267.76   15.12
  -2   8   8  284.08   14.84
  -1   8   8    8.60    5.39
  -1   8   8   10.25    5.45
   0   8   8   16.86    6.68
   0   8   8   11.29    5.63
  -1  -8  -8  130.41   10.70
   1   8   8  105.42   11.51
  -1  -8  -8  129.09   10.78
   2   8   8  198.92   15.18
  -2  -8  -8  181.28   13.11
  -2  -8  -8  189.78   13.15
  -3  -8  -8   12.13    6.34
   3   8   8   15.36    7.73
  -4  -8  -8   14.64    7.13
   4   8   8   12.14    7.60
   5   8   8  104.16   13.45
  -5  -8  -8  113.97   12.55
  -6  -8  -8   -6.02    6.30
   6   8   8    2.46    7.75
   7   8   8  -11.36    7.76
  -7  -8  -8   20.74    8.49
  -8  -8  -8   -3.35    7.48
 -16   9   8   12.14    8.73
 -15   9   8   24.15    8.29
 -14   9   8   62.12   10.98
 -13   9   8  121.85   12.73
 -12   9   8   -2.52    5.49
 -11   9   8    5.04    5.63
 -10   9   8    8.07    5.78
  -9   9   8   23.28    6.81
  -8   9   8   53.84    8.35
  -7   9   8  693.05   26.90
  -6   9   8   14.62    5.95
  -6   9   8    5.35    4.00
  -5   9   8    7.74    5.03
  -5   9   8    1.83    5.02
  -4   9   8  215.33   13.62
  -4   9   8  224.87   13.85
  -3   9   8   12.27    6.10
  -3   9   8   13.67    6.06
  -2   9   8   11.56    6.07
  -2   9   8   10.28    6.37
  -1   9   8  128.84   11.51
  -1   9   8  113.42   11.76
   0   9   8  121.80   12.42
  -1  -9  -8    0.91    5.01
  -1  -9  -8   15.16    6.15
   1   9   8    9.87    6.50
  -2  -9  -8  128.83   11.89
   2   9   8  121.85   13.66
  -2  -9  -8  139.57   11.93
  -3  -9  -8  111.66   12.26
   3   9   8  121.26   13.87
  -4  -9  -8   29.24    8.19
   4   9   8   12.03    7.80
  -5  -9  -8   -9.27    6.58
   5   9   8  -14.39    6.99
   6   9   8   21.91    9.39
  -6  -9  -8   43.97   10.19
  -7  -9  -8   14.29    8.90
 -16  10   8   34.91   10.19
 -15  10   8   46.49   10.28
 -14  10   8   36.07    9.27
 -13  10   8   15.05    7.32
 -12  10   8   60.79    9.78
 -11  10   8   64.90    9.68
 -10  10   8  221.90   14.97
  -9  10   8  302.40   17.24
  -8  10   8  110.12   11.04
  -7  10   8   52.52    8.54
  -6  10   8    3.51    5.29
  -6  10   8   11.84    6.21
  -5  10   8   87.84   10.10
  -5  10   8   98.53   10.53
  -4  10   8    6.54    5.83
  -4  10   8    3.52    5.86
  -3  10   8  102.92   11.36
  -3  10   8   79.57   10.10
  -2  10   8  212.68   15.65
  -2  10   8  202.27   14.61
  -1  10   8    3.13    6.25
  -1  10   8    4.08    6.66
   0 -10  -8   86.03   11.02
   0  10   8   90.11   11.73
   0 -10  -8   99.76   11.72
  -1 -10  -8   28.60    7.63
   1  10   8   21.96    7.93
  -1 -10  -8   26.36    7.79
  -2 -10  -8   46.53    9.16
   2  10   8   49.44   10.59
  -2 -10  -8   52.71    9.79
   3  10   8   -6.25    6.56
  -3 -10  -8    4.23    7.08
   4  10   8   15.81    7.82
  -4 -10  -8   54.85   10.70
  -5 -10  -8   23.29    8.81
   5  10   8   20.70    9.58
  -6 -10  -8   10.35    8.11
 -15  11   8   76.65   12.05
 -14  11   8   38.09   10.06
 -13  11   8   12.38    7.44
 -12  11   8   26.15    8.20
 -11  11   8   87.16   11.04
 -10  11   8   76.26   10.74
  -9  11   8    2.70    6.16
  -8  11   8   -6.04    5.40
  -7  11   8   29.03    7.84
  -6  11   8   43.52    8.85
  -6  11   8   36.88    8.29
  -5  11   8  160.19   13.44
  -5  11   8  152.52   13.05
  -4  11   8   82.29   11.34
  -4  11   8  102.30   11.53
  -3  11   8   24.18    8.11
  -3  11   8   13.82    7.31
  -2  11   8  146.77   13.98
  -2  11   8  158.57   14.20
  -1  11   8   13.10    7.59
  -1  11   8   15.47    7.65
   0 -11  -8   72.84   10.40
   0 -11  -8   46.67    9.76
   0  11   8   37.44   10.44
  -1 -11  -8   12.94    6.77
  -1 -11  -8   -3.21    5.73
   1  11   8   -1.61    6.40
  -2 -11  -8  140.75   14.43
  -2 -11  -8  145.31   14.44
  -3 -11  -8    4.07    7.44
   3  11   8    4.80    5.92
  -4 -11  -8   15.86    8.26
 -15  12   8   15.56    9.18
 -14  12   8   24.67    9.37
 -13  12   8    8.90    7.13
 -12  12   8   24.87    8.37
 -11  12   8    2.78    6.80
 -10  12   8    8.10    7.15
  -9  12   8   27.23    8.10
  -8  12   8   16.03    7.63
  -7  12   8  183.51   14.39
  -6  12   8    2.25    7.17
  -5  12   8    4.98    6.79
  -5  12   8   -2.42    6.22
  -4  12   8   12.10    8.07
  -4  12   8   17.54    8.34
  -3  12   8  104.15   13.00
  -3  12   8  127.94   13.97
  -2  12   8   60.24   11.25
  -2  12   8   63.36   10.97
  -1  12   8   -9.02    6.19
   0  12   8   94.30   13.69
   0 -12  -8  123.13   13.54
   0 -12  -8  132.90   13.91
   1  12   8   -6.79    4.81
  -1 -12  -8    6.08    7.10
  -1 -12  -8   -2.43    6.05
  -2 -12  -8    7.43    6.94
   2  12   8   -0.24    5.31
  -3 -12  -8   19.29    9.08
 -14  13   8   -0.06    7.23
 -13  13   8   13.70    8.49
 -12  13   8   63.31   11.29
 -11  13   8    4.74    7.41
 -10  13   8   16.73    8.02
  -9  13   8   78.70   11.48
  -8  13   8    6.52    7.23
  -7  13   8    6.37    7.71
  -6  13   8    2.99    7.02
  -5  13   8  100.58   13.52
  -5  13   8  148.48   14.22
  -4  13   8   30.86    9.99
  -4  13   8   38.71   10.03
  -3  13   8   -0.92    7.64
  -3  13   8    4.70    7.81
  -2  13   8  150.52   15.23
  -2  13   8  166.42   16.74
   1 -13  -8   11.93    7.39
  -1  13   8   -9.90    6.25
   1 -13  -8   -1.75    7.23
   0  13   8    2.13    5.59
   0 -13  -8    7.26    7.23
   0 -13  -8   11.46    7.40
  -1 -13  -8   33.55    8.87
  -1 -13  -8   25.39    8.92
 -13  14   8    7.53    9.25
 -12  14   8   -8.79    7.29
 -11  14   8   39.90   10.08
 -10  14   8    4.26    7.88
  -9  14   8   19.14    8.50
  -8  14   8   45.28   10.83
  -7  14   8  121.87   14.06
  -6  14   8   -7.60    7.70
  -5  14   8    0.14    7.92
  -4  14   8   30.02   10.21
  -4  14   8   43.14   11.28
  -3  14   8    9.90    9.06
  -3  14   8   -4.76    7.43
  -2  14   8   -7.81    6.78
   1 -14  -8   23.25    9.94
  -1  14   8   26.54    9.87
   1 -14  -8   36.60   10.28
 -11  15   8   19.46   10.17
 -10  15   8   45.22   10.80
  -9  15   8   83.89   13.03
  -8  15   8    8.73    9.44
  -7  15   8    1.18    9.14
  -6  15   8   44.53   11.49
  -5  15   8   27.04   10.68
  -4  15   8   19.66   10.80
  -3  15   8   15.67    8.86
  -7  20  -9   -3.80    6.90
  -8  20  -9    3.55    7.54
  -9  20  -9   -2.84    7.37
   4 -19   9   33.11   10.60
   4 -19   9   31.87    9.83
   5 -19   9   25.86   10.61
   5 -19   9   21.08   10.45
  -6  19  -9    0.62    5.69
  -7  19  -9   -0.47    6.05
  -8  19  -9   33.64    8.67
  -9  19  -9   27.70    8.20
 -10  19  -9    8.05    6.50
   1 -18   9   38.22   10.42
   2 -18   9    5.23    6.76
   2 -18   9    1.90    6.79
   3 -18   9   78.47   12.31
   3 -18   9  100.47   13.49
   4 -18   9   12.18    7.16
   4 -18   9   -4.89    5.88
  -6  18  -9   76.75   10.81
  -7  18  -9   17.63    7.62
  -8  18  -9    3.93    6.22
  -9  18  -9    1.86    5.84
 -10  18  -9    4.53    6.69
  -1 -17   9   30.84   10.28
   0 -17   9    1.02    7.03
   1 -17   9  114.80   13.66
   2 -17   9   12.18    6.58
   2 -17   9    4.79    5.72
   3 -17   9    7.00    5.82
   3 -17   9    2.52    5.66
   4 -17   9   71.25   11.31
   4 -17   9   71.58   11.13
  -5  17  -9    0.57    5.83
  -6  17  -9    0.96    5.85
  -7  17  -9   58.06    9.33
  -8  17  -9    8.04    5.88
  -9  17  -9   19.02    7.15
 -10  17  -9  182.34   14.17
  13 -17   9   38.62   10.81
  14 -17   9   73.61   13.65
  15 -17   9   32.24   11.73
  -2 -16   9   -5.88    6.34
  -1 -16   9  115.09   13.57
   0 -16   9    2.35    5.60
   1 -16   9    9.04    6.09
   1 -16   9    5.70    6.01
   2 -16   9   22.41    7.58
   2 -16   9   18.98    7.05
   3 -16   9   22.04    7.45
   3 -16   9    7.72    6.09
  -5  16  -9   57.54    8.85
  -6  16  -9   34.53    7.83
  -7  16  -9   35.58    7.85
  -8  16  -9  411.86   20.20
  -9  16  -9  155.33   12.49
  10 -16   9   31.43    8.45
 -10  16  -9   29.03    7.29
  11 -16   9   -3.30    6.72
  12 -16   9   28.31    9.17
  13 -16   9    7.57    8.48
  14 -16   9   42.01   11.54
  15 -16   9   59.20   12.41
  -4 -15   9   42.87   10.18
  -3 -15   9   94.58   12.99
  -2 -15   9   21.67    7.76
  -1 -15   9   -7.41    5.05
   0 -15   9    1.58    5.88
   1 -15   9   38.52    8.23
   1 -15   9   33.65    7.93
   2 -15   9   -3.81    4.08
   2 -15   9    1.47    4.48
   3 -15   9  292.97   17.15
   3 -15   9  258.12   16.29
  -4  15  -9   29.72    7.00
  -5  15  -9  105.06   10.75
  -6  15  -9  473.95   21.15
  -7  15  -9   41.06    7.48
   7 -15   9   45.12    8.65
  -8  15  -9  177.55   12.41
   8 -15   9  184.42   14.60
  -9  15  -9   23.57    6.55
   9 -15   9   23.86    7.29
 -10  15  -9    1.13    5.42
  10 -15   9    0.72    5.99
 -11  15  -9    5.96    5.51
  11 -15   9    7.83    7.19
  12 -15   9  194.97   16.84
  13 -15   9  197.04   17.84
  14 -15   9   32.74    9.83
  15 -15   9   10.14    8.64
  16 -15   9   72.08   15.74
  -5 -14   9    9.81    7.72
  -4 -14   9   -8.49    5.44
  -3 -14   9   -1.07    5.78
  -2 -14   9   23.43    7.23
  -1 -14   9   44.59    8.77
   0 -14   9    8.58    5.52
   1 -14   9  831.98   31.98
   1 -14   9  788.96   30.89
   2 -14   9    8.83    4.91
   2 -14   9    8.60    4.73
  -4  14  -9  165.11   11.84
  -5  14  -9   38.21    7.28
  -6  14  -9  483.10   20.76
   6 -14   9  497.82   24.35
  -7  14  -9  108.90    9.93
   7 -14   9   95.98   11.18
   8 -14   9  167.01   14.12
  -8  14  -9  158.92   11.50
   9 -14   9   24.19    7.12
  -9  14  -9    7.75    5.44
 -10  14  -9  298.85   15.54
  10 -14   9  286.03   19.38
  11 -14   9  366.91   22.43
 -11  14  -9  315.35   16.28
  12 -14   9  224.75   17.93
  13 -14   9    7.09    7.57
  14 -14   9   59.86   13.20
  15 -14   9  130.80   17.52
  16 -14   9   86.27   16.37
  -6 -13   9    3.57    7.13
  -5 -13   9    5.23    6.32
  -4 -13   9   64.34   10.55
  -3 -13   9   17.52    7.13
  -2 -13   9    8.72    5.28
  -1 -13   9  807.63   32.12
   0 -13   9   -2.41    3.88
   0 -13   9    5.40    4.85
   1 -13   9   67.81    8.55
   1 -13   9   59.67    8.17
   2 -13   9   35.66    6.62
   2 -13   9   31.75    6.79
  -4  13  -9   84.32    8.56
  -5  13  -9  406.18   18.03
  -6  13  -9   72.14    7.96
   6 -13   9   57.10    8.48
  -7  13  -9    1.10    4.15
   7 -13   9   -0.47    4.29
   8 -13   9   97.93   11.11
  -8  13  -9  103.00    8.88
  -9  13  -9  159.94   10.67
   9 -13   9  161.51   13.74
  10 -13   9  386.50   22.12
 -10  13  -9  365.68   16.79
  11 -13   9   20.29    7.57
 -11  13  -9   17.24    5.39
  12 -13   9   48.55   10.40
  13 -13   9  139.59   16.10
  14 -13   9   76.77   13.65
  15 -13   9   30.36   10.34
  16 -13   9    0.02    9.63
  -7 -12   9   12.42    8.68
  -6 -12   9   94.98   12.97
  -5 -12   9   -1.04    6.15
  -4 -12   9   16.80    6.70
  -3 -12   9  270.25   16.99
  -2 -12   9   -0.54    4.69
  -1 -12   9   58.02    8.29
   0 -12   9   -1.64    3.49
   0 -12   9    1.70    4.10
   1 -12   9  154.28   10.96
   1 -12   9  161.06   11.34
   2 -12   9   44.90    6.71
   2 -12   9   52.63    7.11
  -3  12  -9  440.93   18.25
  -4  12  -9  131.81    9.66
  -5  12  -9  229.02   12.04
   6 -12   9  180.49   13.39
   6 -12   9  209.77   11.44
  -6  12  -9  201.94   10.94
  -7  12  -9  148.00    9.35
   7 -12   9  155.43   12.51
   8 -12   9  714.48   31.20
  -8  12  -9  737.64   25.28
   9 -12   9   63.20    9.90
  -9  12  -9   98.80    8.18
  10 -12   9    9.29    5.92
 -10  12  -9    7.18    4.49
  11 -12   9   83.39   12.18
 -11  12  -9   63.01    7.85
  12 -12   9   48.76   10.66
  13 -12   9    3.85    6.67
  14 -12   9    0.16    7.26
  15 -12   9   70.37   14.21
  16 -12   9   37.57   12.53
  -8 -11   9   33.32   10.52
  -7 -11   9   13.30    8.03
  -6 -11   9    5.07    6.12
  -5 -11   9   61.03    9.96
  -4 -11   9   38.20    8.17
  -3 -11   9   26.48    7.01
  -2 -11   9   31.64    6.57
  -1 -11   9  138.35   10.83
   0 -11   9   -0.76    3.58
   0 -11   9    7.74    4.50
   1 -11   9  828.78   29.01
   1 -11   9  805.59   28.29
   2 -11   9  234.34   12.51
   2 -11   9  213.82   12.01
  -3  11  -9  842.08   27.83
  -4  11  -9  205.66   10.84
  -5  11  -9   98.33    7.46
   6 -11   9  936.62   29.72
  -6  11  -9  923.51   29.47
   6 -11   9  912.95   35.76
   7 -11   9   17.53    5.94
  -7  11  -9   27.29    4.66
  -8  11  -9  107.20    7.29
   8 -11   9  113.79   11.09
   9 -11   9   76.55   10.37
  -9  11  -9   72.99    6.48
 -10  11  -9   20.60    4.77
  10 -11   9    6.92    6.76
  11 -11   9   98.11   12.82
  12 -11   9  151.33   14.77
  13 -11   9   72.48   12.32
  14 -11   9    6.57    7.58
  15 -11   9  107.95   16.36
  16 -11   9   82.05   15.05
  -9 -10   9    9.82    8.63
  -8 -10   9    1.08    7.01
  -7 -10   9   47.80   10.55
  -6 -10   9   35.13    8.86
  -5 -10   9  105.21   11.20
  -4 -10   9  162.53   12.53
  -3 -10   9  117.34   10.37
  -2 -10   9   39.58    6.78
  -1 -10   9  868.43   30.69
   0 -10   9    2.34    3.61
   0 -10   9    1.97    3.69
   1 -10   9  867.91   28.94
   1 -10   9  911.65   29.88
  -3  10  -9   10.40    3.25
  -4  10  -9  461.95   17.02
   5 -10   9  368.90   15.26
   6 -10   9  154.78   12.20
   6 -10   9  156.85    8.77
   7 -10   9  142.59    8.35
   7 -10   9  157.80   12.21
   8 -10   9    7.83    4.90
  -8  10  -9    5.83    2.51
   9 -10   9   13.64    5.93
  10 -10   9  341.10   20.30
  11 -10   9   66.32   11.10
  12 -10   9    3.54    6.32
  13 -10   9  101.64   14.16
  14 -10   9   41.82   10.66
  15 -10   9   14.68   10.42
  16 -10   9   -6.02    6.84
 -10  -9   9   13.64    9.36
  -9  -9   9   -2.96    6.36
  -8  -9   9    0.02    6.75
  -7  -9   9   41.70    9.53
  -6  -9   9  472.59   23.34
  -5  -9   9   37.56    7.63
  -4  -9   9   73.06    8.88
  -3  -9   9  427.01   19.25
  -2  -9   9  213.81   12.66
  -1  -9   9  873.77   29.75
   0  -9   9   12.24    3.72
   0  -9   9    7.27    2.99
   1  -9   9  339.29   14.65
   1  -9   9  370.87   14.73
   4  -9   9  425.32   15.75
  -4   9  -9  344.44   13.71
  -5   9  -9  881.56   26.78
   5  -9   9  875.06   27.40
   6  -9   9  113.24    7.40
  -6   9  -9  125.36    7.28
   6  -9   9  120.84   10.94
   7  -9   9  599.37   19.78
  -7   9  -9  587.20   20.16
   7  -9   9  657.01   27.23
  -8   9  -9 1545.66   44.59
   8  -9   9 1584.44   54.75
   9  -9   9  173.02   13.57
  -9   9  -9  182.44    9.58
  10  -9   9   24.58    7.16
  11  -9   9   61.19   10.71
  12  -9   9   27.19    9.00
  13  -9   9    6.48    8.86
  14  -9   9  116.01   16.83
  15  -9   9   90.46   15.98
  16  -9   9   -6.06    7.35
 -11  -8   9   10.89    8.81
 -10  -8   9   -4.97    6.32
  -9  -8   9   22.89    7.99
  -8  -8   9  381.57   21.34
  -7  -8   9   48.22    9.62
  -6  -8   9  446.45   21.97
  -5  -8   9  345.66   17.92
  -4  -8   9  136.85   10.63
  -3  -8   9  775.51   27.77
  -2  -8   9    5.34    3.57
  -1  -8   9  347.18   14.90
   0  -8   9    1.51    2.29
   1  -8   9  171.07    9.02
   1  -8   9  179.91    9.03
  -3   8  -9 1896.88   50.67
   3  -8   9 1816.40   52.42
   4  -8   9    2.45    2.53
  -4   8  -9    4.17    2.24
   5  -8   9   12.80    3.29
   6  -8   9  938.32   27.84
  -6   8  -9  927.67   27.35
   6  -8   9  913.21   35.11
   7  -8   9  240.00   10.61
   7  -8   9  245.75   15.48
  -7   8  -9  271.48   10.81
  -8   8  -9    8.72    3.04
   8  -8   9    9.24    4.98
   9  -8   9   89.50   11.19
  -9   8  -9  113.70    7.45
  10  -8   9   17.29    7.95
 -10   8  -9   26.02    4.50
  11  -8   9    9.95    7.85
  12  -8   9   40.29   10.77
  13  -8   9  200.42   18.86
  14  -8   9   23.29   11.02
  15  -8   9   29.28   11.64
  16  -8   9    0.00    7.63
 -11  -7   9    3.51    7.02
 -10  -7   9  160.46   15.76
  -9  -7   9  148.91   14.51
  -8  -7   9  161.55   13.67
  -7  -7   9   89.31   10.64
  -6  -7   9   52.38    8.37
  -5  -7   9  204.81   12.99
  -4  -7   9  211.63   12.53
  -3  -7   9    8.39    3.76
  -2  -7   9  758.39   25.60
  -1  -7   9  165.20    8.99
   0  -7   9    2.38    2.26
   1  -7   9 4025.34  104.06
   1  -7   9 4123.35  106.36
   2  -7   9  149.47    8.71
   3  -7   9    0.73    2.44
  -3   7  -9    4.57    1.99
   4  -7   9 1391.03   40.50
  -4   7  -9 1475.15   39.18
   5  -7   9  233.41   10.00
  -5   7  -9  224.35    8.78
   5  -7   9  218.25   13.55
   6  -7   9   20.29    3.41
   6  -7   9   11.36    5.17
  -6   7  -9   22.16    3.03
  -7   7  -9  495.06   16.43
   7  -7   9  503.87   23.11
   7  -7   9  484.78   16.48
  -8   7  -9  314.89   12.24
   8  -7   9  299.47   18.00
   8  -7   9  287.75   11.76
  -9   7  -9   21.99    4.11
   9  -7   9   26.09    7.88
 -10   7  -9  193.86   10.65
  10  -7   9  183.20   15.25
  11  -7   9    2.39    6.16
  12  -7   9   12.62    8.03
  13  -7   9   16.79    9.58
  14  -7   9    1.02    9.34
  15  -7   9   86.98   16.77
  16  -7   9   -4.26    6.96
 -12  -6   9   50.66   11.26
 -11  -6   9   69.13   11.32
 -10  -6   9   18.39    8.03
  -9  -6   9   24.66    8.06
  -8  -6   9  133.20   12.15
  -7  -6   9   -0.21    4.52
  -6  -6   9  186.22   12.68
  -5  -6   9   91.43    8.96
  -4  -6   9  417.94   17.81
  -3  -6   9  232.36   11.84
  -2  -6   9    5.40    2.76
  -1  -6   9 4016.52  105.41
   0  -6   9    4.69    2.44
   1  -6   9   31.55    4.51
   1  -6   9   33.88    3.60
   1  -6   9   34.60    3.56
   2  -6   9  396.54   14.81
  -3   6  -9   50.08    3.58
   3  -6   9   58.56    5.18
   4  -6   9  145.32    7.52
  -4   6  -9  140.09    5.96
  -5   6  -9 1040.95   28.53
   5  -6   9 1029.04   30.10
   5  -6   9 1017.23   36.94
   6  -6   9  150.31   11.64
  -6   6  -9  167.29    7.13
   6  -6   9  153.52    7.99
  -7   6  -9   58.44    4.81
   7  -6   9   64.97    5.57
   7  -6   9   60.50    8.37
  -8   6  -9  399.92   14.67
   8  -6   9  395.71   14.55
   8  -6   9  365.19   19.94
   9  -6   9   77.29   10.94
  -9   6  -9   91.50    7.10
  10  -6   9   58.64   10.25
 -10   6  -9   52.86    6.42
  11  -6   9   46.81   10.74
  12  -6   9   -3.07    7.19
  13  -6   9   17.14   10.37
  14  -6   9    3.09    9.33
  15  -6   9   43.13   12.98
  16  -6   9    6.44   12.30
 -13  -5   9   47.32   10.74
 -12  -5   9   39.99    9.78
 -11  -5   9   -7.06    5.64
 -10  -5   9   -1.95    5.29
  -9  -5   9    3.41    5.70
  -8  -5   9   98.63   10.70
  -7  -5   9  149.66   11.59
  -6  -5   9  834.37   29.94
  -5  -5   9  322.76   15.30
  -4  -5   9  374.91   16.09
  -3  -5   9 1765.77   50.66
  -2  -5   9  149.45    8.39
  -1  -5   9   28.48    3.73
  -1  -5   9   35.43    4.70
   0  -5   9   -0.32    2.56
   0  -5   9    5.57    2.08
   1  -5   9  256.96   10.87
   1  -5   9  241.44    8.74
   2  -5   9  339.50   13.00
   3  -5   9  868.83   26.19
   4  -5   9   23.10    3.37
  -5   5  -9  320.63   10.41
   5  -5   9  332.90   16.44
   5  -5   9  317.69   12.25
   6  -5   9  260.52   10.90
  -6   5  -9  266.29    9.82
   6  -5   9  271.07   14.99
   7  -5   9  190.03    9.36
  -7   5  -9  181.85    8.51
   7  -5   9  198.32   13.27
   8  -5   9  133.58   11.84
  -8   5  -9  135.49    7.95
   8  -5   9  122.24    7.88
   9  -5   9    0.67    5.76
  -9   5  -9   -2.36    2.96
  10  -5   9  121.61   13.13
 -10   5  -9  106.68    8.26
  11  -5   9    8.70    7.88
  12  -5   9    4.31    7.81
  13  -5   9  163.82   16.95
  14  -5   9    0.94    9.53
  15  -5   9    8.19   10.49
  16  -5   9   -1.13   11.30
 -13  -4   9   32.33    9.02
 -12  -4   9   17.49    7.62
 -11  -4   9    6.27    5.92
 -10  -4   9  285.61   17.29
  -9  -4   9  139.19   11.85
  -8  -4   9  641.12   25.78
  -7  -4   9   15.53    5.54
  -6  -4   9  154.59   10.65
  -5  -4   9  817.34   27.94
  -4  -4   9    2.87    2.87
  -3  -4   9    4.93    2.92
  -2  -4   9  413.37   14.69
  -2  -4   9  400.60   15.54
  -1  -4   9  245.55    9.68
  -1  -4   9  242.66   10.83
   0  -4   9    1.99    1.59
   0  -4   9    2.43    2.35
   1  -4   9 4066.66  105.90
   2  -4   9  457.17   15.84
   3  -4   9   13.99    2.97
   4  -4   9  464.49   15.16
   4  -4   9  369.70   17.80
  -5   4  -9  271.38    9.11
   5  -4   9  243.73   10.61
   5  -4   9  268.76   14.16
   6  -4   9  294.62   11.92
  -6   4  -9  299.29   10.90
   6  -4   9  301.67   15.77
   7  -4   9   19.09    5.99
   7  -4   9   22.23    4.01
  -7   4  -9   22.24    3.74
  -8   4  -9  516.30   18.79
   8  -4   9  504.51   24.23
   8  -4   9  540.31   19.13
   9  -4   9   53.30    9.16
   9  -4   9   46.02    6.19
  -9   4  -9   52.11    6.28
  10  -4   9   35.56    9.39
  11  -4   9  182.86   16.58
  12  -4   9    9.27    8.39
  13  -4   9   25.22   11.33
  14  -4   9   16.73   11.09
  15  -4   9   91.22   15.96
  16  -4   9  -15.30    9.99
 -14  -3   9   95.96   13.45
 -13  -3   9   12.22    7.30
 -12  -3   9  167.96   14.27
 -11  -3   9  325.31   19.04
 -10  -3   9  293.06   17.16
  -9  -3   9   76.25    9.27
  -8  -3   9  111.74   10.01
  -7  -3   9  113.11    9.56
  -6  -3   9  106.35    8.58
  -5  -3   9   13.76    4.02
  -4  -3   9 1345.35   39.69
  -4  -3   9 1363.67   40.02
  -3  -3   9   55.82    5.34
  -3  -3   9   52.83    4.94
  -2  -3   9  333.22   12.86
  -2  -3   9  306.51   11.50
  -1  -3   9 3946.19  102.67
  -1  -3   9 3916.64  100.79
   0  -3   9    0.69    2.07
   1  -3   9  259.99   10.66
   2  -3   9   86.02    5.85
   3  -3   9   93.86    6.13
   4  -3   9  449.66   15.51
   4  -3   9  421.21   18.60
   5  -3   9   26.24    5.25
  -5   3  -9   27.24    3.05
   5  -3   9   22.88    3.83
   6  -3   9   54.08    5.41
  -6   3  -9   57.56    5.08
   6  -3   9   60.72    7.60
   7  -3   9    3.56    4.36
  -7   3  -9   -1.29    2.65
   7  -3   9    0.86    3.24
   8  -3   9    0.92    4.82
  -8   3  -9    0.17    3.48
   8  -3   9    2.73    3.93
   9  -3   9    4.16    4.20
   9  -3   9   -1.80    5.26
  -9   3  -9   -4.16    3.56
  10  -3   9   59.68   10.49
  11  -3   9    9.36    8.11
  12  -3   9   24.39   10.84
  13  -3   9  123.76   16.26
  14  -3   9   37.56   12.19
  15  -3   9    2.13   10.22
 -14  -2   9   53.48   10.65
 -13  -2   9  171.65   14.87
 -12  -2   9  203.75   15.21
 -11  -2   9   17.75    7.04
 -10  -2   9    1.54    4.86
  -9  -2   9   81.65    9.17
  -8  -2   9    6.44    4.73
  -7  -2   9  559.40   20.95
  -7  -2   9  570.27   22.12
  -6  -2   9  844.56   28.65
  -6  -2   9  881.76   28.28
  -5  -2   9  209.59   10.88
  -5  -2   9  221.13   10.59
  -4  -2   9  139.87    8.03
  -4  -2   9  137.93    7.74
  -3  -2   9  829.42   26.09
  -3  -2   9  850.82   25.22
  -2  -2   9  447.86   14.28
  -2  -2   9  439.91   15.63
  -1  -2   9  242.27   10.05
  -1  -2   9  229.43    8.04
   0  -2   9    4.25    2.27
   1  -2   9  384.06   13.97
   2  -2   9  110.93    6.64
   3  -2   9   20.79    3.56
   4  -2   9    3.40    2.55
   4  -2   9    0.68    3.02
  -4   2  -9    4.48    2.05
  -5   2  -9  148.65    7.56
   5  -2   9  142.64    8.29
   5  -2   9  143.36   10.01
   6  -2   9   -1.24    2.73
  -6   2  -9    1.95    2.87
   6  -2   9    2.49    3.65
  -7   2  -9   32.63    5.26
   7  -2   9   32.54    5.60
   7  -2   9   29.99    6.86
   8  -2   9  309.36   14.79
  -8   2  -9  314.31   14.44
   8  -2   9  295.05   17.40
   9  -2   9  147.09   13.55
   9  -2   9  140.86   10.82
  10  -2   9   26.36    8.52
  10  -2   9   32.76    6.98
  11  -2   9  174.20   16.52
  12  -2   9   90.86   13.95
  13  -2   9    5.99    9.26
  14  -2   9    9.34   10.46
 -15  -1   9   27.13   10.00
 -14  -1   9   24.66    8.89
 -13  -1   9    9.40    6.86
 -12  -1   9   38.88    8.48
 -11  -1   9   52.44    8.79
 -10  -1   9   15.73    4.81
 -10  -1   9   12.93    5.99
  -9  -1   9   19.66    5.87
  -9  -1   9   19.54    4.47
  -8  -1   9 1470.28   43.58
  -8  -1   9 1418.98   45.02
  -7  -1   9  235.19   12.66
  -7  -1   9  239.37   11.74
  -6  -1   9   14.64    4.01
  -6  -1   9   15.29    3.53
  -5  -1   9 1040.96   30.65
  -5  -1   9  954.61   30.39
  -4  -1   9   23.29    3.51
  -4  -1   9   24.26    3.68
  -3  -1   9   16.82    3.12
  -3  -1   9   13.60    2.73
  -2  -1   9   77.56    5.49
  -2  -1   9   79.50    4.62
  -1  -1   9  372.14   13.57
  -1  -1   9  372.09   11.58
   0  -1   9    1.65    2.16
   1  -1   9  117.86    6.79
   2  -1   9   73.28    5.63
  -3   1  -9  574.35   17.61
   3  -1   9  588.33   19.74
   3  -1   9  599.27   22.38
  -4   1  -9   59.97    5.12
   4  -1   9   66.17    5.94
   4  -1   9   63.58    6.85
  -5   1  -9   56.43    5.32
   5  -1   9   59.45    6.86
   5  -1   9   49.43    5.79
  -6   1  -9  444.83   16.98
   6  -1   9  428.64   17.43
   6  -1   9  433.83   19.89
  -7   1  -9    7.94    4.48
   7  -1   9   11.50    5.26
   7  -1   9    3.42    4.27
   8  -1   9  345.14   16.72
   8  -1   9  379.11   20.01
  -9   1  -9   83.92    8.66
   9  -1   9   80.39    9.01
   9  -1   9   82.91   10.77
  10  -1   9  238.23   18.00
  10  -1   9  254.22   15.39
  11  -1   9    3.01    8.12
  12  -1   9   -4.32    8.47
 -15   0   9   -1.16    7.34
 -14   0   9   37.95   10.02
 -13   0   9  113.67   12.59
 -12   0   9   25.02    7.19
 -11   0   9   90.17   10.18
  -9   0   9  158.44   11.24
  -9   0   9  136.49    8.69
  -8   0   9    2.95    2.68
  -8   0   9    0.59    4.31
  -7   0   9  483.87   17.80
  -7   0   9  481.90   19.08
  -6   0   9  130.41    7.66
  -6   0   9  128.00    8.64
  -5   0   9  325.98   13.09
  -5   0   9  318.32   12.79
  -4   0   9  442.00   15.33
  -4   0   9  431.23   15.43
  -3   0   9  102.46    6.28
  -3   0   9  103.08    5.89
  -2   0   9  125.59    6.02
  -2   0   9  125.92    6.88
  -1   0   9  126.15    5.77
  -1   0   9  123.02    6.83
   0   0   9    2.82    1.68
   0   0   9    3.55    2.06
   1   0   9  338.74   11.48
   1   0   9  346.62   13.39
  -2   0  -9    7.08    2.14
  -2   0  -9    9.72    2.29
   2   0   9    8.64    2.89
   3   0   9   21.89    4.00
  -3   0  -9   20.22    3.04
  -4   0  -9  558.07   18.43
   4   0   9  533.43   19.73
   5   0   9   25.40    5.11
   5   0   9   23.78    4.93
  -5   0  -9   16.99    4.20
  -6   0  -9  399.59   16.69
   6   0   9  412.52   19.17
   6   0   9  420.81   17.71
   7   0   9   34.55    6.54
   7   0   9   43.91    7.52
   8   0   9  228.95   15.66
  -8   0  -9  239.58   13.49
   8   0   9  231.67   14.06
   9   0   9   34.28    9.08
   9   0   9   37.63    7.96
  -9   0  -9   33.22    7.43
  10   0   9   -1.05    5.52
  10   0   9    5.04    7.16
 -15   1   9  111.03   13.81
 -14   1   9   70.58   11.20
 -13   1   9    4.12    5.81
 -12   1   9  136.55   12.07
 -11   1   9   64.68    8.99
 -10   1   9   10.32    5.33
  -9   1   9   95.07    9.10
  -9   1   9   79.44    6.47
  -7   1   9   51.90    5.08
  -7   1   9   62.89    6.80
  -6   1   9  274.75   12.57
  -6   1   9  298.39   11.94
  -5   1   9  259.25   10.88
  -5   1   9  250.78   11.18
  -4   1   9  488.43   16.48
  -4   1   9  463.54   16.41
  -3   1   9   10.20    2.77
  -3   1   9   16.39    3.11
  -2   1   9   70.81    5.18
  -2   1   9   63.17    4.77
  -1   1   9  313.83   11.30
  -1   1   9  332.34   12.58
   0   1   9    1.41    2.05
   0   1   9    0.47    1.99
   1   1   9 1524.40   44.29
   1   1   9 1567.71   42.40
  -2  -1  -9    6.35    2.61
   2   1   9   13.93    3.05
   2   1   9   10.80    3.39
  -2  -1  -9   11.84    2.74
  -3  -1  -9  151.41    7.77
   3   1   9  122.17    8.42
   3   1   9  128.55    8.54
   4   1   9  152.52    9.75
  -4  -1  -9  173.58    9.27
   4   1   9  175.36   10.37
   5   1   9  157.57   10.50
   5   1   9  166.01   10.70
   6   1   9  419.29   18.68
   7   1   9   20.94    6.08
  -7  -1  -9   18.51    5.33
   8   1   9   55.07    8.64
  -8  -1  -9   58.79    8.13
   9   1   9   24.08    7.06
  -9  -1  -9   13.48    6.40
  10   1   9   11.93    6.77
  11   1   9   70.71   10.53
 -16   2   9   62.77   12.40
 -15   2   9   21.58    8.67
 -14   2   9    6.47    6.47
 -13   2   9   61.04   10.03
 -12   2   9    4.18    5.59
 -11   2   9   43.01    7.92
 -10   2   9   15.96    5.35
  -9   2   9   26.12    3.98
  -9   2   9   23.46    5.81
  -8   2   9  410.56   15.29
  -8   2   9  395.14   17.38
  -6   2   9  338.92   13.02
  -6   2   9  327.27   13.94
  -5   2   9   25.70    4.25
  -5   2   9   28.25    3.81
  -4   2   9    2.34    2.19
  -4   2   9    4.26    2.76
  -3   2   9  638.40   20.40
  -3   2   9  631.04   20.66
  -2   2   9   11.13    3.07
  -2   2   9    7.36    2.43
  -1   2   9 1558.17   44.47
  -1   2   9 1575.33   43.31
   0   2   9    4.01    2.63
   0   2   9    1.17    2.57
   1   2   9  311.44   13.23
   1   2   9  289.36   12.18
   2   2   9  120.60    7.40
  -2  -2  -9  113.09    7.08
   2   2   9  120.43    8.45
  -2  -2  -9  115.92    6.92
   3   2   9  380.24   15.62
   3   2   9  370.17   16.13
   4   2   9   40.33    6.52
   4   2   9   51.75    6.24
   5   2   9  269.60   14.28
  -5  -2  -9  268.02   13.05
   5   2   9  258.87   14.38
  -6  -2  -9  176.84   11.09
   6   2   9  167.13   12.04
   7   2   9   24.04    6.74
  -7  -2  -9   23.75    6.49
   8   2   9   98.86   10.96
  -8  -2  -9   95.65   10.47
   9   2   9  119.12   12.11
  -9  -2  -9   92.10   10.85
  10   2   9  180.89   14.87
  11   2   9    7.57    7.82
 -16   3   9    1.39    7.94
 -15   3   9   37.15   10.02
 -14   3   9    8.78    6.61
 -13   3   9   52.20    9.39
 -12   3   9   17.85    6.44
 -11   3   9   17.91    6.20
 -10   3   9  188.80   12.56
  -9   3   9   95.37    6.68
  -9   3   9   83.40    8.90
  -8   3   9  142.94    8.00
  -8   3   9  131.93    9.81
  -7   3   9   14.31    4.37
  -7   3   9   17.44    3.26
  -6   3   9   58.94    6.14
  -6   3   9   43.37    4.36
  -5   3   9  156.64    8.91
  -5   3   9  176.33    8.52
  -4   3   9   67.02    5.89
  -4   3   9   64.80    5.23
  -3   3   9   26.75    4.26
  -3   3   9   28.77    3.96
  -2   3   9    9.80    3.09
  -2   3   9   12.15    3.23
  -1   3   9  311.78   13.01
  -1   3   9  284.53   12.12
   0   3   9    2.13    2.69
   0   3   9    0.87    2.87
   1   3   9  656.65   22.19
   1   3   9  665.58   22.20
   1   3   9  665.15   23.42
   2   3   9   18.97    4.68
  -2  -3  -9   18.42    3.99
  -2  -3  -9   14.94    3.43
   2   3   9   16.24    3.40
  -3  -3  -9  298.68   13.59
   3   3   9  315.17   15.26
  -4  -3  -9  107.53    8.47
   4   3   9  114.29    9.62
  -5  -3  -9  108.25    8.87
   5   3   9  120.43   10.52
   6   3   9   -1.15    4.77
  -6  -3  -9   -1.86    4.44
  -7  -3  -9    8.50    5.55
   7   3   9    0.16    6.05
   8   3   9  357.87   20.10
  -8  -3  -9  372.03   19.54
   9   3   9   19.67    8.25
  10   3   9   21.82    8.59
  11   3   9   14.22    8.33
 -16   4   9   12.16    9.03
 -15   4   9   89.73   12.66
 -14   4   9    9.03    7.25
 -13   4   9   -0.16    5.61
 -12   4   9   42.15    8.35
 -11   4   9   12.12    5.79
 -10   4   9   47.39    7.44
  -9   4   9   -0.97    4.06
  -8   4   9  530.17   18.14
  -8   4   9  506.08   20.49
  -7   4   9    5.04    2.58
  -7   4   9   -2.19    3.51
  -6   4   9    0.84    1.62
  -6   4   9    0.35    3.41
  -5   4   9   49.08    5.73
  -5   4   9   66.84    5.42
  -4   4   9  548.24   19.51
  -4   4   9  545.04   19.01
  -3   4   9  131.10    8.31
  -3   4   9  140.56    8.30
  -2   4   9  116.92    7.76
  -2   4   9  114.46    7.62
  -1   4   9  687.68   22.75
  -1   4   9  664.16   23.44
   0   4   9    0.70    3.42
   0   4   9    0.32    2.71
   1   4   9  215.81   12.10
   1   4   9  217.81   11.20
  -2  -4  -9  136.63    8.80
   2   4   9  133.75   10.07
  -2  -4  -9  137.58    8.85
  -3  -4  -9  420.29   17.70
  -3  -4  -9  426.37   17.31
   3   4   9  426.42   19.24
   4   4   9    9.35    5.18
  -4  -4  -9   11.37    4.79
   5   4   9    7.63    5.25
  -5  -4  -9    5.76    5.20
  -6  -4  -9  162.29   11.99
   6   4   9  145.31   12.87
  -7  -4  -9   -4.95    5.25
   7   4   9    4.92    6.26
   8   4   9   -8.61    5.85
  -8  -4  -9    4.87    6.43
   9   4   9   -4.58    6.86
  10   4   9   -2.51    7.18
  11   4   9   24.69    9.06
 -16   5   9   55.24   12.05
 -15   5   9    8.77    8.02
 -14   5   9   90.57   11.96
 -13   5   9  163.98   13.81
 -12   5   9   11.01    6.31
 -11   5   9   35.32    7.25
 -10   5   9  136.61   10.89
  -9   5   9   44.84    7.02
  -8   5   9    0.19    3.90
  -8   5   9   -0.46    2.33
  -7   5   9   32.40    5.93
  -7   5   9   32.18    4.25
  -6   5   9  305.00   12.62
  -5   5   9   36.95    5.57
  -5   5   9   36.52    4.77
  -4   5   9  176.63    9.43
  -4   5   9  159.88    9.58
  -3   5   9  392.08   15.86
  -3   5   9  388.59   15.86
  -2   5   9   18.53    4.61
  -2   5   9   18.44    4.30
  -1   5   9  227.97   11.95
  -1   5   9  208.95   11.18
   0   5   9    3.26    3.80
   0   5   9   -0.92    3.18
   1   5   9  521.56   21.32
  -2  -5  -9   22.30    5.10
  -2  -5  -9   29.97    5.50
   2   5   9   25.34    5.87
   3   5   9   -1.16    4.30
  -3  -5  -9   -3.12    3.84
  -3  -5  -9   -1.29    3.21
  -4  -5  -9  304.15   16.01
   4   5   9  311.08   17.54
  -5  -5  -9   14.37    6.20
   5   5   9   16.96    6.90
   6   5   9   15.53    7.10
  -6  -5  -9   15.74    6.44
  -7  -5  -9   53.98    9.51
   7   5   9   24.19    8.61
  -8  -5  -9   12.89    8.01
   8   5   9   13.65    7.35
   9   5   9   37.81   10.12
  10   5   9   46.42   11.12
 -16   6   9   -3.74    8.04
 -15   6   9   71.55   11.74
 -14   6   9   26.32    8.00
 -13   6   9   14.20    7.01
 -12   6   9   -5.43    4.78
 -11   6   9   15.27    6.04
 -10   6   9   29.22    6.28
  -9   6   9    3.26    4.56
  -8   6   9  326.14   15.85
  -7   6   9    1.00    4.34
  -7   6   9    5.61    2.79
  -6   6   9  470.77   18.72
  -6   6   9  424.08   16.81
  -5   6   9  172.08   10.69
  -5   6   9  164.03    9.58
  -4   6   9   45.01    6.18
  -4   6   9   53.11    6.26
  -3   6   9  303.73   14.73
  -3   6   9  343.47   15.16
  -2   6   9  135.90    9.63
  -2   6   9  144.55   10.12
  -1   6   9  545.17   20.82
  -1   6   9  496.67   20.93
   0   6   9   -2.83    4.11
   0   6   9   -4.23    4.04
   1   6   9    7.14    4.87
   2   6   9   87.72    9.84
  -2  -6  -9   81.17    8.71
  -2  -6  -9   86.50    8.92
  -3  -6  -9   97.73    9.61
   3   6   9   91.24   10.43
  -3  -6  -9   97.65    9.44
  -4  -6  -9    5.84    5.30
   4   6   9   -0.94    5.70
   5   6   9  246.52   16.74
  -5  -6  -9  250.99   15.96
   6   6   9   12.81    7.17
  -6  -6  -9   17.22    7.25
   7   6   9   39.86    9.76
  -7  -6  -9   61.94   10.40
   8   6   9   89.10   12.75
   9   6   9   14.49    8.78
 -16   7   9   -5.60    7.58
 -15   7   9   17.71    8.85
 -14   7   9    2.40    6.11
 -13   7   9   23.83    7.36
 -12   7   9   13.89    6.39
 -11   7   9  197.10   13.51
 -10   7   9   74.08    9.26
  -9   7   9  158.65   11.56
  -8   7   9  413.73   18.72
  -7   7   9   50.69    5.85
  -7   7   9   50.54    7.28
  -6   7   9  442.28   18.99
  -6   7   9  424.24   17.50
  -5   7   9  279.83   14.33
  -5   7   9  292.59   14.01
  -4   7   9  112.94    9.77
  -4   7   9  118.29    9.16
  -3   7   9  439.82   19.16
  -3   7   9  439.81   18.91
  -2   7   9   22.15    6.01
  -2   7   9   27.80    6.17
  -1   7   9   16.77    5.76
  -1   7   9    9.36    4.96
   0   7   9    9.91    5.28
   0   7   9    2.75    4.84
  -1  -7  -9    2.54    4.52
  -1  -7  -9    9.83    4.62
   1   7   9    4.09    5.43
  -2  -7  -9    7.14    5.15
  -2  -7  -9   12.83    5.26
   2   7   9    8.79    6.09
   3   7   9  713.89   30.05
  -3  -7  -9  722.93   28.78
   4   7   9   11.17    6.74
  -4  -7  -9   11.85    6.53
  -5  -7  -9   22.73    7.79
   5   7   9   41.16    9.16
  -6  -7  -9  164.58   14.52
   6   7   9  187.02   15.90
  -7  -7  -9   17.20    7.95
   7   7   9    4.70    7.54
   8   7   9   24.63   10.35
 -16   8   9   22.51    9.51
 -15   8   9   78.16   12.06
 -14   8   9   -6.90    6.04
 -13   8   9  169.93   13.91
 -12   8   9    3.46    5.79
 -11   8   9    7.83    5.69
 -10   8   9   38.03    7.56
  -9   8   9   69.46    9.01
  -8   8   9  252.11   14.61
  -7   8   9   16.71    6.27
  -7   8   9    6.68    3.18
  -6   8   9  169.22   11.98
  -6   8   9  173.55   10.71
  -5   8   9  131.36   10.33
  -5   8   9  113.91   10.02
  -4   8   9    5.05    5.08
  -4   8   9   12.04    5.11
  -3   8   9   -1.95    4.27
  -3   8   9   -4.31    4.62
  -2   8   9   79.66    9.53
  -2   8   9   96.96    9.86
  -1   8   9    8.10    5.34
  -1   8   9   -0.48    5.21
   0   8   9   -4.27    4.79
   0   8   9   -6.26    4.66
   1   8   9  506.21   23.43
  -1  -8  -9  452.14   21.12
  -1  -8  -9  415.06   20.26
   2   8   9   -0.87    5.80
  -2  -8  -9    3.11    5.26
  -2  -8  -9    2.76    4.95
  -3  -8  -9   74.53   10.02
   3   8   9   86.88   12.03
   4   8   9  229.54   17.18
  -4  -8  -9  237.14   16.25
  -5  -8  -9   -9.42    6.19
   5   8   9   -3.18    7.28
  -6  -8  -9   52.13   10.14
   6   8   9   53.22   11.68
   7   8   9    9.93    8.79
 -16   9   9   -2.19    7.95
 -15   9   9   20.06    8.75
 -14   9   9   -0.97    6.37
 -13   9   9    5.58    6.88
 -12   9   9   33.70    8.18
 -11   9   9  169.09   13.47
 -10   9   9  221.29   14.56
  -9   9   9   48.61    8.84
  -8   9   9   70.07    9.30
  -7   9   9   26.30    6.88
  -6   9   9    8.13    5.25
  -6   9   9   -0.68    5.11
  -5   9   9    7.58    5.77
  -5   9   9    6.28    5.40
  -4   9   9  335.51   17.51
  -4   9   9  340.40   17.82
  -3   9   9  103.37   10.70
  -3   9   9   91.03   10.24
  -2   9   9   10.71    5.94
  -2   9   9    3.02    5.92
  -1   9   9  530.54   23.56
  -1   9   9  497.61   23.99
   0   9   9   -6.80    5.41
  -1  -9  -9   28.09    7.07
   1   9   9   35.60    9.51
  -1  -9  -9   33.76    7.70
  -2  -9  -9   69.10   10.11
   2   9   9   79.35   11.48
  -2  -9  -9   79.13   10.31
   3   9   9   18.39    8.06
  -3  -9  -9   18.66    7.76
  -4  -9  -9   17.43    7.77
   4   9   9   10.96    8.38
   5   9   9   37.70   10.97
  -5  -9  -9   24.56    8.90
  -6  -9  -9   20.66    8.46
 -15  10   9    3.16    7.63
 -14  10   9   17.84    7.62
 -13  10   9   97.22   12.19
 -12  10   9   58.75    9.65
 -11  10   9   -0.93    6.10
 -10  10   9    4.19    5.87
  -9  10   9   27.14    7.79
  -8  10   9   98.43   10.91
  -7  10   9    3.56    6.06
  -6  10   9  162.87   12.80
  -6  10   9  170.67   12.85
  -5  10   9   12.00    6.97
  -5  10   9   18.65    6.76
  -4  10   9    4.15    6.58
  -4  10   9    8.88    6.01
  -3  10   9  713.27   30.01
  -3  10   9  747.28   29.45
  -2  10   9   -3.55    6.26
  -2  10   9    0.69    6.28
  -1  10   9   47.11    9.40
  -1  10   9   29.33    8.93
   0  10   9    6.54    6.85
   0 -10  -9   -6.38    5.97
   0 -10  -9    3.53    5.62
  -1 -10  -9   43.51    9.25
  -1 -10  -9   57.56    9.82
   1  10   9   51.10   10.87
  -2 -10  -9    3.55    6.45
  -2 -10  -9  -10.74    4.81
   2  10   9    8.38    7.56
  -4 -10  -9   27.94    9.06
   4  10   9    7.32    6.77
  -5 -10  -9   46.00   10.88
 -15  11   9   86.20   12.99
 -14  11   9   37.01    9.59
 -13  11   9    3.18    6.78
 -12  11   9    2.06    6.53
 -11  11   9   37.98    8.96
 -10  11   9    6.25    6.48
  -9  11   9   90.57   11.35
  -8  11   9  392.21   20.35
  -7  11   9   -3.55    6.19
  -6  11   9   14.10    7.31
  -6  11   9   37.49    8.84
  -5  11   9  263.36   17.44
  -5  11   9  255.42   16.54
  -4  11   9   15.67    7.58
  -4  11   9   12.88    8.01
  -3  11   9   81.17   11.71
  -3  11   9   75.81   11.22
  -2  11   9   82.16   11.39
  -2  11   9   91.60   11.84
  -1  11   9   39.27    9.76
  -1  11   9   34.82    8.98
   0 -11  -9   -6.43    6.19
   0  11   9   -6.30    6.39
   0 -11  -9    6.26    6.39
  -1 -11  -9  192.32   15.09
  -1 -11  -9  203.83   16.03
   1  11   9  189.66   16.93
  -2 -11  -9   15.03    6.66
   2  11   9    0.03    4.71
  -2 -11  -9    0.13    6.76
  -3 -11  -9   96.76   12.70
  -4 -11  -9    9.24    7.59
 -14  12   9    9.63    7.75
 -13  12   9   66.41   11.16
 -12  12   9    0.77    7.48
 -11  12   9   46.89   10.08
 -10  12   9  168.80   14.25
  -9  12   9   31.03    8.79
  -8  12   9    4.81    7.20
  -7  12   9   48.36    9.79
  -6  12   9   20.99    8.79
  -5  12   9   40.20    9.42
  -5  12   9   43.12    9.95
  -4  12   9  266.78   17.90
  -4  12   9  275.85   18.56
  -3  12   9    7.49    8.05
  -3  12   9    3.88    7.74
  -2  12   9   -5.29    7.16
  -2  12   9    0.69    7.07
   1 -12  -9  202.37   16.89
   1 -12  -9  212.51   16.62
  -1  12   9  187.81   16.69
   0 -12  -9   -1.69    6.07
   0  12   9    2.46    6.80
   0 -12  -9   -7.26    5.37
  -1 -12  -9   55.79   10.94
  -1 -12  -9   39.08    9.76
  -2 -12  -9   20.60    8.93
 -13  13   9   72.59   12.15
 -12  13   9   85.06   12.70
 -11  13   9    3.22    7.88
 -10  13   9   21.89    8.96
  -9  13   9    6.66    8.01
  -8  13   9   20.07    8.88
  -7  13   9   62.62   11.17
  -6  13   9  212.27   16.61
  -5  13   9   -2.24    6.97
  -5  13   9   -4.47    7.10
  -4  13   9   29.91    9.82
  -4  13   9   25.33    9.69
  -3  13   9  215.55   17.42
  -3  13   9  181.87   17.06
  -2  13   9    8.10    7.77
  -2  13   9   -2.84    7.77
   1 -13  -9   75.95   12.08
   1 -13  -9   72.41   11.83
  -1  13   9   64.87   11.87
   0  13   9    4.28    6.49
   0 -13  -9    2.68    7.47
   0 -13  -9   18.94    8.39
 -12  14   9   17.05    9.23
 -11  14   9   38.39   10.66
 -10  14   9   -0.96    8.37
  -9  14   9   45.29   10.89
  -8  14   9  109.38   13.84
  -7  14   9   11.70    8.88
  -6  14   9   61.80   11.66
  -5  14   9   47.65   11.12
  -4  14   9   42.24   11.38
  -4  14   9   28.44    9.76
  -3  14   9   96.21   14.13
  -3  14   9  110.61   14.64
   2 -14  -9    8.98    8.25
   2 -14  -9   -9.15    8.07
  -2  14   9   -2.05    8.40
  -9  15   9   33.15   11.92
  -8  15   9   38.40   11.25
  -7  15   9   16.03   10.39
  -6  15   9   11.00   10.23
   6 -20  10   34.53   12.55
   6 -20  10   32.31   11.48
  -7  20 -10   24.56    8.67
   3 -19  10   -1.24    7.69
   3 -19  10    4.86    7.88
   4 -19  10   96.43   13.99
   4 -19  10   76.43   12.75
   5 -19  10   14.60    8.38
   5 -19  10   10.07    8.88
  -7  19 -10   69.37   10.39
  -8  19 -10   38.06    8.99
   1 -18  10    2.69    7.56
   2 -18  10  234.66   18.08
   2 -18  10  221.14   17.42
   3 -18  10    9.51    7.99
   3 -18  10   12.55    7.80
   4 -18  10    8.85    7.37
   4 -18  10   10.83    7.13
  -6  18 -10    6.86    6.88
  -7  18 -10   76.33   10.36
  -8  18 -10   30.23    7.97
  -1 -17  10   14.49    7.82
   0 -17  10  144.92   15.44
   1 -17  10    0.26    5.87
   2 -17  10   27.48    8.14
   2 -17  10   13.42    6.10
   3 -17  10   69.18   10.76
   3 -17  10   52.41    9.79
   4 -17  10    1.18    5.99
   4 -17  10    6.44    6.34
  -6  17 -10   88.01   10.42
  -7  17 -10   21.10    7.15
  -8  17 -10   -5.98    5.66
  11 -17  10   65.38   11.52
  12 -17  10   12.38    8.81
  13 -17  10    7.86    8.31
  14 -17  10   91.75   15.28
  15 -17  10   35.04   12.48
  -2 -16  10  202.67   16.99
  -1 -16  10    2.32    6.56
   0 -16  10   64.36   10.81
   1 -16  10   10.14    6.35
   1 -16  10   24.19    7.39
   2 -16  10    3.52    5.31
   2 -16  10    7.18    5.46
   3 -16  10   59.05    9.33
   3 -16  10   42.37    8.61
  -5  16 -10   68.19    9.24
  -6  16 -10   69.03    9.34
  -7  16 -10   46.91    8.62
  -8  16 -10    7.69    6.25
  -9  16 -10  102.14   10.56
   9 -16  10  140.58   13.38
  10 -16  10   25.68    8.14
  11 -16  10   24.07    8.21
  12 -16  10  132.36   15.79
  13 -16  10    5.26    7.46
  14 -16  10   29.04   10.96
  15 -16  10    2.66    9.76
  -4 -15  10   82.21   12.88
  -3 -15  10   -6.55    6.06
  -2 -15  10   30.34    8.32
  -1 -15  10   11.79    6.71
   0 -15  10   -1.52    5.01
   1 -15  10    2.68    5.06
   1 -15  10    0.98    5.12
   2 -15  10  170.99   13.04
   2 -15  10  169.87   13.42
   3 -15  10   33.48    7.76
   3 -15  10   31.14    7.37
  -5  15 -10   36.48    7.47
   6 -15  10   11.54    6.25
  -6  15 -10   10.78    5.54
  -7  15 -10  211.94   13.44
   7 -15  10  222.12   16.13
  -8  15 -10   28.83    6.84
   8 -15  10   27.16    7.91
   9 -15  10  116.42   13.09
  -9  15 -10  111.13   10.43
  10 -15  10   20.65    7.68
  11 -15  10   -0.15    5.87
  12 -15  10   51.18   10.91
  13 -15  10   16.84    8.73
  14 -15  10   59.06   12.91
  15 -15  10   10.72    8.93
  -5 -14  10   10.60    7.84
  -4 -14  10    7.01    6.70
  -3 -14  10   50.83    9.73
  -2 -14  10    3.95    6.11
  -1 -14  10   -1.23    4.68
   0 -14  10  122.68   11.91
   1 -14  10    4.16    4.59
   1 -14  10    4.60    4.42
   2 -14  10   95.63   10.07
   2 -14  10   97.67   10.07
   3 -14  10    7.97    4.72
   3 -14  10   10.53    4.78
  -4  14 -10    3.36    4.63
  -5  14 -10  120.31   10.44
   6 -14  10   26.64    7.14
  -6  14 -10   19.36    5.93
  -7  14 -10  161.15   11.25
   7 -14  10  154.28   13.63
   8 -14  10   27.70    7.08
  -8  14 -10   34.88    6.42
  -9  14 -10   17.00    5.75
   9 -14  10   19.04    7.18
  10 -14  10  101.88   12.84
  11 -14  10   86.10   12.40
  12 -14  10   43.13   10.21
  13 -14  10   23.96    8.05
  14 -14  10  154.31   17.71
  15 -14  10   25.68   10.10
  16 -14  10    1.50   10.01
  -6 -13  10   -1.67    6.91
  -5 -13  10   76.32   11.90
  -4 -13  10   -1.26    5.97
  -3 -13  10   40.78    8.86
  -2 -13  10  170.75   13.77
  -1 -13  10    0.11    5.10
   0 -13  10  140.34   11.38
   1 -13  10   35.33    6.73
   1 -13  10   33.40    6.75
   2 -13  10   34.84    6.49
   2 -13  10   36.54    6.27
  -4  13 -10   74.26    8.02
  -5  13 -10   99.87    8.78
   6 -13  10   21.14    5.30
   6 -13  10   20.35    6.89
  -6  13 -10   17.69    5.11
   7 -13  10    1.48    4.53
  -7  13 -10   -1.50    3.99
   8 -13  10   -0.02    4.84
  -8  13 -10    1.64    4.16
  -9  13 -10  185.32   11.56
   9 -13  10  208.75   15.50
  10 -13  10  195.65   15.80
  11 -13  10   70.32   11.46
  12 -13  10   98.88   13.83
  13 -13  10    9.63    8.12
  14 -13  10    7.86    8.47
  15 -13  10   26.80    9.78
  16 -13  10   77.77   16.22
  -7 -12  10   90.44   13.87
  -6 -12  10   11.83    7.68
  -5 -12  10   10.85    6.69
  -4 -12  10  119.22   12.45
  -3 -12  10   35.26    8.20
  -2 -12  10  103.43   11.17
  -1 -12  10   32.73    6.76
   0 -12  10    3.21    4.08
   1 -12  10  141.99   10.49
   1 -12  10  127.81   10.37
   2 -12  10   93.06    8.48
   2 -12  10   97.65    8.99
  -4  12 -10  168.49   10.22
   5 -12  10    5.72    4.38
  -5  12 -10    4.97    3.14
   6 -12  10    8.21    4.56
  -6  12 -10    3.53    3.57
   6 -12  10    4.26    5.04
  -7  12 -10  777.60   27.86
   7 -12  10  988.47   36.78
   8 -12  10   30.94    6.98
  -8  12 -10    5.21    2.76
   9 -12  10   49.93    9.30
  10 -12  10   99.98   12.41
  11 -12  10  386.44   22.95
  12 -12  10    5.51    6.19
  13 -12  10   13.24    7.64
  14 -12  10  169.56   17.11
  15 -12  10   19.52    9.63
  16 -12  10    7.86   10.33
  -8 -11  10   56.69   12.22
  -7 -11  10   68.38   12.19
  -6 -11  10   59.31   10.63
  -5 -11  10   55.05    9.69
  -4 -11  10  302.63   17.88
  -3 -11  10    5.87    4.82
  -2 -11  10   45.59    7.59
  -1 -11  10  151.38   11.01
   0 -11  10   87.28    8.61
   1 -11  10    0.37    3.74
   1 -11  10    6.14    3.85
   2 -11  10  585.88   21.61
   2 -11  10  530.48   20.78
  -3  11 -10   50.13    5.59
  -4  11 -10   11.33    3.69
   5 -11  10  419.57   17.52
   6 -11  10   37.36    5.41
   6 -11  10   37.65    7.52
  -7  11 -10   10.94    3.69
   7 -11  10    3.99    4.85
  -8  11 -10   19.96    4.33
   8 -11  10   27.10    6.85
   9 -11  10  385.87   21.74
  10 -11  10   65.63   10.41
  11 -11  10    2.51    5.94
  12 -11  10   91.93   12.95
  13 -11  10    5.95    6.65
  14 -11  10  121.79   16.15
  15 -11  10    9.82    8.16
  16 -11  10   15.01    9.98
  -9 -10  10    7.10    8.06
  -8 -10  10   29.26    9.86
  -7 -10  10   33.54    9.29
  -6 -10  10   63.35   10.39
  -5 -10  10   34.19    8.15
  -4 -10  10   13.03    5.70
  -3 -10  10   55.44    7.89
  -2 -10  10   99.49    9.30
  -1 -10  10    2.11    3.92
   0 -10  10  160.96   10.19
   1 -10  10  115.70    8.63
   1 -10  10  115.61    8.36
   2 -10  10  133.80    8.63
   2 -10  10  134.31    8.70
  -4  10 -10    9.85    2.69
   4 -10  10   14.01    4.54
   5 -10  10   67.05    6.51
  -5  10 -10   83.16    6.27
   6 -10  10   35.10    4.92
  -6  10 -10   41.93    4.64
   6 -10  10   33.74    7.07
  -7  10 -10  600.63   20.18
   7 -10  10  596.46   26.74
   7 -10  10  579.51   20.02
  -8  10 -10   20.66    3.94
   8 -10  10   23.51    6.91
   9 -10  10  152.50   13.17
  10 -10  10   54.46   10.25
  11 -10  10   22.29    7.66
  12 -10  10  106.33   13.53
  13 -10  10   54.18   11.25
  14 -10  10  156.12   18.49
  15 -10  10   20.48   10.99
  16 -10  10    3.49    7.17
 -10  -9  10    4.79    8.65
  -9  -9  10   10.12    7.60
  -8  -9  10    1.08    6.40
  -7  -9  10   62.36   10.68
  -6  -9  10   14.07    6.98
  -5  -9  10  117.26   11.41
  -4  -9  10   57.97    8.03
  -3  -9  10   24.78    5.74
  -2  -9  10  555.42   22.14
  -1  -9  10  102.30    8.36
   0  -9  10  196.13   10.74
   1  -9  10  133.09    8.10
   1  -9  10  117.17    7.90
   2  -9  10  257.29   11.65
   2  -9  10  256.30   11.49
   3  -9  10   21.82    4.68
  -3   9 -10   24.01    3.62
   4  -9  10  181.94   10.08
  -4   9 -10  192.31    8.99
  -5   9 -10  420.71   15.01
   5  -9  10  422.05   16.06
  -6   9 -10  155.53    7.92
   6  -9  10  156.83   12.23
   6  -9  10  153.32    8.65
  -7   9 -10  560.45   18.55
   7  -9  10  542.49   25.18
   7  -9  10  542.24   18.76
  -8   9 -10    8.91    3.15
   8  -9  10    6.61    4.71
   9  -9  10   30.89    7.90
  10  -9  10   12.45    6.04
  11  -9  10  249.55   18.39
  12  -9  10   73.03   13.25
  13  -9  10   25.77   10.93
  14  -9  10  122.97   17.12
  15  -9  10    8.00   10.21
  16  -9  10  -13.83    7.06
 -11  -8  10    6.76    8.45
 -10  -8  10   11.95    8.21
  -9  -8  10   28.80    9.19
  -8  -8  10   25.08    7.93
  -7  -8  10  198.66   15.00
  -6  -8  10   16.46    6.93
  -5  -8  10  117.64   11.14
  -4  -8  10  165.50   11.70
  -3  -8  10   31.84    6.09
  -2  -8  10  150.43    9.59
  -1  -8  10  134.81    8.85
   0  -8  10  181.07    9.68
   1  -8  10   70.35    5.63
   1  -8  10   60.03    5.43
   2  -8  10  415.44   15.26
   2  -8  10  427.49   17.10
   2  -8  10  434.91   15.20
  -3   8 -10  329.82   11.91
   3  -8  10  319.15   13.82
   4  -8  10   15.28    3.69
  -4   8 -10   12.24    2.51
   5  -8  10  840.92   26.32
  -5   8 -10  842.29   24.82
   6  -8  10   26.63    4.13
   6  -8  10   30.47    6.74
  -6   8 -10   31.23    3.66
   7  -8  10  154.79   12.24
  -7   8 -10  144.94    7.76
   7  -8  10  156.13    8.51
  -8   8 -10   23.01    3.83
   8  -8  10   45.38    7.78
   9  -8  10 1458.70   53.26
  10  -8  10  118.48   13.73
  11  -8  10   38.52    9.95
  12  -8  10   20.54    9.50
  13  -8  10   22.65    9.76
  14  -8  10   11.22   10.07
  15  -8  10   16.22   10.91
  16  -8  10   -0.82    7.94
 -11  -7  10   37.29   10.41
 -10  -7  10   79.49   11.98
  -9  -7  10   84.90   11.62
  -8  -7  10   26.84    7.63
  -7  -7  10  144.84   12.59
  -6  -7  10    6.21    5.22
  -5  -7  10    6.53    4.60
  -4  -7  10   13.97    4.93
  -3  -7  10  445.62   18.31
  -2  -7  10  250.72   12.14
  -1  -7  10   57.17    5.62
   0  -7  10 1476.40   42.06
   1  -7  10   31.22    5.22
   1  -7  10   35.42    3.99
   2  -7  10  120.49    6.47
   2  -7  10  116.50    7.78
   2  -7  10  115.48    6.31
   3  -7  10   34.08    4.68
  -3   7 -10   54.51    4.16
  -4   7 -10  693.91   20.51
   4  -7  10  718.93   22.98
  -5   7 -10  270.42    9.94
   5  -7  10  297.15   11.94
   6  -7  10   39.48    4.72
  -6   7 -10   58.71    4.58
  -7   7 -10 3155.28   81.92
   7  -7  10 3048.35   82.36
   7  -7  10 3166.67   97.70
   8  -7  10   15.79    3.87
  -8   7 -10   27.63    3.78
   8  -7  10   24.49    7.42
   9  -7  10   -1.38    5.90
  10  -7  10   -6.14    6.03
  11  -7  10   16.82    8.06
  12  -7  10   10.96    9.14
  13  -7  10  125.43   16.44
  14  -7  10  119.80   16.78
  15  -7  10   21.99   11.16
  16  -7  10    3.89    8.16
 -12  -6  10   48.68   10.39
 -11  -6  10   17.16    8.17
 -10  -6  10    7.22    6.71
  -9  -6  10   91.69   11.49
  -8  -6  10   21.96    6.98
  -7  -6  10    3.41    4.98
  -6  -6  10    5.89    4.75
  -5  -6  10  401.55   18.43
  -4  -6  10   10.66    4.21
  -3  -6  10   20.48    4.52
  -2  -6  10  410.37   15.91
  -1  -6  10   39.79    4.56
  -1  -6  10   29.17    5.20
   0  -6  10  333.74   12.36
   0  -6  10  324.74   14.17
   1  -6  10  408.68   15.96
   1  -6  10  416.62   13.74
   2  -6  10 2738.26   71.61
   2  -6  10 2801.53   74.39
   2  -6  10 2742.77   70.20
   3  -6  10  179.00    9.01
   4  -6  10    8.60    2.96
   5  -6  10 1304.12   37.67
   5  -6  10 1312.16   45.47
  -6   6 -10  629.71   18.89
   6  -6  10  633.07   20.74
   6  -6  10  647.55   26.82
  -7   6 -10  118.37    6.39
   7  -6  10  123.06   11.32
   7  -6  10  108.55    7.54
   8  -6  10    3.10    5.58
   8  -6  10    6.93    3.48
   9  -6  10  251.77   17.22
  10  -6  10   39.06    9.16
  11  -6  10  314.12   20.86
  12  -6  10  150.20   16.91
  13  -6  10  158.53   17.88
  14  -6  10   -0.37    9.58
  15  -6  10   59.88   14.65
  16  -6  10   40.66   13.88
 -13  -5  10   36.12   10.60
 -12  -5  10   -5.84    6.22
 -11  -5  10   23.00    8.08
 -10  -5  10   14.61    6.72
  -9  -5  10   19.61    6.88
  -8  -5  10    0.60    4.31
  -7  -5  10  996.02   35.24
  -6  -5  10   39.34    6.94
  -5  -5  10   66.43    7.47
  -4  -5  10  165.25    9.89
  -3  -5  10  297.99   13.18
  -2  -5  10  103.33    7.11
  -2  -5  10  106.45    7.52
  -1  -5  10  383.55   13.68
  -1  -5  10  357.41   15.05
   0  -5  10 5602.28  142.87
   0  -5  10 5591.21  144.89
   1  -5  10   26.23    4.13
   2  -5  10  594.04   19.91
   3  -5  10   31.90    4.11
   4  -5  10  163.22    8.49
   5  -5  10  517.04   17.78
   5  -5  10  515.59   22.43
   6  -5  10  212.61   13.61
   6  -5  10  198.37    9.78
  -6   5 -10  216.41    8.16
   7  -5  10  144.30    8.47
  -7   5 -10  156.84    7.64
   7  -5  10  149.16   12.01
   8  -5  10   34.14    8.01
   8  -5  10   28.49    4.61
   9  -5  10  157.46   13.93
   9  -5  10  176.49   10.20
  10  -5  10   97.85   12.76
  11  -5  10  503.56   27.45
  12  -5  10    8.44    9.06
  13  -5  10   23.55   10.59
  14  -5  10   63.16   14.15
  15  -5  10   28.12   12.04
 -13  -4  10    6.62    7.16
 -12  -4  10   90.10   12.26
 -11  -4  10    3.15    5.96
 -10  -4  10  117.65   12.13
  -9  -4  10  177.34   13.19
  -8  -4  10   31.53    6.84
  -7  -4  10   -2.71    3.96
  -6  -4  10   25.21    5.58
  -5  -4  10  398.57   16.96
  -4  -4  10    6.94    3.55
  -4  -4  10    4.98    3.01
  -3  -4  10   47.49    5.02
  -3  -4  10   32.82    4.78
  -2  -4  10 2588.65   69.04
  -2  -4  10 2568.53   70.37
  -1  -4  10   25.57    3.26
  -1  -4  10   24.41    4.06
   0  -4  10   91.02    6.32
   0  -4  10   73.92    4.52
   1  -4  10  201.83    9.47
   2  -4  10  178.07    8.83
   3  -4  10   39.25    4.48
   4  -4  10  518.98   17.91
   5  -4  10   11.88    3.13
   5  -4  10    6.24    3.60
   6  -4  10   28.15    6.14
  -6   4 -10   24.80    3.22
   6  -4  10   26.26    4.24
  -7   4 -10  750.79   23.14
   7  -4  10  730.14   24.09
   7  -4  10  725.99   29.94
   8  -4  10  111.24   11.48
   8  -4  10  130.96    8.81
   9  -4  10  279.46   13.80
   9  -4  10  274.86   17.95
  10  -4  10   43.08    9.87
  11  -4  10   12.03    8.93
  12  -4  10   44.24   11.47
  13  -4  10   51.22   12.74
  14  -4  10   79.17   14.39
  15  -4  10   -5.04    8.71
 -14  -3  10   52.91   11.38
 -13  -3  10    4.55    7.13
 -12  -3  10   25.66    8.60
 -11  -3  10   91.57   11.34
 -10  -3  10  191.28   13.99
  -9  -3  10   42.53    7.98
  -8  -3  10   13.19    5.39
  -7  -3  10  539.31   21.74
  -6  -3  10  112.95    8.97
  -6  -3  10  130.56    8.71
  -5  -3  10  756.88   26.07
  -5  -3  10  786.68   26.14
  -4  -3  10  618.97   21.56
  -4  -3  10  609.63   21.01
  -3  -3  10  174.41    8.68
  -3  -3  10  168.50    9.00
  -2  -3  10  567.95   18.15
  -2  -3  10  590.68   19.89
  -1  -3  10  195.81    9.44
  -1  -3  10  195.46    7.54
   0  -3  10  361.73   13.80
   1  -3  10   48.16    4.80
   2  -3  10  804.65   25.10
   3  -3  10   27.62    3.98
   4  -3  10  587.02   23.47
   4  -3  10  569.33   19.49
  -5   3 -10  367.78   12.61
   5  -3  10  383.39   14.74
   5  -3  10  396.93   18.36
   6  -3  10    0.40    2.91
   6  -3  10    4.48    3.96
  -6   3 -10    1.40    2.45
   7  -3  10  520.96   23.62
  -7   3 -10  523.16   18.57
   7  -3  10  512.42   19.42
   8  -3  10   20.27    5.36
   8  -3  10   24.74    7.29
   9  -3  10   91.14   11.38
   9  -3  10   99.06    9.00
  10  -3  10    4.62    6.91
  11  -3  10   62.01   11.96
  12  -3  10   72.95   13.59
  13  -3  10  129.12   16.68
  14  -3  10   -1.45    9.35
  15  -3  10   23.14   10.97
 -14  -2  10   26.50    8.39
 -13  -2  10   12.25    7.41
 -12  -2  10   40.62    9.11
 -11  -2  10   67.17    9.99
 -10  -2  10   80.94   10.14
 -10  -2  10   92.94    9.26
  -9  -2  10  393.06   19.13
  -9  -2  10  395.75   18.01
  -8  -2  10   23.64    5.10
  -8  -2  10   29.97    6.42
  -7  -2  10  524.40   20.18
  -7  -2  10  515.31   20.71
  -6  -2  10   30.01    5.22
  -6  -2  10   25.67    4.40
  -5  -2  10  259.23   12.30
  -5  -2  10  278.43   12.34
  -4  -2  10   13.25    3.39
  -4  -2  10    4.41    2.37
  -3  -2  10   34.65    3.89
  -3  -2  10   38.71    4.39
  -2  -2  10  159.71    7.07
  -2  -2  10  167.47    8.41
  -1  -2  10   41.24    4.50
  -1  -2  10   41.00    3.36
   0  -2  10 3745.98   98.29
   1  -2  10    7.11    2.82
   2  -2  10  180.68    9.02
   3  -2  10  178.22    8.99
   4  -2  10  714.70   23.04
   4  -2  10  672.77   26.24
   5  -2  10  316.71   13.50
  -5   2 -10  300.84   11.84
   5  -2  10  316.58   15.79
   6  -2  10  242.32   12.10
  -6   2 -10  257.98   11.42
   6  -2  10  236.82   14.10
   7  -2  10  200.26   13.50
  -7   2 -10  196.54   10.55
   7  -2  10  184.66   11.03
   8  -2  10    4.36    5.48
   8  -2  10    6.08    4.48
   9  -2  10   34.27    6.70
   9  -2  10   26.81    8.14
  10  -2  10  189.72   13.10
  10  -2  10  163.81   15.02
  11  -2  10  220.28   18.39
  12  -2  10   24.26   10.44
  13  -2  10   21.98   11.05
 -15  -1  10    5.05    8.95
 -14  -1  10   54.69   10.96
 -13  -1  10    6.72    7.04
 -12  -1  10   87.52   11.13
 -11  -1  10  275.35   16.47
 -10  -1  10   58.95    8.72
 -10  -1  10   66.92    7.86
  -9  -1  10  151.34    9.60
  -9  -1  10  111.66   10.11
  -8  -1  10   11.90    3.92
  -8  -1  10    7.31    4.61
  -7  -1  10  142.68    9.79
  -7  -1  10  136.76    8.70
  -6  -1  10   27.10    4.33
  -6  -1  10   31.52    5.16
  -5  -1  10 1278.85   37.39
  -5  -1  10 1244.77   37.34
  -4  -1  10  150.65    7.89
  -4  -1  10  143.48    8.17
  -3  -1  10   33.28    3.68
  -3  -1  10   27.77    3.76
  -2  -1  10  823.58   23.55
  -2  -1  10  805.05   25.47
  -1  -1  10    3.20    1.73
  -1  -1  10    6.71    2.44
   0  -1  10  950.15   28.80
   1  -1  10  161.29    8.44
   2  -1  10   25.63    4.15
  -3   1 -10   41.88    3.73
   3  -1  10   46.51    5.17
   3  -1  10   49.30    6.02
  -4   1 -10  318.15   12.11
   4  -1  10  334.27   15.54
   4  -1  10  320.82   13.75
   5  -1  10   60.64    6.42
  -5   1 -10   49.99    5.29
   5  -1  10   54.41    6.96
  -6   1 -10  474.73   17.74
   6  -1  10  440.72   18.38
   6  -1  10  470.28   21.32
   7  -1  10   57.16    7.22
   7  -1  10   58.11    8.50
  -7   1 -10   71.52    7.41
   8  -1  10   15.66    5.69
   8  -1  10   18.28    7.11
   9  -1  10  769.06   33.40
   9  -1  10  777.87   29.18
  10  -1  10    4.04    7.65
  10  -1  10   -6.27    5.29
  11  -1  10    1.46    8.02
 -15   0  10   -2.40    7.11
 -14   0  10  117.33   13.71
 -13   0  10    3.06    6.11
 -12   0  10   17.82    6.97
 -11   0  10    3.75    5.57
 -10   0  10   55.39    8.38
  -9   0  10   13.53    5.63
  -9   0  10   31.03    4.82
  -8   0  10   13.09    5.16
  -8   0  10   22.47    4.10
  -7   0  10 2946.81   82.49
  -7   0  10 3054.59   81.38
  -6   0  10  644.51   22.92
  -6   0  10  698.13   22.88
  -5   0  10  500.35   18.00
  -5   0  10  519.90   18.10
  -4   0  10  486.62   17.29
  -4   0  10  484.93   16.70
  -3   0  10   26.25    3.74
  -3   0  10   26.35    3.54
  -2   0  10  187.19    8.97
  -2   0  10  168.22    7.57
  -1   0  10  146.58    6.79
  -1   0  10  166.54    8.29
   0   0  10    0.98    2.00
   0   0  10    0.13    1.78
   1   0  10    2.88    2.08
   1   0  10    3.40    2.72
  -2   0 -10  968.88   28.01
  -2   0 -10  974.15   27.45
   2   0  10 1019.59   30.61
  -3   0 -10   35.93    3.95
   3   0  10   45.29    5.54
   4   0  10  159.26    9.84
  -4   0 -10  155.01    8.27
  -5   0 -10   35.20    5.12
   5   0  10   35.82    5.83
   5   0  10   14.83    4.36
   6   0  10  144.34   10.37
  -6   0 -10  132.37    9.41
   6   0  10  138.19   10.57
   7   0  10  814.25   31.92
   7   0  10  804.77   28.90
  -7   0 -10  746.59   27.24
   8   0  10   70.82   10.00
   8   0  10   62.44    8.73
   9   0  10   27.22    7.31
   9   0  10   10.00    6.97
  10   0  10   21.85    7.41
 -15   1  10    9.15    7.51
 -14   1  10    8.44    7.44
 -13   1  10    7.54    6.81
 -12   1  10   78.44   10.40
 -11   1  10   30.40    7.14
 -10   1  10    5.89    5.03
  -9   1  10 1472.27   46.22
  -8   1  10   17.97    3.76
  -8   1  10   22.33    5.54
  -7   1  10  103.06    8.72
  -7   1  10  113.06    7.44
  -6   1  10  212.59   10.19
  -6   1  10  204.25   10.71
  -5   1  10   11.21    2.93
  -5   1  10    4.11    3.14
  -4   1  10  603.54   20.32
  -4   1  10  621.26   20.16
  -3   1  10  172.85    8.72
  -3   1  10  185.33    8.53
  -2   1  10   21.26    3.26
  -2   1  10   24.80    3.72
  -1   1  10    3.03    2.16
  -1   1  10    3.14    2.16
   0   1  10 1263.84   35.33
   0   1  10 1279.12   37.45
   1   1  10   81.99    6.02
   1   1  10   89.26    7.03
  -2  -1 -10 1539.39   43.69
  -2  -1 -10 1573.50   42.96
   2   1  10 1557.24   45.78
   2   1  10 1607.08   49.20
   3   1  10  116.38    8.56
  -3  -1 -10  119.58    7.23
   3   1  10  133.01    8.71
   4   1  10   23.81    4.77
  -4  -1 -10   22.40    4.15
   4   1  10   22.15    5.11
  -5  -1 -10  391.86   15.60
   5   1  10  332.33   16.27
   5   1  10  340.31   16.77
   6   1  10  288.09   15.94
   6   1  10  281.37   15.06
   7   1  10    4.41    5.01
  -7  -1 -10   -0.42    3.40
   8   1  10   67.65    9.53
   9   1  10   -2.60    6.00
  10   1  10  103.47   11.99
  11   1  10  292.03   18.91
 -15   2  10   12.37    7.97
 -14   2  10   93.99   12.30
 -13   2  10   14.05    6.77
 -12   2  10   94.21   10.82
 -11   2  10  257.49   15.59
 -10   2  10  108.10   10.02
  -9   2  10   -0.74    2.48
  -9   2  10    1.09    4.68
  -8   2  10    2.02    1.68
  -8   2  10    2.51    3.98
  -7   2  10  155.67    8.42
  -7   2  10  148.89    9.94
  -6   2  10   22.20    3.72
  -6   2  10   23.16    4.56
  -5   2  10  366.66   14.38
  -5   2  10  398.05   15.02
  -4   2  10  733.09   23.34
  -4   2  10  716.01   23.41
  -3   2  10   49.25    4.95
  -3   2  10   45.59    4.87
  -2   2  10 1041.44   32.03
  -2   2  10 1072.16   30.99
  -1   2  10   59.79    5.40
  -1   2  10   66.38    5.73
   0   2  10 3899.27  104.36
   0   2  10 3954.86  102.47
   1   2  10   35.87    4.89
   1   2  10   38.43    5.20
   2   2  10   12.63    3.30
   2   2  10    9.38    4.23
  -2  -2 -10   13.41    3.33
  -2  -2 -10    9.55    3.34
  -3  -2 -10  595.68   20.50
   3   2  10  574.31   21.89
   3   2  10  573.76   22.08
   4   2  10  421.63   18.43
  -5  -2 -10    4.66    2.25
   5   2  10    0.12    4.43
   6   2  10  114.89   10.87
  -6  -2 -10  146.48   10.00
  -7  -2 -10    2.79    4.90
   7   2  10   -5.84    5.26
   8   2  10  173.74   13.92
   9   2  10  274.28   17.79
  10   2  10   73.93   11.38
  11   2  10   76.54   11.59
 -16   3  10   65.85   12.47
 -15   3  10    3.48    7.33
 -14   3  10   98.79   12.59
 -13   3  10   38.71    8.61
 -12   3  10   80.06   10.18
 -11   3  10   29.40    7.34
 -10   3  10    6.47    5.20
  -9   3  10  263.67   11.75
  -9   3  10  236.87   13.86
  -8   3  10   36.04    4.62
  -8   3  10   42.17    6.45
  -7   3  10  775.47   26.63
  -6   3  10   -0.90    3.12
  -6   3  10    6.11    2.49
  -5   3  10  333.82   14.11
  -5   3  10  351.43   13.82
  -4   3  10  360.98   14.13
  -4   3  10  349.74   14.39
  -3   3  10   45.08    5.17
  -3   3  10   35.77    4.70
  -2   3  10 1494.72   43.31
  -2   3  10 1563.85   44.48
  -1   3  10   50.69    5.68
  -1   3  10   31.48    4.67
   0   3  10   73.09    6.56
   0   3  10   89.65    7.04
   1   3  10   35.06    5.24
   1   3  10   50.19    6.17
  -3  -3 -10    6.41    2.65
   3   3  10   15.60    5.22
   4   3  10  567.17   23.49
  -4  -3 -10  598.58   22.16
   5   3  10    1.41    5.15
  -5  -3 -10    5.85    4.33
   6   3  10   14.61    6.23
  -6  -3 -10   15.50    5.52
  -7  -3 -10  186.60   13.38
   7   3  10  231.95   15.50
   8   3  10   70.87   10.65
   9   3  10   98.73   12.17
  10   3  10   79.56   12.11
  11   3  10   24.27    9.72
 -16   4  10   12.14    8.51
 -15   4  10   -5.33    7.06
 -14   4  10  104.41   13.10
 -13   4  10    7.55    6.55
 -12   4  10   23.89    7.40
 -11   4  10    6.82    5.45
 -10   4  10   52.27    7.86
  -9   4  10  158.17   11.33
  -8   4  10  134.12    7.96
  -8   4  10  122.25    9.49
  -7   4  10  531.73   20.42
  -6   4  10  269.98   11.77
  -6   4  10  251.71   12.69
  -5   4  10   55.20    5.51
  -5   4  10   55.36    6.58
  -4   4  10  159.57    8.91
  -4   4  10  142.11    9.06
  -3   4  10  157.26    9.22
  -3   4  10  153.37    9.10
  -2   4  10    6.21    3.71
  -2   4  10    7.27    3.22
  -1   4  10   50.30    5.83
  -1   4  10   38.26    5.55
   0   4  10    3.85    3.94
   0   4  10   12.26    4.52
   1   4  10   38.40    6.39
   1   4  10   46.86    5.98
  -2  -4 -10  832.42   28.33
   2   4  10  832.45   29.97
  -2  -4 -10  863.48   28.13
  -3  -4 -10    7.52    3.59
   3   4  10    0.60    4.37
  -4  -4 -10   17.38    5.21
   4   4  10   15.16    5.80
  -5  -4 -10  672.23   26.43
   5   4  10  690.29   28.11
  -6  -4 -10   20.32    6.65
   6   4  10   22.51    7.94
   7   4  10    6.01    6.85
   8   4  10    9.02    7.40
   9   4  10   26.68    9.11
  10   4  10   16.79    8.97
  11   4  10   -9.72    8.38
 -16   5  10   13.19    8.90
 -15   5  10   16.79    8.38
 -14   5  10   87.92   12.45
 -13   5  10    9.22    6.83
 -12   5  10    9.40    6.12
 -11   5  10  321.89   17.55
 -10   5  10   83.49    9.19
  -9   5  10  249.73   13.92
  -8   5  10   20.08    5.49
  -8   5  10   19.23    3.94
  -7   5  10  194.61   11.72
  -6   5  10  471.02   17.71
  -6   5  10  462.51   18.90
  -5   5  10   43.47    6.24
  -5   5  10   43.26    5.61
  -4   5  10   21.35    4.44
  -4   5  10   18.29    4.89
  -3   5  10  618.84   22.04
  -3   5  10  607.27   22.13
  -2   5  10  106.55    8.40
  -2   5  10  104.31    8.44
  -1   5  10   37.19    6.18
  -1   5  10   39.64    6.09
   0   5  10 1252.10   38.76
   0   5  10 1233.99   40.03
   1   5  10  102.81    9.56
  -2  -5 -10   -1.82    3.95
  -2  -5 -10    0.80    4.25
   2   5  10   -1.77    4.13
  -3  -5 -10  556.23   22.67
   3   5  10  561.02   24.04
   4   5  10   46.87    8.80
  -4  -5 -10   48.26    7.54
   5   5  10   26.26    7.89
  -5  -5 -10   32.69    7.18
  -6  -5 -10   82.64   10.24
   6   5  10   61.22   10.25
   7   5  10  117.18   13.31
   8   5  10   21.47    8.79
   9   5  10    0.97    8.32
  10   5  10   23.78   10.48
 -16   6  10   80.04   13.13
 -15   6  10   16.93    8.25
 -14   6  10   -8.73    6.67
 -13   6  10  108.59   12.25
 -12   6  10  126.83   11.82
 -11   6  10  404.61   19.81
 -10   6  10   30.17    7.04
  -9   6  10   92.66    9.53
  -8   6  10    7.12    5.02
  -7   6  10   75.88    8.36
  -6   6  10  141.58   10.36
  -6   6  10  160.85    9.37
  -5   6  10  395.83   16.51
  -5   6  10  389.66   17.25
  -4   6  10  466.06   18.51
  -4   6  10  411.36   17.92
  -3   6  10   15.03    4.83
  -3   6  10    9.23    5.05
  -2   6  10  870.51   29.18
  -2   6  10  823.23   29.62
  -1   6  10  110.39    9.29
  -1   6  10   94.95    9.50
   0   6  10   33.37    6.43
   0   6  10   34.87    6.91
  -1  -6 -10   86.73    8.85
  -1  -6 -10   77.53    8.41
   1   6  10   92.34    9.87
   2   6  10    4.00    5.37
  -2  -6 -10    1.20    4.56
  -2  -6 -10    0.77    4.23
   3   6  10   13.34    6.23
  -3  -6 -10   26.54    6.42
  -4  -6 -10  167.18   12.52
   4   6  10  141.39   13.19
  -5  -6 -10   67.03    9.73
   5   6  10   81.84   11.43
   6   6  10   84.32   11.80
  -6  -6 -10   84.16   10.90
   7   6  10   93.78   13.15
   8   6  10   21.89    9.13
 -16   7  10   22.13   10.14
 -15   7  10   12.54    7.89
 -14   7  10   94.42   12.57
 -13   7  10  129.30   12.81
 -12   7  10   -3.42    5.27
 -11   7  10    9.75    6.10
 -10   7  10   -0.62    4.94
  -9   7  10   33.42    6.97
  -8   7  10   32.49    6.81
  -7   7  10  825.33   29.75
  -6   7  10  287.81   14.15
  -6   7  10  294.99   15.26
  -5   7  10    0.14    3.97
  -5   7  10    0.94    4.79
  -4   7  10  642.40   24.20
  -4   7  10  594.44   23.69
  -3   7  10  -11.40    4.16
  -3   7  10    5.12    4.53
  -2   7  10   -1.18    4.24
  -2   7  10    4.21    4.68
  -1   7  10   89.88    9.85
  -1   7  10   85.86    9.23
   0   7  10   22.64    6.75
   0   7  10   32.29    7.33
   1   7  10   33.58    8.10
  -1  -7 -10   48.36    7.74
  -1  -7 -10   29.62    6.76
  -2  -7 -10  375.90   18.77
   2   7  10  367.19   19.97
  -2  -7 -10  395.27   18.70
   3   7  10   91.32   12.06
  -3  -7 -10  107.59   10.85
  -4  -7 -10  163.41   13.47
   4   7  10  185.88   15.07
  -5  -7 -10   81.74   10.88
   5   7  10   89.30   12.48
   6   7  10    7.81    8.02
   7   7  10   40.05   10.58
 -16   8  10   61.28   12.40
 -15   8  10   11.21    7.86
 -14   8  10    9.05    7.41
 -13   8  10   21.06    8.07
 -12   8  10   37.46    8.74
 -11   8  10   52.17    8.85
 -10   8  10  169.68   13.01
  -9   8  10  779.57   29.70
  -8   8  10   63.78    9.04
  -7   8  10    2.84    5.39
  -7   8  10    8.74    3.46
  -6   8  10  129.02   10.48
  -6   8  10  129.84   10.47
  -5   8  10    1.16    5.17
  -5   8  10    0.29    4.62
  -4   8  10   10.83    5.61
  -4   8  10   16.03    5.73
  -3   8  10  610.96   25.02
  -3   8  10  598.59   24.25
  -2   8  10    0.64    5.51
  -2   8  10    8.07    5.36
  -1   8  10   29.65    7.61
  -1   8  10   33.27    7.75
   0   8  10  364.03   18.30
   0   8  10  370.88   19.72
  -1  -8 -10   18.75    6.31
  -1  -8 -10   19.56    6.10
   1   8  10   14.10    7.25
   2   8  10  141.88   14.14
  -2  -8 -10  146.60   11.87
  -2  -8 -10  154.02   12.50
  -3  -8 -10   70.21    9.91
   3   8  10   47.57    9.77
  -4  -8 -10   -9.55    5.78
   4   8  10   -5.60    6.45
   5   8  10  102.64   13.79
  -5  -8 -10   95.31   12.41
   6   8  10   -0.65    7.52
 -15   9  10   53.94   11.12
 -14   9  10   49.85   10.25
 -13   9  10   66.53   10.71
 -12   9  10   59.37    9.75
 -11   9  10  277.23   17.02
 -10   9  10   -0.04    5.51
  -9   9  10   28.27    7.49
  -8   9  10   75.61    9.87
  -7   9  10   -3.59    4.91
  -6   9  10   12.67    6.03
  -6   9  10    7.25    5.45
  -5   9  10  742.97   28.83
  -5   9  10  734.41   28.50
  -4   9  10   42.78    8.09
  -4   9  10   48.22    8.79
  -3   9  10   32.59    7.90
  -3   9  10   28.21    7.72
  -2   9  10  435.73   21.23
  -2   9  10  436.10   21.89
  -1   9  10   13.85    7.23
  -1   9  10    4.22    6.20
   0   9  10   59.54   10.76
  -1  -9 -10   17.72    7.02
   1   9  10   16.91    7.29
  -1  -9 -10    8.85    6.16
  -2  -9 -10   75.17   10.43
  -2  -9 -10   79.54   10.75
   2   9  10   65.43   11.39
   3   9  10   64.49   11.77
  -3  -9 -10   52.70    9.75
   4   9  10   40.05   10.81
  -4  -9 -10   32.63    9.06
   5   9  10   47.56   11.86
 -15  10  10   34.29   10.00
 -14  10  10   66.13   11.66
 -13  10  10  103.95   13.01
 -12  10  10   26.78    8.08
 -11  10  10    4.38    6.34
 -10  10  10   22.63    7.95
  -9  10  10    0.16    6.03
  -8  10  10  159.94   12.78
  -7  10  10  222.64   14.86
  -6  10  10   21.81    7.10
  -6  10  10   37.04    8.57
  -5  10  10   42.24    9.11
  -5  10  10   39.40    8.75
  -4  10  10  168.10   13.79
  -4  10  10  154.00   13.19
  -3  10  10   99.45   12.03
  -3  10  10  110.56   12.10
  -2  10  10  172.68   14.28
  -2  10  10  141.56   13.20
  -1  10  10    6.64    7.03
  -1  10  10    5.97    7.13
   0 -10 -10   99.65   12.00
   0 -10 -10  130.52   12.95
   0  10  10   91.67   12.86
  -1 -10 -10   -3.00    5.76
  -1 -10 -10    8.52    6.62
   1  10  10    3.36    7.28
  -2 -10 -10   25.39    8.45
   2  10  10    7.83    8.44
  -2 -10 -10   30.31    8.46
  -3 -10 -10   12.22    7.81
   3  10  10    0.01    5.01
  -4 -10 -10   19.16    8.45
 -15  11  10    7.32    9.22
 -14  11  10   15.25    8.26
 -13  11  10   17.23    8.22
 -12  11  10   73.39   11.45
 -11  11  10    5.72    7.07
 -10  11  10   84.64   11.41
  -9  11  10  291.76   17.65
  -8  11  10   63.25   10.40
  -7  11  10    6.99    7.51
  -6  11  10  100.96   12.13
  -5  11  10   86.19   11.73
  -5  11  10   90.21   11.64
  -4  11  10  207.69   16.21
  -4  11  10  203.86   15.28
  -3  11  10   45.58   10.22
  -3  11  10   37.13    9.46
  -2  11  10   78.11   11.91
  -2  11  10   84.18   12.44
  -1  11  10    3.80    7.33
   0  11  10    6.69    9.17
   0 -11 -10   13.24    8.00
   0 -11 -10   10.98    7.58
  -1 -11 -10   56.71   10.31
  -1 -11 -10   35.25    8.62
  -2 -11 -10   69.41   11.61
  -3 -11 -10   11.49    8.08
 -14  12  10   76.12   12.77
 -13  12  10    6.96    7.81
 -12  12  10   53.44   11.01
 -11  12  10  250.71   17.77
 -10  12  10   81.68   11.57
  -9  12  10   84.81   11.89
  -8  12  10    3.42    6.99
  -7  12  10  132.46   13.99
  -6  12  10   98.60   12.53
  -5  12  10  100.94   12.73
  -5  12  10   96.27   12.81
  -4  12  10    0.02    7.33
  -4  12  10    6.75    8.30
  -3  12  10   59.10   11.72
  -3  12  10   76.20   11.91
  -2  12  10   17.85    9.06
  -2  12  10   28.42    9.68
  -1  12  10   61.32   11.27
   1 -12 -10   40.61   10.43
   1 -12 -10   65.77   10.71
   0 -12 -10   72.93   11.29
   0 -12 -10   86.05   12.35
  -1 -12 -10    7.04    7.09
  -1 -12 -10   17.52    7.23
  -2 -12 -10   14.62    8.34
 -13  13  10   23.27   10.01
 -12  13  10   67.42   12.24
 -11  13  10   93.72   13.28
 -10  13  10   84.33   12.34
  -9  13  10   22.08    8.90
  -8  13  10   35.59   10.17
  -7  13  10  102.98   13.68
  -6  13  10   -4.40    7.58
  -5  13  10  134.28   14.97
  -4  13  10   33.54   10.41
  -4  13  10   34.84   10.54
  -3  13  10   13.93    9.06
  -3  13  10    9.53    8.54
  -2  13  10   57.61   12.37
   1 -13 -10   24.88    8.65
  -1  13  10    3.78    8.16
   1 -13 -10   -1.28    7.50
   0 -13 -10   -1.35    7.18
   0 -13 -10    5.97    8.04
 -11  14  10   24.17   10.37
 -10  14  10   -3.45    8.72
  -9  14  10   13.10    9.26
  -8  14  10   41.92   10.93
  -7  14  10   88.49   13.48
  -6  14  10    3.45    8.89
  -5  14  10   61.69   12.86
  -4  14  10   41.87   11.96
  -4  14  10   30.08   10.00
  -3  14  10    8.76   10.23
  -3  14  10   14.54    9.56
   5 -20  11   14.02   10.29
   3 -19  11   18.91    8.78
   3 -19  11   13.89    8.80
   4 -19  11   40.64   10.44
   4 -19  11   31.19    9.97
   5 -19  11    8.70    8.25
   5 -19  11   -2.06    6.88
   1 -18  11    7.19    8.27
   2 -18  11    9.08    7.28
   2 -18  11   20.24    8.06
   3 -18  11   17.80    7.87
   3 -18  11   12.27    7.16
   4 -18  11    4.80    6.62
   4 -18  11    1.45    6.12
   5 -18  11    2.58    7.18
   5 -18  11   12.87    8.04
  -6  18 -11   67.77    9.64
  14 -18  11   35.92   12.22
  -1 -17  11   27.19    9.40
   0 -17  11   -4.97    6.28
   1 -17  11   40.25    9.17
   2 -17  11   -0.12    6.02
   2 -17  11    5.44    6.30
   3 -17  11   53.04   10.07
   3 -17  11   59.16    9.95
   4 -17  11   39.86    8.97
   4 -17  11   64.51   10.08
  -6  17 -11  145.15   12.83
  10 -17  11   43.67   10.03
  11 -17  11    3.09    8.09
  12 -17  11   46.97   11.61
  13 -17  11  166.46   18.56
  14 -17  11   90.11   15.38
  15 -17  11   -4.72    9.97
  -2 -16  11   10.55    8.38
  -1 -16  11   46.40    9.75
   0 -16  11   11.01    6.95
   1 -16  11  103.15   12.05
   2 -16  11   49.33    9.14
   2 -16  11   54.85    8.98
   3 -16  11    2.29    5.89
   3 -16  11    8.07    5.88
   4 -16  11   73.54   10.02
   4 -16  11   46.89    8.54
  -5  16 -11   15.01    6.52
  -6  16 -11   22.79    7.05
   7 -16  11    3.87    6.10
   8 -16  11   14.41    6.79
   9 -16  11    7.00    6.43
  10 -16  11  141.20   14.64
  11 -16  11  149.63   15.45
  12 -16  11   50.48   11.41
  13 -16  11   16.07    8.50
  14 -16  11   29.61   10.73
  15 -16  11   64.84   15.14
  -4 -15  11   22.05    9.35
  -3 -15  11   17.01    8.05
  -2 -15  11   10.75    7.21
  -1 -15  11   77.91   10.96
   0 -15  11    1.17    4.92
   1 -15  11   56.99    9.28
   2 -15  11    5.06    5.06
   2 -15  11   11.01    5.63
   3 -15  11   34.98    7.30
   3 -15  11   25.34    6.91
  -5  15 -11   28.08    6.67
  -6  15 -11    2.83    5.04
   6 -15  11    7.40    6.00
   7 -15  11   23.18    7.99
  -7  15 -11   27.71    6.71
   8 -15  11  178.61   15.11
   9 -15  11   18.20    6.98
  10 -15  11  302.00   20.25
  11 -15  11   24.45    8.75
  12 -15  11    5.82    7.85
  13 -15  11   39.96    9.94
  14 -15  11   12.18    8.49
  15 -15  11   57.48   12.78
  -5 -14  11   16.36    8.19
  -4 -14  11    7.83    7.41
  -3 -14  11   66.79   10.75
  -2 -14  11   51.83    9.37
  -1 -14  11   75.22   10.09
   0 -14  11   -2.22    5.08
   1 -14  11   38.10    7.37
   1 -14  11   45.47    8.09
   2 -14  11   24.58    6.54
   2 -14  11   35.21    6.89
   3 -14  11  226.63   14.09
   3 -14  11  245.62   14.31
  -5  14 -11   71.49    8.47
   6 -14  11  453.86   24.19
  -6  14 -11  441.86   19.33
  -7  14 -11   11.73    5.03
   7 -14  11   12.27    6.18
   8 -14  11  319.24   20.37
   9 -14  11   18.37    7.21
  10 -14  11    4.12    5.78
  11 -14  11   47.56   11.14
  12 -14  11   21.52    8.76
  13 -14  11   20.68    8.96
  14 -14  11   26.59    9.89
  15 -14  11  110.92   17.28
  -6 -13  11   31.89    9.94
  -5 -13  11   26.75    8.53
  -4 -13  11   66.99   10.73
  -3 -13  11   11.44    5.93
  -2 -13  11   12.04    5.81
  -1 -13  11   36.16    7.50
   0 -13  11    4.80    4.79
   1 -13  11   97.71    9.66
   1 -13  11   90.12    9.41
   2 -13  11  137.65   10.79
   2 -13  11  138.41   10.58
   3 -13  11   54.31    7.51
   3 -13  11   59.75    7.57
  -4  13 -11   27.12    5.69
   5 -13  11    6.95    4.61
  -5  13 -11   -0.86    3.92
   6 -13  11  230.90   13.17
  -6  13 -11  236.47   12.56
   6 -13  11  232.29   16.13
   7 -13  11   23.56    7.43
   8 -13  11   11.17    6.10
   9 -13  11    0.54    5.57
  10 -13  11  153.99   14.52
  11 -13  11   11.15    7.39
  12 -13  11  253.42   19.63
  13 -13  11   41.33   10.30
  14 -13  11   72.36   13.73
  15 -13  11  108.10   16.47
  -7 -12  11    1.31    7.36
  -6 -12  11   68.74   11.69
  -5 -12  11    8.19    6.63
  -4 -12  11   53.53    9.14
  -3 -12  11   22.84    6.83
  -2 -12  11   24.83    6.83
  -1 -12  11   98.27   10.04
   0 -12  11   14.13    4.97
   1 -12  11   44.55    6.69
   1 -12  11   38.11    6.32
   2 -12  11    7.57    3.94
   2 -12  11    0.84    3.57
  -4  12 -11   98.96    7.95
  -5  12 -11    0.81    2.11
   5 -12  11    7.69    4.38
   6 -12  11  390.46   21.24
   6 -12  11  366.77   16.24
   7 -12  11   53.18    9.00
   8 -12  11   74.52   10.71
   9 -12  11  152.01   13.54
  10 -12  11  594.88   29.46
  11 -12  11   51.45   10.54
  12 -12  11   73.62   12.58
  13 -12  11   31.13    9.99
  14 -12  11   44.46   11.68
  15 -12  11   14.37    9.15
  16 -12  11    5.54   10.87
  -8 -11  11   12.78    7.90
  -7 -11  11    9.93    7.90
  -6 -11  11  125.12   13.69
  -5 -11  11   14.96    7.03
  -4 -11  11   11.77    5.99
  -3 -11  11  221.69   14.45
  -2 -11  11  112.90   10.25
  -1 -11  11   54.38    7.58
   0 -11  11   -1.39    3.36
   1 -11  11    9.88    3.98
   1 -11  11    4.35    3.63
   2 -11  11   31.62    5.26
   2 -11  11   34.12    5.51
   4 -11  11    6.75    4.04
  -4  11 -11    6.48    2.43
  -5  11 -11  361.17   14.47
   5 -11  11  342.79   15.59
   6 -11  11  108.28   10.79
   6 -11  11  100.15    8.08
  -6  11 -11  110.10    7.45
   7 -11  11   80.91   10.25
   8 -11  11 1231.28   46.92
   9 -11  11  135.89   12.63
  10 -11  11   61.90   10.61
  11 -11  11   41.08    9.65
  12 -11  11   14.26    7.72
  13 -11  11    9.48    7.60
  14 -11  11   41.83   11.04
  15 -11  11   47.10   12.55
  16 -11  11    0.76    7.29
  -9 -10  11    9.49    8.54
  -8 -10  11   48.37   10.79
  -7 -10  11    3.44    6.61
  -6 -10  11   22.77    7.64
  -5 -10  11   20.16    6.90
  -4 -10  11   29.14    7.20
  -3 -10  11   62.57    8.32
  -2 -10  11    1.79    3.79
  -1 -10  11    2.12    3.19
   0 -10  11    5.75    3.54
   1 -10  11  271.75   12.70
   1 -10  11  254.28   12.68
   2 -10  11   13.80    3.66
   2 -10  11   11.41    3.54
   3 -10  11 1069.20   35.01
   4 -10  11   -0.44    3.15
  -4  10 -11    2.72    2.81
   5 -10  11   36.16    5.48
  -5  10 -11   42.67    4.76
  -6  10 -11  823.09   25.95
   6 -10  11  831.02   33.97
   6 -10  11  835.58   27.13
   7 -10  11   21.40    6.55
   7 -10  11   11.98    4.13
   8 -10  11   24.34    7.07
   9 -10  11   49.05    9.17
  10 -10  11   -2.50    5.23
  11 -10  11   17.73    7.07
  12 -10  11  114.16   14.10
  13 -10  11  307.73   22.56
  14 -10  11   58.91   13.71
  15 -10  11   -1.89    8.07
  16 -10  11   16.11    8.59
 -10  -9  11   37.24   11.43
  -9  -9  11   49.72   10.44
  -8  -9  11   55.15   10.36
  -7  -9  11   -2.43    5.91
  -6  -9  11    5.47    5.83
  -5  -9  11   58.42    8.93
  -4  -9  11   28.49    6.61
  -3  -9  11    7.05    4.23
  -2  -9  11   33.90    5.91
  -1  -9  11  263.94   13.21
   0  -9  11   14.11    3.73
   1  -9  11 1534.19   44.76
   2  -9  11   17.12    3.50
   2  -9  11   11.15    4.39
   2  -9  11   14.22    3.33
   3  -9  11   46.79    5.99
  -4   9 -11  680.18   21.35
   4  -9  11  680.83   23.59
   5  -9  11   17.40    4.12
  -5   9 -11   17.44    3.28
   6  -9  11    2.38    4.40
  -6   9 -11    6.50    2.69
   6  -9  11    4.92    3.19
   7  -9  11   20.45    6.51
   7  -9  11   18.51    4.15
   8  -9  11  410.20   21.75
   9  -9  11    5.66    6.18
  10  -9  11  366.24   22.19
  11  -9  11  226.46   18.56
  12  -9  11  132.82   15.92
  13  -9  11   18.25   10.04
  14  -9  11   61.21   13.76
  15  -9  11    3.76    9.28
  16  -9  11   -8.04    5.88
 -11  -8  11   31.91   10.35
 -10  -8  11    9.78    7.62
  -9  -8  11    7.88    7.29
  -8  -8  11   18.66    7.70
  -7  -8  11   18.57    7.42
  -6  -8  11  391.13   20.31
  -5  -8  11    1.24    4.63
  -4  -8  11  119.44   10.15
  -3  -8  11  403.87   17.92
  -2  -8  11    8.24    3.87
  -1  -8  11 1498.59   44.39
   0  -8  11   -1.41    2.19
   1  -8  11   53.28    5.04
   1  -8  11   44.63    6.08
   2  -8  11  428.72   15.30
   2  -8  11  440.39   17.40
   2  -8  11  426.76   15.01
   3  -8  11    5.97    3.26
  -4   8 -11    0.24    1.93
   4  -8  11    1.84    2.86
  -5   8 -11  616.42   18.99
   5  -8  11  619.44   21.13
   6  -8  11  360.94   14.51
   6  -8  11  372.27   19.52
   7  -8  11  260.92   11.59
   7  -8  11  257.38   16.11
   8  -8  11 1930.53   65.83
   9  -8  11  675.93   30.93
  10  -8  11  260.46   18.44
  11  -8  11   -4.60    6.93
  12  -8  11   55.60   12.10
  13  -8  11  130.73   17.21
  14  -8  11   69.37   14.02
  15  -8  11   15.71    9.74
  16  -8  11   -4.50    7.26
 -11  -7  11   22.95    8.33
 -10  -7  11   38.97    9.78
  -9  -7  11    0.02    5.81
  -8  -7  11  138.36   12.78
  -7  -7  11   17.18    6.91
  -6  -7  11  222.05   14.21
  -5  -7  11    6.04    4.60
  -4  -7  11   14.04    5.10
  -3  -7  11 1018.22   33.42
  -2  -7  11    6.81    3.43
  -1  -7  11   54.43    6.63
  -1  -7  11   44.80    5.20
   0  -7  11   -0.12    3.28
   0  -7  11    0.06    2.45
   1  -7  11    4.52    3.05
   1  -7  11    5.93    2.30
   2  -7  11   24.48    4.49
   2  -7  11   18.04    2.82
   3  -7  11 2579.64   70.37
   4  -7  11  154.40    8.70
   5  -7  11  667.53   22.23
   6  -7  11 2731.50   87.60
   6  -7  11 2810.40   74.70
   7  -7  11  192.42   14.56
   7  -7  11  207.26   10.27
   8  -7  11  630.46   21.50
   8  -7  11  654.55   29.12
   9  -7  11   -1.95    5.73
  10  -7  11  158.87   14.92
  11  -7  11   -2.72    6.67
  12  -7  11  165.74   16.84
  13  -7  11   45.78   12.45
  14  -7  11   16.89   10.45
  15  -7  11    1.54    8.97
  16  -7  11   70.56   16.48
 -12  -6  11   -0.08    7.03
 -11  -6  11    1.24    6.48
 -10  -6  11   98.80   12.07
  -9  -6  11   19.24    7.47
  -8  -6  11  283.43   17.14
  -7  -6  11   13.69    6.02
  -6  -6  11  359.80   17.73
  -5  -6  11  338.81   16.45
  -4  -6  11    4.94    3.91
  -3  -6  11   52.84    6.27
  -2  -6  11  404.48   17.15
  -2  -6  11  426.60   16.33
  -1  -6  11    2.20    3.02
  -1  -6  11    6.79    2.85
   0  -6  11    2.62    2.26
   0  -6  11   -0.81    2.71
   1  -6  11 6070.33  155.51
   1  -6  11 6154.78  158.40
   2  -6  11  140.87    8.58
   3  -6  11  185.53    9.60
   4  -6  11  588.14   20.11
   5  -6  11   25.31    6.32
   5  -6  11   24.30    4.31
   6  -6  11 1565.04   53.89
   6  -6  11 1596.67   45.14
   7  -6  11   19.67    4.30
   7  -6  11   38.32    7.65
   8  -6  11  364.02   15.15
   8  -6  11  375.40   20.59
   9  -6  11   18.26    7.52
  10  -6  11   85.19   12.13
  11  -6  11  259.07   19.63
  12  -6  11  240.53   19.58
  13  -6  11    6.72    8.73
  14  -6  11   12.94   10.27
  15  -6  11   52.50   14.18
 -13  -5  11   28.98    9.68
 -12  -5  11   50.54   10.92
 -11  -5  11  132.67   13.86
 -10  -5  11  252.37   16.86
  -9  -5  11    2.97    5.42
  -8  -5  11   14.96    5.92
  -7  -5  11   34.81    7.03
  -6  -5  11  108.36    9.95
  -5  -5  11   32.85    5.89
  -4  -5  11  637.33   23.53
  -4  -5  11  630.56   22.79
  -3  -5  11    9.08    3.44
  -3  -5  11   11.89    3.58
  -2  -5  11   17.86    3.54
  -2  -5  11   21.16    4.42
  -1  -5  11 5898.53  151.49
  -1  -5  11 5908.20  153.30
   0  -5  11    0.99    2.74
   0  -5  11    1.44    2.16
   1  -5  11  757.82   24.83
   2  -5  11  380.31   14.74
   3  -5  11  205.81   10.04
   4  -5  11   69.11    6.03
   5  -5  11  333.09   17.20
   5  -5  11  318.39   13.23
   6  -5  11  140.75   11.34
   6  -5  11  127.89    8.25
   7  -5  11   96.23    7.53
   7  -5  11  101.03   10.72
   8  -5  11  155.96   13.19
   8  -5  11  154.71    9.63
   9  -5  11  260.28   12.95
   9  -5  11  255.33   17.60
  10  -5  11  686.60   31.91
  11  -5  11   34.03   10.62
  12  -5  11   20.49    9.40
  13  -5  11   35.43   11.95
  14  -5  11    6.30    9.74
  15  -5  11    6.51   10.03
 -13  -4  11  149.60   15.65
 -12  -4  11   41.99    9.79
 -11  -4  11   -3.06    6.43
 -10  -4  11   -4.14    5.42
  -9  -4  11    0.57    4.92
  -8  -4  11   50.61    8.31
  -7  -4  11   70.27    8.34
  -6  -4  11  741.54   26.82
  -6  -4  11  734.20   26.69
  -5  -4  11   19.58    4.41
  -5  -4  11   18.90    4.72
  -4  -4  11    4.79    3.02
  -4  -4  11    2.27    2.49
  -3  -4  11 2501.79   68.03
  -3  -4  11 2388.16   66.38
  -2  -4  11  129.64    8.23
  -2  -4  11  137.37    7.39
  -1  -4  11  693.80   21.08
  -1  -4  11  733.63   23.89
   0  -4  11    3.27    2.71
   1  -4  11  426.35   15.95
   2  -4  11   96.67    6.78
   3  -4  11  967.95   29.75
   4  -4  11  113.74    7.28
   5  -4  11   99.22    9.11
   5  -4  11   97.22    7.06
   6  -4  11  186.12   10.00
   6  -4  11  191.68   12.97
   7  -4  11   40.90    5.58
   7  -4  11   46.77    8.23
   8  -4  11  740.11   31.76
   8  -4  11  765.95   26.04
   9  -4  11   19.70    7.30
   9  -4  11    8.80    4.88
  10  -4  11   -1.37    6.69
  11  -4  11   33.45   10.17
  12  -4  11   15.69    9.02
  13  -4  11   21.45   11.28
  14  -4  11   11.33   10.04
  15  -4  11  -16.23    9.79
 -14  -3  11   50.79   11.37
 -13  -3  11    4.09    7.18
 -12  -3  11    6.07    6.86
 -11  -3  11   39.03    7.47
 -11  -3  11   33.94    8.42
 -10  -3  11  132.87   11.75
 -10  -3  11  130.27   11.09
  -9  -3  11  153.70   12.06
  -9  -3  11  158.80   11.43
  -8  -3  11 1151.14   37.55
  -8  -3  11 1080.15   37.66
  -7  -3  11   20.67    5.16
  -7  -3  11   25.34    6.06
  -6  -3  11    2.25    2.78
  -6  -3  11   -0.26    3.71
  -5  -3  11  565.72   20.81
  -5  -3  11  575.67   21.10
  -4  -3  11  143.86    8.71
  -4  -3  11  139.93    8.48
  -3  -3  11  161.70    8.39
  -3  -3  11  177.72    9.50
  -2  -3  11  365.34   12.98
  -2  -3  11  398.53   15.16
  -1  -3  11  422.95   13.16
  -1  -3  11  416.19   15.78
   0  -3  11    5.81    2.90
   1  -3  11 1017.01   30.95
   2  -3  11   34.91    4.69
   3  -3  11  646.69   21.69
   4  -3  11  259.41   11.93
   4  -3  11  295.35   15.24
   5  -3  11   35.41    6.34
   5  -3  11   28.92    4.66
   6  -3  11  743.08   29.65
   6  -3  11  744.27   25.15
   7  -3  11    7.01    5.49
   7  -3  11    8.97    4.55
   8  -3  11   66.87    9.92
   8  -3  11   62.08    7.44
   9  -3  11   62.82    7.82
   9  -3  11   58.61   10.21
  10  -3  11    4.13    6.99
  11  -3  11   17.20    9.28
  12  -3  11   34.80   10.96
  13  -3  11   34.75   11.52
  14  -3  11   -7.12    9.37
 -14  -2  11   11.67    8.28
 -13  -2  11   31.43    8.18
 -12  -2  11   28.45    7.96
 -11  -2  11    6.91    6.26
 -10  -2  11  551.63   24.67
 -10  -2  11  593.30   24.13
  -9  -2  11  119.45   10.71
  -9  -2  11  123.53   10.16
  -8  -2  11   24.62    5.34
  -8  -2  11   15.93    5.85
  -7  -2  11   18.88    5.47
  -7  -2  11   17.24    4.22
  -6  -2  11  332.66   14.76
  -6  -2  11  313.39   14.16
  -5  -2  11  621.92   21.71
  -5  -2  11  586.64   21.11
  -4  -2  11  547.46   19.75
  -4  -2  11  561.19   18.95
  -3  -2  11  190.98    9.74
  -3  -2  11  189.73    8.65
  -2  -2  11  106.13    5.72
  -2  -2  11  101.42    6.78
  -1  -2  11 1049.95   31.90
  -1  -2  11 1051.52   28.69
   0  -2  11    6.00    2.75
   1  -2  11 2457.11   66.88
   2  -2  11    8.78    2.99
   3  -2  11   10.70    3.34
   4  -2  11  671.29   23.39
   4  -2  11  733.00   27.40
   5  -2  11  336.13   14.64
   5  -2  11  341.17   16.93
   6  -2  11   68.86    7.24
   6  -2  11   89.08    9.56
   7  -2  11   14.40    6.17
   7  -2  11    9.37    4.72
   8  -2  11   32.62    8.00
   8  -2  11   34.30    6.50
   9  -2  11   -3.40    4.99
   9  -2  11   -6.33    6.10
  10  -2  11   80.86   12.07
  10  -2  11   82.30    9.89
  11  -2  11   27.79   10.55
  12  -2  11    8.28    9.34
 -14  -1  11    2.06    6.92
 -13  -1  11   19.04    7.82
 -12  -1  11  186.57   14.42
 -11  -1  11   61.67    9.56
 -10  -1  11   48.46    6.88
 -10  -1  11   48.87    8.26
  -9  -1  11   49.22    6.54
  -9  -1  11   43.97    7.62
  -8  -1  11  351.28   15.60
  -8  -1  11  369.65   17.33
  -7  -1  11  271.52   13.70
  -7  -1  11  269.27   12.91
  -6  -1  11 2742.39   74.27
  -6  -1  11 2626.20   73.62
  -5  -1  11   21.93    4.14
  -5  -1  11   31.72    4.65
  -4  -1  11   64.66    5.60
  -4  -1  11   62.44    5.38
  -3  -1  11  945.40   29.48
  -3  -1  11  949.76   27.73
  -2  -1  11   28.89    4.23
  -2  -1  11   35.87    3.56
  -1  -1  11 2449.12   66.92
  -1  -1  11 2456.47   63.90
   0  -1  11    2.28    2.54
   1  -1  11   40.67    4.99
   2  -1  11   41.28    5.24
   3  -1  11   -1.10    3.18
   3  -1  11    1.76    3.10
  -4   1 -11  171.26    8.29
   4  -1  11  153.72   10.45
   4  -1  11  155.78    9.72
   5  -1  11  724.79   25.71
  -5   1 -11  743.65   24.10
   5  -1  11  771.95   29.04
   6  -1  11  127.19   10.59
   6  -1  11  131.67    9.88
   7  -1  11   69.23    9.17
   7  -1  11   55.42    7.65
   8  -1  11  404.71   21.59
   8  -1  11  402.36   18.90
   9  -1  11   85.45   11.77
   9  -1  11   85.31    9.65
  10  -1  11    5.37    5.92
  10  -1  11    2.53    7.17
 -15   0  11   36.21    9.94
 -14   0  11   19.55    8.14
 -13   0  11   31.40    8.93
 -12   0  11   45.37    8.92
 -11   0  11   17.18    6.56
 -10   0  11    0.65    3.30
 -10   0  11   -3.75    4.82
  -9   0  11   11.94    5.80
  -9   0  11   12.96    3.86
  -8   0  11 1990.43   58.71
  -8   0  11 2002.66   57.11
  -7   0  11  202.69   11.75
  -7   0  11  205.79   10.88
  -6   0  11 1557.91   45.68
  -6   0  11 1560.67   45.32
  -5   0  11  306.46   13.14
  -5   0  11  318.67   13.08
  -4   0  11  103.87    7.00
  -4   0  11  114.67    7.06
  -3   0  11  629.27   20.03
  -3   0  11  644.63   21.53
  -2   0  11    5.24    2.28
  -2   0  11    8.35    2.95
  -1   0  11   58.84    5.50
  -1   0  11   44.90    4.04
   0   0  11    0.84    2.22
   0   0  11    0.52    2.00
   1   0  11   27.87    3.66
   1   0  11   28.86    4.78
   2   0  11   48.38    5.75
  -2   0 -11   46.27    4.30
  -2   0 -11   49.42    4.14
   3   0  11  866.04   28.33
  -3   0 -11  844.88   25.56
   4   0  11  153.77    9.94
  -4   0 -11  132.55    8.01
  -5   0 -11   48.11    5.73
   5   0  11   44.75    6.73
   6   0  11  330.95   17.95
   6   0  11  478.58   18.96
   7   0  11   91.04    9.51
   7   0  11  117.34   10.93
   8   0  11    6.36    5.84
   8   0  11   16.21    7.48
   9   0  11    4.70    5.99
  10   0  11   52.35    9.54
 -15   1  11   89.63   12.78
 -14   1  11   56.99   10.24
 -13   1  11   32.78    8.62
 -12   1  11   10.84    6.21
 -11   1  11   12.89    5.90
 -10   1  11  408.31   19.42
  -9   1  11  669.62   25.81
  -8   1  11  621.53   24.11
  -8   1  11  670.85   22.91
  -7   1  11   19.41    5.12
  -7   1  11   25.82    4.44
  -6   1  11  151.08    8.81
  -6   1  11  141.04    9.38
  -5   1  11   86.76    6.57
  -5   1  11   95.24    7.02
  -4   1  11  295.51   12.19
  -4   1  11  300.86   12.77
  -3   1  11    3.21    2.68
  -3   1  11    5.51    2.86
  -2   1  11   39.06    4.76
  -2   1  11   42.01    4.36
  -1   1  11   28.40    4.34
  -1   1  11   24.27    3.70
   0   1  11    3.45    2.81
   0   1  11    5.21    2.68
   1   1  11 1649.92   47.67
   1   1  11 1606.70   44.84
  -2  -1 -11   94.33    6.32
   2   1  11  131.14    8.63
   2   1  11  103.48    8.20
  -2  -1 -11   98.31    6.58
   3   1  11   69.39    7.36
  -3  -1 -11   69.26    5.65
   3   1  11   69.77    7.03
   4   1  11  295.72   14.77
  -4  -1 -11  291.12   12.91
   4   1  11  292.58   14.59
   5   1  11    8.85    5.24
  -5  -1 -11   11.39    3.97
   5   1  11   10.70    5.00
   6   1  11   41.74    7.40
   7   1  11    9.61    5.96
   8   1  11  279.91   17.03
   9   1  11    0.81    6.59
  10   1  11   -3.01    7.07
 -15   2  11   48.31   10.83
 -14   2  11   37.10    9.47
 -13   2  11    7.32    6.70
 -12   2  11   79.89   10.34
 -11   2  11  213.99   14.19
 -10   2  11  207.48   13.49
  -9   2  11    2.14    2.86
  -9   2  11    1.18    5.01
  -8   2  11  360.16   16.84
  -7   2  11   96.86    7.01
  -7   2  11   87.46    7.90
  -6   2  11  192.55    9.79
  -6   2  11  182.35   10.35
  -5   2  11   23.90    4.55
  -5   2  11   32.92    4.45
  -4   2  11  751.22   24.37
  -4   2  11  764.24   24.85
  -3   2  11   -1.75    2.18
  -3   2  11    3.38    2.98
  -2   2  11   51.05    5.68
  -2   2  11   49.46    5.21
  -1   2  11 1604.79   44.68
  -1   2  11 1592.68   46.49
   0   2  11    3.27    3.04
   0   2  11    7.42    3.20
   1   2  11   40.28    5.21
   1   2  11   45.84    5.60
   2   2  11  316.90   13.99
   2   2  11  318.73   14.88
  -2  -2 -11  302.23   12.79
  -2  -2 -11  282.88   12.72
   3   2  11   81.88    8.41
  -3  -2 -11   87.12    6.89
   4   2  11    4.38    4.83
  -4  -2 -11   13.15    4.15
  -5  -2 -11  159.04    9.88
   5   2  11  184.46   12.40
   6   2  11  174.42   12.81
   7   2  11   17.39    7.30
   8   2  11    1.98    6.62
   9   2  11   42.24    9.24
  10   2  11   40.59    9.45
  11   2  11   60.59   11.20
 -16   3  11   80.24   13.39
 -15   3  11   15.02    7.81
 -14   3  11   53.31   10.11
 -13   3  11  279.39   17.91
 -12   3  11   93.40   10.90
 -11   3  11    1.40    5.47
 -10   3  11  122.72   10.78
  -9   3  11   11.54    5.32
  -9   3  11   18.73    3.95
  -8   3  11  158.13   10.81
  -7   3  11   46.07    6.33
  -7   3  11   48.81    5.34
  -6   3  11  824.87   27.37
  -6   3  11  816.92   26.57
  -5   3  11  354.48   14.92
  -5   3  11  367.14   14.76
  -4   3  11  167.91    9.31
  -4   3  11  175.24    9.79
  -3   3  11  858.21   27.93
  -3   3  11  873.11   27.52
  -2   3  11  117.51    7.87
  -2   3  11  116.92    7.70
  -1   3  11   48.39    5.75
  -1   3  11   50.30    6.00
   0   3  11    2.04    3.33
   0   3  11    5.53    3.58
   1   3  11  317.86   14.96
   1   3  11  282.52   13.18
   2   3  11   26.24    5.98
  -2  -3 -11   18.01    3.98
  -2  -3 -11    9.79    3.65
   3   3  11   50.05    7.50
   4   3  11   51.09    7.78
   5   3  11    9.86    5.78
  -5  -3 -11    9.74    4.52
   6   3  11   46.70    8.77
   7   3  11   22.00    7.59
   8   3  11   60.98   10.36
   9   3  11   57.40   10.76
  10   3  11  114.29   13.95
  11   3  11   93.22   13.93
 -16   4  11    5.90    9.29
 -15   4  11  116.23   14.05
 -14   4  11   30.78    9.32
 -13   4  11    1.74    6.82
 -12   4  11   64.48    9.63
 -11   4  11   -0.61    5.19
 -10   4  11   81.41    9.43
  -9   4  11  271.64   14.84
  -8   4  11  539.07   20.90
  -8   4  11  722.04   24.38
  -7   4  11    5.48    4.44
  -7   4  11    8.57    3.07
  -6   4  11   85.83    7.88
  -6   4  11   79.24    6.53
  -5   4  11  720.94   25.07
  -5   4  11  743.99   24.75
  -4   4  11  153.15    9.63
  -4   4  11  144.60    8.88
  -3   4  11   59.83    6.24
  -3   4  11   53.14    6.13
  -2   4  11  321.24   14.70
  -2   4  11  328.68   14.18
  -1   4  11  319.22   15.06
  -1   4  11  331.23   14.47
   0   4  11    4.04    3.92
   0   4  11    2.02    4.12
   1   4  11  263.17   14.38
   2   4  11    1.98    4.64
  -2  -4 -11    5.02    3.55
  -2  -4 -11   -2.90    3.52
  -3  -4 -11   52.09    6.49
   3   4  11   48.76    7.98
   4   4  11  266.10   15.92
  -4  -4 -11  300.97   15.26
   5   4  11  146.01   12.34
  -5  -4 -11  130.56   10.86
   6   4  11   40.58    8.91
   7   4  11   -5.36    6.20
   8   4  11   92.20   12.48
   9   4  11   19.44    9.25
  10   4  11   19.43   10.39
 -16   5  11    2.11    9.00
 -15   5  11    4.86    8.22
 -14   5  11   68.84   11.41
 -13   5  11  100.41   12.01
 -12   5  11  192.42   14.26
 -11   5  11  253.52   15.52
 -10   5  11  624.69   25.16
  -9   5  11    8.39    5.30
  -8   5  11   59.76    6.26
  -8   5  11   57.72    7.70
  -7   5  11    8.56    4.80
  -7   5  11    1.07    2.82
  -6   5  11  114.53    8.07
  -6   5  11  126.64    9.58
  -5   5  11   45.41    6.10
  -5   5  11   54.93    7.05
  -4   5  11  322.45   14.84
  -4   5  11  309.75   14.50
  -3   5  11  101.23    8.31
  -3   5  11   88.32    8.12
  -2   5  11   14.99    4.92
  -2   5  11   18.93    5.35
  -1   5  11  271.82   14.63
  -1   5  11  300.23   14.19
   0   5  11    3.18    4.38
   0   5  11    1.26    4.30
   1   5  11   16.33    5.39
  -2  -5 -11   20.98    5.40
  -2  -5 -11   22.31    5.62
   2   5  11   17.84    6.24
   3   5  11   98.64   10.89
  -3  -5 -11   93.02    9.22
   4   5  11   37.60    8.27
  -4  -5 -11   33.51    7.10
   5   5  11    9.93    6.70
   6   5  11  228.77   16.60
   7   5  11   -4.10    6.32
   8   5  11  -15.14    7.08
   9   5  11    1.87    7.92
 -16   6  11  154.37   16.82
 -15   6  11   45.42   10.45
 -14   6  11   52.23   10.69
 -13   6  11   61.65   10.27
 -12   6  11  215.40   14.88
 -11   6  11   40.62    7.62
 -10   6  11    7.24    6.06
  -9   6  11   61.09    8.44
  -8   6  11   40.99    7.24
  -7   6  11   73.03    8.33
  -7   6  11   48.82    6.16
  -6   6  11  527.01   20.33
  -6   6  11  522.89   21.22
  -5   6  11   11.91    5.43
  -5   6  11   18.63    5.22
  -4   6  11   23.42    5.46
  -4   6  11   18.09    5.78
  -3   6  11   51.40    7.28
  -3   6  11   60.62    7.65
  -2   6  11   -4.77    4.19
  -2   6  11   -1.07    4.15
  -1   6  11   17.19    5.55
  -1   6  11   15.83    5.51
   0   6  11   -0.61    4.61
   0   6  11    0.15    4.60
  -1  -6 -11  194.65   11.97
  -1  -6 -11  172.13   11.99
   1   6  11  165.39   12.66
  -2  -6 -11   11.65    5.38
  -2  -6 -11    6.32    4.82
   2   6  11    6.49    5.90
  -3  -6 -11   22.75    6.57
   3   6  11   38.79    8.77
  -4  -6 -11  226.76   14.63
   4   6  11  200.29   15.49
   5   6  11    7.98    7.39
   6   6  11  -24.73    6.48
   7   6  11  -11.40    6.30
   8   6  11   25.44   10.17
 -16   7  11   30.07   10.73
 -15   7  11  117.80   14.03
 -14   7  11   16.01    8.06
 -13   7  11    5.02    7.12
 -12   7  11    8.48    6.85
 -11   7  11   35.96    7.94
 -10   7  11    8.19    6.17
  -9   7  11    1.89    5.02
  -8   7  11  444.41   20.17
  -7   7  11  113.76   10.31
  -7   7  11  106.27    8.37
  -6   7  11   56.08    7.41
  -6   7  11   47.79    7.76
  -5   7  11  195.73   12.28
  -5   7  11  184.19   11.92
  -4   7  11   59.52    7.79
  -4   7  11   60.30    8.19
  -3   7  11   39.19    7.09
  -3   7  11   56.00    8.06
  -2   7  11   23.52    6.44
  -2   7  11   18.91    6.55
  -1   7  11  178.54   12.54
  -1   7  11  185.49   13.28
   0   7  11    8.69    6.04
   0   7  11   -1.22    5.11
   1   7  11   12.27    7.02
  -1  -7 -11   22.29    6.03
  -1  -7 -11   14.71    6.01
   2   7  11   67.89   10.52
  -2  -7 -11   86.38    9.53
  -2  -7 -11   80.84    9.38
   3   7  11   19.86    7.79
  -3  -7 -11   14.57    6.31
  -4  -7 -11    4.14    6.77
   4   7  11   -7.10    6.47
   5   7  11    7.16    8.17
   6   7  11   83.31   13.12
   7   7  11    5.24    8.47
 -15   8  11   11.05    8.49
 -14   8  11   16.92    8.27
 -13   8  11   38.84    9.47
 -12   8  11   23.55    7.92
 -11   8  11   22.84    7.88
 -10   8  11   87.27   10.59
  -9   8  11   99.17   10.72
  -8   8  11    1.39    5.94
  -7   8  11   13.78    6.23
  -7   8  11   16.02    5.85
  -6   8  11  198.59   13.11
  -6   8  11  192.34   12.68
  -5   8  11   13.71    5.90
  -5   8  11   17.75    6.48
  -4   8  11  330.46   17.20
  -4   8  11  332.11   17.44
  -3   8  11  104.27   10.69
  -3   8  11  109.76   10.88
  -2   8  11    7.85    5.95
  -2   8  11   15.02    6.43
  -1   8  11   26.57    7.88
  -1   8  11   26.34    7.46
   0   8  11   -3.60    5.71
  -1  -8 -11   89.19   10.43
  -1  -8 -11  107.56   11.01
   1   8  11   96.38   12.02
  -2  -8 -11    7.84    5.24
  -2  -8 -11   -3.12    5.14
   2   8  11   10.03    7.10
  -3  -8 -11  121.61   12.37
   3   8  11  107.94   13.35
   4   8  11  111.48   14.10
   5   8  11   -3.31    7.94
 -15   9  11   64.80   12.20
 -14   9  11   23.32    8.49
 -13   9  11   23.70    8.16
 -12   9  11   51.36    9.94
 -11   9  11   31.94    8.41
 -10   9  11   10.27    6.68
  -9   9  11    6.39    6.42
  -8   9  11  267.88   16.39
  -7   9  11   12.29    6.99
  -6   9  11   54.23    9.07
  -6   9  11   52.54    8.59
  -5   9  11  144.21   12.30
  -5   9  11  162.56   12.65
  -4   9  11   39.57    8.15
  -4   9  11   43.59    8.71
  -3   9  11   38.40    8.28
  -3   9  11   10.50    6.91
  -2   9  11   64.14   10.00
  -2   9  11   86.87   11.30
  -1   9  11   85.64   10.87
  -1   9  11   90.47   11.66
   0   9  11   -3.92    5.67
   0  -9 -11   -6.44    5.32
   0  -9 -11   -3.60    5.80
  -1  -9 -11  175.27   13.79
  -1  -9 -11  210.28   14.91
   1   9  11  220.45   16.86
  -2  -9 -11   29.83    8.54
  -2  -9 -11   46.95    9.45
   2   9  11   39.64    9.78
   3   9  11  -11.51    6.08
  -3  -9 -11   29.16    9.00
   4   9  11    5.45    8.88
 -15  10  11   17.10    9.64
 -14  10  11   -0.13    7.51
 -13  10  11   26.67    8.56
 -12  10  11    3.86    7.46
 -11  10  11   30.69    9.15
 -10  10  11   58.13   10.20
  -9  10  11    8.70    7.19
  -8  10  11    2.26    6.67
  -7  10  11   14.24    7.43
  -6  10  11   38.44    8.37
  -6  10  11   35.53    8.77
  -5  10  11    9.26    7.82
  -5  10  11   21.18    7.68
  -4  10  11  188.06   14.55
  -4  10  11  208.05   15.52
  -3  10  11   18.52    7.81
  -3  10  11   24.01    7.83
  -2  10  11    3.21    6.71
  -2  10  11   -4.81    6.35
  -1  10  11  190.73   16.28
  -1  10  11  196.85   15.02
   0  10  11   -9.84    6.49
   0 -10 -11    3.52    6.65
   0 -10 -11    2.52    6.05
  -1 -10 -11  155.42   14.33
  -1 -10 -11  146.69   14.09
   1  10  11  140.90   15.37
  -2 -10 -11    6.16    7.07
   2  10  11    0.37    5.11
  -2 -10 -11   11.00    6.35
   3  10  11    0.36    5.41
 -14  11  11    2.59    8.32
 -13  11  11   52.31   10.64
 -12  11  11   14.30    8.12
 -11  11  11    4.29    8.01
 -10  11  11   27.29    8.48
  -9  11  11   51.73    9.94
  -8  11  11   82.07   11.70
  -7  11  11    2.01    7.14
  -6  11  11  285.21   18.42
  -5  11  11   13.64    8.14
  -5  11  11   19.56    8.69
  -4  11  11   -5.62    7.17
  -4  11  11   -4.76    7.16
  -3  11  11  123.89   13.48
  -3  11  11  120.96   14.23
  -2  11  11   23.11    9.21
  -2  11  11   33.24    9.84
  -1  11  11  133.45   14.98
   0  11  11    3.53    6.73
   0 -11 -11   -6.66    6.36
   0 -11 -11    4.35    6.35
   1  11  11    4.03    5.21
  -1 -11 -11   27.92    8.29
  -1 -11 -11   30.39    8.48
  -2 -11 -11    9.26    7.43
 -13  12  11   17.81    9.78
 -12  12  11    6.32    8.51
 -11  12  11   50.69   10.85
 -10  12  11   71.43   11.85
  -9  12  11   29.79    9.72
  -8  12  11   80.32   12.06
  -7  12  11   -3.17    7.75
  -6  12  11    5.59    8.01
  -5  12  11   26.58    9.62
  -5  12  11   33.06    9.69
  -4  12  11  175.86   15.79
  -4  12  11  150.15   15.64
  -3  12  11   20.08    9.39
  -3  12  11   30.52   10.45
  -2  12  11    1.30    8.51
  -2  12  11   -4.43    7.91
   1 -12 -11   37.26    9.66
   1 -12 -11   34.54   10.15
  -1  12  11   34.02    9.43
   0 -12 -11   -0.07    6.72
   0 -12 -11  -10.28    6.35
   0  12  11    2.47    6.14
  -1 -12 -11   48.62   11.13
  -1 -12 -11   26.64    8.92
 -12  13  11   11.12    9.30
 -11  13  11   66.31   11.99
 -10  13  11  100.01   13.87
  -9  13  11   26.38    9.95
  -8  13  11    0.14    8.43
  -7  13  11    1.92    8.71
  -6  13  11   68.62   12.50
  -5  13  11   28.28   10.04
  -4  13  11   14.47    8.93
  -4  13  11   17.68   10.12
  -3  13  11   10.83    8.05
  -3  13  11   20.08   10.01
  -2  13  11   20.56   10.15
   1 -13 -11   46.24   10.97
   1 -13 -11   48.65   10.49
 -10  14  11   33.61   12.15
  -9  14  11   -5.44    8.95
  -8  14  11   27.36   10.66
  -7  14  11    2.93    9.66
  -6  14  11   43.81   12.09
  -5  14  11   18.86   10.77
  -4  14  11   33.30   11.47
  -4  14  11   51.89   13.33
   2 -19  12    7.21    8.17
   3 -19  12   34.35   10.40
   3 -19  12   46.65   10.75
   4 -19  12   14.42    7.61
   4 -19  12    3.18    7.47
   0 -18  12   -0.21    7.69
   1 -18  12   -3.95    7.14
   2 -18  12   -0.63    7.19
   3 -18  12   20.62    7.80
   3 -18  12    7.17    6.65
   4 -18  12  123.78   13.48
   4 -18  12   79.47   11.33
  12 -18  12   31.77   10.19
  13 -18  12   49.38   12.28
  14 -18  12   34.34   12.60
  -1 -17  12    4.61    7.70
   0 -17  12    4.67    6.79
   1 -17  12    2.41    6.60
   2 -17  12  129.57   13.79
   2 -17  12  152.63   14.55
   3 -17  12   21.25    7.24
   3 -17  12   22.58    7.09
   4 -17  12  159.76   13.67
   4 -17  12  165.47   13.59
   9 -17  12   -1.76    6.25
  10 -17  12   -2.12    6.80
  11 -17  12   35.78   10.67
  12 -17  12   38.88   10.31
  13 -17  12   65.38   13.01
  14 -17  12   56.90   13.08
  -3 -16  12   34.05   10.22
  -2 -16  12    5.65    7.19
  -1 -16  12   13.67    7.07
   0 -16  12  143.05   14.14
   1 -16  12   -1.17    5.45
   2 -16  12  174.45   14.02
   2 -16  12  226.48   15.70
   3 -16  12   10.14    5.63
   3 -16  12   25.92    7.14
   4 -16  12   -1.38    4.78
   4 -16  12    0.25    4.73
   6 -16  12   63.90   11.51
   7 -16  12    0.91    5.83
   8 -16  12   12.67    7.64
   9 -16  12   68.77   11.69
  10 -16  12   20.49    8.23
  11 -16  12  156.46   15.37
  12 -16  12   21.60    9.05
  13 -16  12   71.03   13.43
  14 -16  12   28.83   10.67
  15 -16  12  113.11   17.96
  -4 -15  12    4.84    7.81
  -3 -15  12    9.65    7.34
  -2 -15  12  111.80   12.87
  -1 -15  12    4.51    6.53
   0 -15  12  190.67   14.77
   1 -15  12    6.77    5.53
   2 -15  12    6.91    5.15
   2 -15  12   -3.57    4.21
   3 -15  12  110.66   10.95
   3 -15  12  127.57   11.12
   4 -15  12  142.71   11.64
   4 -15  12  123.80   11.42
  -5  15 -12   34.06    6.73
   6 -15  12  122.14   13.79
   7 -15  12   21.15    7.28
   8 -15  12   10.94    6.42
   9 -15  12  317.21   20.65
  10 -15  12  136.63   14.20
  11 -15  12   36.28    9.58
  12 -15  12   49.41   10.65
  13 -15  12   47.94   11.97
  14 -15  12   -0.06    8.61
  15 -15  12   21.65   11.46
  -5 -14  12    9.65    8.05
  -4 -14  12   95.22   12.75
  -3 -14  12    8.30    6.82
  -2 -14  12  210.20   15.76
  -1 -14  12    8.87    5.62
   0 -14  12   24.56    6.92
   1 -14  12   63.92    8.83
   2 -14  12  226.15   14.02
   2 -14  12  195.33   12.97
   3 -14  12   55.55    7.66
   3 -14  12   61.67    7.94
  -5  14 -12    7.33    4.89
   5 -14  12    3.46    5.31
   6 -14  12   32.76    8.65
   7 -14  12  794.98   35.55
   8 -14  12   76.26   11.23
   9 -14  12    2.33    5.21
  10 -14  12    5.58    6.71
  11 -14  12   -1.36    6.03
  12 -14  12   30.07    8.62
  13 -14  12   36.16   10.42
  14 -14  12  111.23   15.52
  15 -14  12   10.29    9.62
  -6 -13  12    9.10    8.20
  -5 -13  12   27.64    8.96
  -4 -13  12  153.20   15.11
  -3 -13  12   13.55    6.51
  -2 -13  12   -2.52    4.21
  -1 -13  12   70.16    9.23
   0 -13  12   71.72    8.97
   1 -13  12   14.75    5.30
   2 -13  12  571.43   23.15
   2 -13  12  604.92   24.05
   3 -13  12    5.00    3.78
   3 -13  12    0.30    3.78
   4 -13  12   19.23    5.92
   5 -13  12  164.76   11.75
   6 -13  12   10.31    5.19
   7 -13  12   23.73    6.94
   8 -13  12    9.21    5.77
   9 -13  12   -6.87    5.41
  10 -13  12   82.98   12.14
  11 -13  12   97.36   13.33
  12 -13  12  106.27   14.19
  13 -13  12   53.41   11.25
  14 -13  12   15.33    9.19
  15 -13  12   27.62   11.07
  -7 -12  12    4.68    8.09
  -6 -12  12   13.12    7.69
  -5 -12  12   21.12    8.33
  -4 -12  12    1.80    5.61
  -3 -12  12  124.72   12.07
  -2 -12  12  208.98   14.19
  -1 -12  12   16.25    5.56
   0 -12  12 1092.57   37.32
   1 -12  12    8.82    4.54
   2 -12  12    6.24    3.78
   2 -12  12    0.02    3.32
   3 -12  12  255.82   13.30
   3 -12  12  264.81   13.36
  -4  12 -12    1.65    1.92
   4 -12  12    7.76    4.68
   5 -12  12   -0.60    4.17
   6 -12  12    4.19    4.09
   7 -12  12   66.15   10.11
   8 -12  12  129.63   12.64
   9 -12  12  440.09   24.08
  10 -12  12  133.40   13.62
  11 -12  12  125.59   14.54
  12 -12  12   54.32   10.66
  13 -12  12   -4.31    6.56
  14 -12  12   77.76   14.05
  15 -12  12   24.60   10.38
  -8 -11  12    5.87    7.87
  -7 -11  12   43.68   10.15
  -6 -11  12    7.01    7.24
  -5 -11  12  129.01   13.23
  -4 -11  12  123.16   12.19
  -3 -11  12   67.19    9.03
  -2 -11  12  549.24   23.34
  -1 -11  12    3.01    4.35
   0 -11  12   12.63    4.36
   1 -11  12   15.90    4.48
   2 -11  12   77.52    6.85
   2 -11  12   62.59    6.86
   3 -11  12   24.16    5.98
   3 -11  12   33.42    5.26
   3 -11  12   36.53    5.16
   4 -11  12  531.26   21.19
  -4  11 -12  523.98   18.79
   5 -11  12   -2.26    3.19
   6 -11  12  123.72    8.88
   7 -11  12  508.96   25.58
   8 -11  12   65.34   10.24
   9 -11  12   76.40   11.01
  10 -11  12   11.23    6.33
  11 -11  12   14.60    6.96
  12 -11  12   37.95    9.74
  13 -11  12   53.21   11.58
  14 -11  12  101.97   16.26
  15 -11  12   -1.44    6.04
  -9 -10  12   59.07   12.26
  -8 -10  12   47.87   10.47
  -7 -10  12  129.15   14.13
  -6 -10  12   79.01   11.28
  -5 -10  12   31.70    8.01
  -4 -10  12  506.43   23.34
  -3 -10  12    3.27    4.26
  -2 -10  12    6.78    4.30
  -1 -10  12   16.74    4.79
   0 -10  12    3.57    3.46
   1 -10  12   12.69    3.89
   2 -10  12  855.81   27.93
   2 -10  12  846.17   30.23
   2 -10  12  871.98   27.42
   3 -10  12   81.53    6.56
   3 -10  12   75.68    6.56
   3 -10  12   73.98    7.85
  -4  10 -12  104.34    7.06
   4 -10  12  116.03    8.83
   5 -10  12  644.17   23.07
   6 -10  12    4.02    4.60
   6 -10  12    2.88    3.71
   7 -10  12  170.51   13.78
   7 -10  12  195.80   10.59
   8 -10  12   17.74    6.71
   9 -10  12  322.24   19.66
  10 -10  12   29.90    8.97
  11 -10  12    2.87    6.34
  12 -10  12   76.06   13.91
  13 -10  12   18.88    9.87
  14 -10  12    3.83    9.29
  15 -10  12   -8.49    6.17
 -10  -9  12   24.17    9.61
  -9  -9  12  195.07   16.86
  -8  -9  12   30.79    8.54
  -7  -9  12   12.26    6.60
  -6  -9  12   84.15   10.84
  -5  -9  12    1.12    5.11
  -4  -9  12    9.03    5.14
  -3  -9  12  268.08   14.65
  -2  -9  12   75.98    7.92
  -1  -9  12    8.90    3.93
   0  -9  12 1610.28   47.23
   1  -9  12    0.43    2.67
   1  -9  12    0.02    4.09
   2  -9  12  157.21   10.51
   2  -9  12  166.29    8.55
   2  -9  12  160.60    8.75
   3  -9  12  121.25    7.32
   3  -9  12  123.23    8.84
   3  -9  12  128.64    7.53
   4  -9  12   25.12    4.80
   5  -9  12   28.29    5.01
   6  -9  12  133.13   11.79
   6  -9  12  113.02    8.22
   7  -9  12  269.83   16.95
   7  -9  12  261.13   12.09
   8  -9  12   24.57    6.95
   9  -9  12   51.53   10.07
  10  -9  12  140.83   15.26
  11  -9  12   95.85   13.91
  12  -9  12   23.01    9.68
  13  -9  12   -2.35    9.13
  14  -9  12  148.92   18.67
  15  -9  12    0.54    6.51
 -11  -8  12   26.97    9.94
 -10  -8  12   19.45    9.01
  -9  -8  12   -5.17    6.52
  -8  -8  12   12.56    7.15
  -7  -8  12   18.70    7.54
  -6  -8  12   35.33    7.82
  -5  -8  12  164.80   12.51
  -4  -8  12   10.25    5.27
  -3  -8  12   28.49    5.80
  -2  -8  12  813.27   27.89
  -1  -8  12    1.55    3.08
  -1  -8  12    2.67    3.50
   0  -8  12  314.20   15.25
   0  -8  12  299.06   12.93
   1  -8  12   83.69    7.81
   1  -8  12  103.79    6.76
   2  -8  12  425.96   17.23
   2  -8  12  420.36   14.94
   3  -8  12   90.93    7.28
   3  -8  12   69.66    5.28
   3  -8  12   90.20    5.66
   4  -8  12  298.74   13.29
   5  -8  12  644.30   22.35
   6  -8  12  119.94    8.25
   6  -8  12  101.94   11.17
   7  -8  12  145.37   13.19
   7  -8  12  144.69    8.88
   8  -8  12  104.81   12.25
   9  -8  12  438.45   24.04
  10  -8  12   87.38   12.70
  11  -8  12   19.40    9.34
  12  -8  12  299.96   21.83
  13  -8  12    5.18    8.96
  14  -8  12   11.29   10.65
  15  -8  12   -3.27    6.81
 -11  -7  12   -1.63    6.97
 -10  -7  12   -7.50    6.21
  -9  -7  12   73.62   10.98
  -8  -7  12   16.34    6.94
  -7  -7  12  597.94   26.08
  -6  -7  12    9.92    5.79
  -5  -7  12   -2.96    3.78
  -4  -7  12  483.94   20.42
  -3  -7  12   74.92    7.62
  -2  -7  12  155.94    9.57
  -2  -7  12  136.00   10.09
  -1  -7  12   88.73    8.27
  -1  -7  12  106.45    7.38
   0  -7  12  844.73   26.01
   0  -7  12  836.33   28.45
   1  -7  12   48.40    4.57
   1  -7  12   61.65    6.36
   2  -7  12  677.40   22.96
   2  -7  12  626.68   19.47
   3  -7  12  369.85   15.17
   4  -7  12  332.57   14.18
   5  -7  12    0.77    3.04
   6  -7  12    1.56    5.28
   6  -7  12    8.33    3.82
   7  -7  12  212.32   10.96
   7  -7  12  229.77   15.82
   8  -7  12    1.31    3.51
   8  -7  12    9.33    6.46
   9  -7  12   94.66   12.23
  10  -7  12  145.14   15.34
  11  -7  12   26.94    9.55
  12  -7  12   34.27   10.68
  13  -7  12    5.56    9.40
  14  -7  12   40.71   12.63
  15  -7  12   -4.69    9.19
 -12  -6  12   18.40    8.94
 -11  -6  12   36.45    9.15
 -10  -6  12    9.42    7.05
  -9  -6  12  270.76   17.05
  -8  -6  12   63.56    9.54
  -7  -6  12   11.97    5.95
  -6  -6  12    1.25    4.43
  -5  -6  12    2.37    3.97
  -4  -6  12   95.18    8.71
  -4  -6  12  101.58    8.67
  -3  -6  12  112.69    9.11
  -3  -6  12  116.72    8.35
  -2  -6  12  430.53   16.32
  -2  -6  12  400.08   17.30
  -1  -6  12   39.52    4.75
  -1  -6  12   53.32    6.28
   0  -6  12  270.32   12.98
   0  -6  12  278.76   10.91
   1  -6  12   93.84    7.51
   2  -6  12  785.12   25.84
   3  -6  12   34.89    4.95
   4  -6  12   27.50    4.58
   5  -6  12  137.91    8.67
   6  -6  12   45.79    8.10
   6  -6  12   52.40    5.80
   7  -6  12  883.77   28.34
   7  -6  12  864.17   35.15
   8  -6  12   79.25   10.79
   8  -6  12   69.85    7.12
   9  -6  12   46.40    9.93
  10  -6  12   46.38   10.59
  11  -6  12    9.93    8.90
  12  -6  12   71.80   13.72
  13  -6  12    8.28    9.62
  14  -6  12  118.05   17.01
  15  -6  12    8.96   11.76
 -12  -5  12   41.92    9.47
 -11  -5  12  108.04   12.75
 -10  -5  12  112.62   12.32
  -9  -5  12    8.49    5.74
  -8  -5  12   19.90    6.54
  -7  -5  12   43.24    7.45
  -6  -5  12  109.77    9.57
  -6  -5  12  120.67    9.81
  -5  -5  12  569.58   22.92
  -5  -5  12  605.03   22.64
  -4  -5  12   26.05    5.21
  -4  -5  12   25.29    5.02
  -3  -5  12   93.71    7.34
  -3  -5  12   88.04    7.24
  -2  -5  12  663.16   23.14
  -2  -5  12  633.52   21.31
  -1  -5  12  101.42    6.31
  -1  -5  12   90.41    7.77
   0  -5  12 1733.33   49.08
   0  -5  12 1664.35   45.35
   1  -5  12   30.40    4.74
   2  -5  12  704.71   23.68
   3  -5  12  770.25   25.27
   4  -5  12   26.45    4.45
   5  -5  12 1083.47   40.13
   5  -5  12 1099.78   33.46
   6  -5  12   80.85    7.12
   6  -5  12   74.59    9.50
   7  -5  12  311.52   18.23
   7  -5  12  324.42   14.14
   8  -5  12   30.60    5.56
   8  -5  12   36.10    8.54
   9  -5  12   78.75   11.26
   9  -5  12   63.31    7.32
  10  -5  12   58.57   11.26
  11  -5  12   31.71   10.27
  12  -5  12   20.14   10.58
  13  -5  12   10.09    9.50
  14  -5  12    9.39   10.85
  15  -5  12   12.30   11.84
 -13  -4  12   65.12   11.63
 -12  -4  12   12.49    7.82
 -11  -4  12   33.44    7.71
 -11  -4  12   26.43    7.95
 -10  -4  12    3.84    5.33
 -10  -4  12    5.83    5.93
  -9  -4  12    5.80    5.48
  -9  -4  12    1.44    4.42
  -8  -4  12  118.18   10.36
  -8  -4  12  125.01   10.99
  -7  -4  12  489.53   21.02
  -7  -4  12  477.18   20.71
  -6  -4  12   -1.83    3.36
  -6  -4  12    5.80    4.34
  -5  -4  12   41.92    5.99
  -5  -4  12   39.65    5.89
  -4  -4  12  271.25   13.07
  -4  -4  12  269.67   12.47
  -3  -4  12  319.77   13.33
  -3  -4  12  357.79   14.80
  -2  -4  12  769.94   23.32
  -2  -4  12  744.57   25.31
  -1  -4  12   28.06    3.26
  -1  -4  12   24.30    4.59
   0  -4  12 1303.52   38.76
   1  -4  12  194.72   10.14
   2  -4  12   20.46    4.15
   3  -4  12   57.84    5.91
   4  -4  12   78.37    6.67
   5  -4  12  235.01   14.53
   5  -4  12  230.02   11.52
   6  -4  12   77.57    7.10
   6  -4  12  107.35   10.18
   7  -4  12  898.07   36.22
   7  -4  12  964.35   30.71
   8  -4  12   -0.60    5.63
   8  -4  12    2.31    4.61
   9  -4  12   63.58    8.03
   9  -4  12   78.94   11.28
  10  -4  12  126.38   14.23
  11  -4  12  306.93   21.68
  12  -4  12   14.59   10.25
  13  -4  12   -4.41    8.53
  14  -4  12   83.51   15.42
  15  -4  12    7.56   12.50
 -13  -3  12   51.73   10.15
 -12  -3  12   18.85    8.05
 -11  -3  12   -2.41    5.82
 -11  -3  12    3.27    5.05
 -10  -3  12   77.13    9.12
 -10  -3  12   59.43    9.27
  -9  -3  12  383.31   19.34
  -9  -3  12  396.57   19.01
  -8  -3  12   55.82    7.95
  -8  -3  12   65.11    8.13
  -7  -3  12  158.54   10.93
  -7  -3  12  173.82   11.36
  -6  -3  12  105.09    8.66
  -6  -3  12  105.69    8.59
  -5  -3  12  615.06   22.04
  -5  -3  12  586.06   21.48
  -4  -3  12  292.17   13.36
  -4  -3  12  292.22   12.72
  -3  -3  12   30.33    4.52
  -3  -3  12   29.97    4.07
  -2  -3  12  684.01   23.02
  -2  -3  12  655.29   20.23
  -1  -3  12  210.54   10.33
  -1  -3  12  199.82    7.75
   0  -3  12    4.00    3.07
   1  -3  12    3.94    2.88
   2  -3  12 1152.20   34.87
   3  -3  12   56.89    5.95
   4  -3  12   60.68    7.80
   4  -3  12   57.10    6.15
   5  -3  12  838.42   27.56
   5  -3  12  831.46   32.12
   6  -3  12  112.22    8.68
   6  -3  12  123.68   10.95
   7  -3  12    3.40    5.36
   7  -3  12    5.16    4.52
   8  -3  12   56.80    9.80
   8  -3  12   53.44    7.32
   9  -3  12  354.15   17.12
   9  -3  12  322.64   20.14
  10  -3  12   -2.91    7.33
  11  -3  12   48.77   11.68
  12  -3  12   41.15   11.54
  13  -3  12   19.95   12.07
 -14  -2  12   35.05    9.51
 -13  -2  12   26.22    8.82
 -12  -2  12    1.14    6.17
 -11  -2  12   87.12   10.80
 -10  -2  12  159.04   11.61
 -10  -2  12  131.17   11.73
  -9  -2  12   65.79    7.88
  -9  -2  12   68.26    8.86
  -8  -2  12    3.72    3.94
  -8  -2  12   -0.46    4.36
  -7  -2  12  254.71   13.12
  -7  -2  12  259.89   13.66
  -6  -2  12  101.78    8.37
  -6  -2  12  108.28    8.03
  -5  -2  12    3.22    2.79
  -5  -2  12    3.77    3.43
  -4  -2  12   21.43    4.07
  -4  -2  12   24.57    4.34
  -3  -2  12  764.26   25.24
  -3  -2  12  761.91   23.27
  -2  -2  12   22.91    3.18
  -2  -2  12   23.92    4.30
  -1  -2  12    2.50    2.49
   0  -2  12 2040.46   57.23
   1  -2  12   11.21    3.45
   2  -2  12   85.26    6.95
   3  -2  12  247.41   11.94
   4  -2  12  221.22   11.54
   4  -2  12  229.61   13.47
   5  -2  12    8.98    4.50
   5  -2  12    1.82    3.54
   6  -2  12    8.48    5.35
   6  -2  12    9.33    4.38
   7  -2  12  417.75   21.13
   7  -2  12  382.92   17.68
   8  -2  12   16.57    6.34
   8  -2  12   15.93    7.18
   9  -2  12    3.11    6.82
   9  -2  12    2.10    5.53
  10  -2  12   36.78    8.01
  10  -2  12   30.05    9.37
  11  -2  12   15.76    9.29
 -14  -1  12    3.44    7.35
 -13  -1  12   29.08    8.91
 -12  -1  12   83.93   10.96
 -11  -1  12  102.92   11.35
 -10  -1  12    6.31    4.65
 -10  -1  12   13.39    6.39
  -9  -1  12  299.41   14.84
  -9  -1  12  263.87   15.40
  -8  -1  12   10.20    4.03
  -8  -1  12   11.43    5.03
  -7  -1  12  149.82    9.22
  -7  -1  12  119.93    9.78
  -6  -1  12    9.51    4.20
  -6  -1  12    6.33    3.00
  -5  -1  12  139.79    8.40
  -5  -1  12  129.60    8.34
  -4  -1  12   32.10    4.16
  -4  -1  12   30.01    4.43
  -3  -1  12   46.51    4.66
  -3  -1  12   37.88    5.02
  -2  -1  12 1155.60   35.30
  -2  -1  12 1177.30   32.62
  -1  -1  12    6.72    2.30
  -1  -1  12    9.38    3.25
   0  -1  12 1589.93   46.09
   1  -1  12  110.86    7.70
   2  -1  12 1675.42   48.72
   3  -1  12  186.76   11.62
   3  -1  12  187.78   10.64
   4  -1  12  458.83   18.68
   4  -1  12  484.97   20.82
   5  -1  12  622.28   25.49
   5  -1  12  605.28   22.89
   6  -1  12   14.03    5.66
   6  -1  12    8.66    5.11
   7  -1  12  159.55   11.57
   7  -1  12  168.60   13.34
   8  -1  12   -0.11    6.23
   8  -1  12   -5.45    4.94
   9  -1  12    3.59    5.80
   9  -1  12   21.05    8.72
  10  -1  12   50.29    9.34
 -15   0  12    8.88    8.05
 -14   0  12   86.76   12.67
 -13   0  12   16.18    7.49
 -12   0  12   27.95    7.60
 -11   0  12    8.35    6.19
 -10   0  12   29.97    5.85
 -10   0  12   36.60    7.29
  -9   0  12   43.59    6.41
  -9   0  12   42.82    7.38
  -8   0  12  120.88    8.69
  -8   0  12  118.36    9.73
  -7   0  12  223.76   12.38
  -7   0  12  228.85   11.55
  -6   0  12   43.78    5.93
  -6   0  12   44.85    5.55
  -5   0  12 1056.63   33.24
  -5   0  12 1080.14   32.76
  -4   0  12   74.76    6.30
  -4   0  12   78.16    6.21
  -3   0  12   65.41    5.93
  -3   0  12   59.10    5.26
  -2   0  12   83.53    6.38
  -2   0  12   74.53    5.53
  -1   0  12  111.62    7.53
  -1   0  12   89.52    5.91
   0   0  12 2611.55   72.67
   0   0  12 2697.72   69.54
   1   0  12    0.16    2.46
   1   0  12    1.15    3.28
   2   0  12   53.48    6.27
  -2   0 -12   46.07    4.25
  -2   0 -12   47.72    4.48
   3   0  12  216.06   11.92
   4   0  12    3.40    2.88
   4   0  12    6.26    4.14
   5   0  12   96.08    9.07
   6   0  12  107.66   10.22
   7   0  12    0.76    5.05
   8   0  12   66.83    9.41
   9   0  12  431.74   21.73
  10   0  12   54.92   10.47
 -15   1  12   20.86    8.97
 -14   1  12   14.03    7.48
 -13   1  12   -5.66    5.42
 -12   1  12   34.66    8.13
 -11   1  12   17.84    6.74
 -10   1  12  167.92   12.35
  -9   1  12  471.49   18.66
  -9   1  12  464.83   20.38
  -8   1  12    6.97    3.38
  -8   1  12    8.00    4.76
  -7   1  12  884.93   30.12
  -7   1  12  918.14   29.61
  -6   1  12   71.37    6.35
  -6   1  12   62.89    6.72
  -5   1  12  212.15   10.89
  -5   1  12  231.90   11.17
  -4   1  12   58.42    5.88
  -4   1  12   68.83    5.98
  -3   1  12  251.40   11.77
  -3   1  12  245.46   10.87
  -2   1  12 1699.75   46.60
  -2   1  12 1665.73   48.54
  -1   1  12   -0.56    2.67
  -1   1  12   -0.17    2.49
   0   1  12  405.79   14.51
   0   1  12  411.97   16.59
   1   1  12   26.36    5.13
   1   1  12   30.38    4.38
  -2  -1 -12    0.88    2.71
   2   1  12    9.52    4.00
  -2  -1 -12    9.17    3.00
   2   1  12    1.60    3.72
   3   1  12  102.88    8.63
  -3  -1 -12   93.04    6.73
   3   1  12  108.18    8.92
   4   1  12  621.51   25.13
   4   1  12  668.58   24.78
   5   1  12   76.55    9.09
   6   1  12    3.98    5.15
   7   1  12  587.80   25.06
   8   1  12    4.84    6.60
   9   1  12   47.99    9.80
  10   1  12    4.14    7.15
 -15   2  12   13.79    8.49
 -14   2  12   52.87   10.53
 -13   2  12   27.96    7.73
 -12   2  12   70.16   10.13
 -11   2  12   65.09    9.21
 -10   2  12   74.66    9.27
  -9   2  12  101.29   10.22
  -8   2  12   92.04    7.34
  -8   2  12   81.36    8.59
  -7   2  12  323.59   15.16
  -7   2  12  335.79   14.46
  -6   2  12   81.46    6.76
  -6   2  12   79.87    7.27
  -5   2  12  855.25   27.93
  -5   2  12  863.68   27.75
  -4   2  12  226.32   11.13
  -4   2  12  214.47   10.87
  -3   2  12  181.62    9.82
  -3   2  12  207.56   10.59
  -2   2  12   64.39    5.90
  -2   2  12   62.18    6.43
  -1   2  12   35.10    4.74
  -1   2  12   31.57    5.26
   0   2  12  192.51   11.31
   0   2  12  202.11    9.99
   1   2  12    8.18    4.15
   1   2  12    8.36    3.86
  -2  -2 -12  873.92   27.59
   2   2  12  904.09   30.67
  -2  -2 -12  876.83   28.06
   3   2  12   41.00    6.83
  -3  -2 -12   49.51    5.76
   4   2  12   95.87    9.77
   5   2  12  307.61   16.80
   6   2  12   61.44    9.23
   7   2  12   87.06   10.89
   8   2  12   -4.89    6.28
   9   2  12   -1.48    6.93
  10   2  12   49.70   10.44
  11   2  12   53.06   12.17
 -15   3  12   -1.96    7.55
 -14   3  12   88.74   12.51
 -13   3  12    7.25    6.74
 -12   3  12    6.60    6.61
 -11   3  12   22.53    7.16
 -10   3  12  152.12   11.78
  -9   3  12   35.42    6.96
  -9   3  12   22.69    4.46
  -8   3  12   31.99    4.66
  -8   3  12   28.84    6.39
  -7   3  12 1015.30   31.64
  -7   3  12  957.46   32.04
  -6   3  12  118.43    8.14
  -6   3  12  114.53    8.83
  -5   3  12    2.02    3.70
  -5   3  12    4.60    3.02
  -4   3  12  519.16   19.14
  -4   3  12  526.61   19.70
  -3   3  12  240.73   11.88
  -3   3  12  227.53   11.41
  -2   3  12    3.37    3.71
  -2   3  12   10.79    3.79
  -1   3  12    5.04    3.84
  -1   3  12    6.43    3.95
   0   3  12 2104.50   61.52
   0   3  12 2163.30   59.59
   1   3  12   -3.06    3.48
   1   3  12   -0.84    3.95
  -2  -3 -12   51.25    6.01
  -2  -3 -12   54.13    6.27
   2   3  12   46.39    7.30
   3   3  12    7.64    5.25
  -3  -3 -12   21.65    4.63
   4   3  12    1.24    5.08
   5   3  12   41.92    8.20
   6   3  12  140.03   12.62
   7   3  12   13.81    7.65
   8   3  12   37.50    9.20
   9   3  12   52.03   10.66
  10   3  12   52.01   11.61
  11   3  12   82.15   14.99
 -15   4  12    7.41    8.31
 -14   4  12   -2.55    7.08
 -13   4  12    6.25    6.67
 -12   4  12  284.73   17.83
 -11   4  12   23.96    6.92
 -10   4  12   51.56    8.23
  -9   4  12   71.66    8.59
  -8   4  12    5.68    4.91
  -8   4  12    1.81    2.04
  -7   4  12    2.65    3.11
  -7   4  12   -2.42    4.42
  -6   4  12   11.93    3.80
  -6   4  12    2.86    4.19
  -5   4  12  661.52   23.34
  -5   4  12  611.11   22.53
  -4   4  12    0.96    3.91
  -4   4  12    3.70    3.32
  -3   4  12  117.66    9.07
  -3   4  12  109.41    8.39
  -2   4  12  901.25   29.14
  -2   4  12  890.41   30.42
  -1   4  12   -4.66    3.55
  -1   4  12   -1.11    4.10
   0   4  12  110.14    9.50
   0   4  12  115.02    9.14
   1   4  12   -0.87    3.91
  -2  -4 -12   -2.79    2.24
   2   4  12    6.66    5.06
  -2  -4 -12   -4.19    2.40
   3   4  12   13.37    5.83
  -3  -4 -12    1.46    3.48
   4   4  12   71.41    9.86
   5   4  12   -5.79    5.36
   6   4  12   75.14   11.02
   7   4  12   91.90   12.40
   8   4  12   38.47   10.05
   9   4  12  103.05   14.39
  10   4  12   -4.69    9.08
 -15   5  12    7.93    8.31
 -14   5  12  113.59   13.63
 -13   5  12   15.73    7.27
 -12   5  12   27.93    8.60
 -11   5  12   15.25    6.50
 -10   5  12   51.48    8.25
  -9   5  12   71.10    8.83
  -8   5  12   58.78    8.07
  -7   5  12  408.17   16.87
  -7   5  12  401.53   17.98
  -6   5  12    6.13    4.77
  -6   5  12    4.18    3.74
  -5   5  12   98.33    8.62
  -5   5  12   97.51    8.94
  -4   5  12  680.41   23.83
  -4   5  12  613.71   23.76
  -3   5  12   37.97    6.64
  -3   5  12   41.60    6.67
  -2   5  12   48.21    6.85
  -2   5  12   42.15    6.94
  -1   5  12    2.45    4.31
  -1   5  12    3.18    4.31
   0   5  12   50.13    7.22
   0   5  12   44.00    7.55
  -1  -5 -12   11.35    4.61
   1   5  12    4.42    5.34
  -1  -5 -12    9.07    4.48
   2   5  12  172.55   12.76
  -2  -5 -12  168.96   11.21
  -2  -5 -12  165.95   11.35
   3   5  12   45.54    8.46
   4   5  12  105.43   12.16
   5   5  12  154.26   13.86
   6   5  12   20.04    8.84
   7   5  12  141.44   15.17
   8   5  12   -9.11    7.17
 -15   6  12    6.58    7.85
 -14   6  12    9.87    8.02
 -13   6  12    2.35    6.27
 -12   6  12   77.27   10.66
 -11   6  12   38.98    8.35
 -10   6  12  123.52   11.39
  -9   6  12  324.09   17.08
  -8   6  12   22.49    6.70
  -7   6  12  161.28   10.65
  -7   6  12  163.46   11.51
  -6   6  12   86.28    8.51
  -6   6  12  105.88    9.97
  -5   6  12   66.52    7.78
  -5   6  12   69.57    8.28
  -4   6  12   80.01    8.57
  -4   6  12   92.67    9.06
  -3   6  12   21.66    6.24
  -3   6  12   15.46    5.25
  -2   6  12   15.19    5.59
  -2   6  12   16.15    5.53
  -1   6  12    0.15    4.57
  -1   6  12   12.03    5.30
   0   6  12  294.96   15.63
   0   6  12  314.03   17.20
   1   6  12   15.86    6.48
  -1  -6 -12    4.18    5.01
  -1  -6 -12   10.44    5.00
   2   6  12  244.97   16.45
  -2  -6 -12  263.42   14.84
  -2  -6 -12  241.39   14.02
   3   6  12   64.10   10.33
   4   6  12   -2.13    6.49
   5   6  12   82.62   12.33
   6   6  12   14.02    8.28
   7   6  12   31.03   10.35
 -15   7  12    0.03    7.58
 -14   7  12   47.45   10.38
 -13   7  12    7.94    7.08
 -12   7  12   41.19    9.25
 -11   7  12  308.68   17.82
 -10   7  12   11.78    6.28
  -9   7  12    3.91    5.58
  -8   7  12   -0.44    5.41
  -7   7  12    2.48    5.35
  -7   7  12    5.98    4.65
  -6   7  12   13.66    6.12
  -6   7  12    7.34    5.00
  -5   7  12  336.68   16.84
  -5   7  12  326.28   16.51
  -4   7  12   -6.28    4.27
  -4   7  12    0.95    5.16
  -3   7  12    9.30    5.97
  -3   7  12   15.34    5.99
  -2   7  12  195.57   12.93
  -2   7  12  166.17   12.76
  -1   7  12   10.38    6.20
  -1   7  12   14.87    6.36
   0   7  12  398.72   19.48
   0   7  12  442.74   21.52
  -1  -7 -12   12.97    5.42
  -1  -7 -12    5.94    4.91
   1   7  12    0.78    6.04
   2   7  12   38.20    9.47
  -2  -7 -12   34.54    7.37
  -2  -7 -12   45.43    8.06
   3   7  12   36.85    9.40
   4   7  12   32.00    9.54
   5   7  12   51.78   10.70
   6   7  12   43.70   10.61
 -15   8  12   11.63    8.78
 -14   8  12   77.91   12.34
 -13   8  12   11.00    7.51
 -12   8  12   12.55    7.35
 -11   8  12   49.77    9.84
 -10   8  12   42.34    8.60
  -9   8  12   17.45    7.01
  -8   8  12   83.71   10.45
  -7   8  12  634.29   25.99
  -7   8  12  630.32   25.47
  -6   8  12   63.25    9.13
  -6   8  12   59.84    8.63
  -5   8  12   55.50    9.02
  -5   8  12   46.89    8.33
  -4   8  12   69.12    9.51
  -4   8  12   92.14   10.48
  -3   8  12   42.65    8.19
  -3   8  12   48.68    8.66
  -2   8  12  274.60   17.05
  -2   8  12  253.67   15.81
  -1   8  12    4.36    6.30
  -1   8  12    1.50    5.99
   0   8  12   31.83    8.81
  -1  -8 -12    7.82    5.87
   1   8  12    3.27    6.85
  -1  -8 -12    3.69    5.76
   2   8  12  134.00   14.45
   3   8  12   57.76   11.26
   4   8  12  198.00   17.56
   5   8  12    0.34    9.60
 -15   9  12    1.34    8.53
 -14   9  12   34.06    9.44
 -13   9  12    1.26    6.76
 -12   9  12   37.56    9.12
 -11   9  12   15.30    7.50
 -10   9  12   38.59    9.33
  -9   9  12  432.40   21.67
  -8   9  12    5.25    6.56
  -7   9  12   99.62   11.37
  -6   9  12  169.14   13.33
  -6   9  12  164.52   13.08
  -5   9  12   -1.57    5.55
  -5   9  12    8.07    6.91
  -4   9  12  110.31   12.04
  -4   9  12  128.00   11.97
  -3   9  12   77.38   10.88
  -3   9  12   88.17   10.84
  -2   9  12   28.04    8.48
  -2   9  12   37.28    8.97
  -1   9  12    3.30    7.06
  -1   9  12   14.22    7.74
   0   9  12  145.13   14.86
   0  -9 -12  166.48   13.28
   0  -9 -12  140.11   13.00
  -1  -9 -12   12.03    7.19
  -1  -9 -12   -4.62    6.17
   1   9  12   -4.34    6.87
   3   9  12    8.90    5.29
 -14  10  12   66.02   12.17
 -13  10  12   16.38    8.36
 -12  10  12   20.58    8.26
 -11  10  12  178.41   14.85
 -10  10  12   68.23   11.02
  -9  10  12   59.25   10.05
  -8  10  12    7.37    7.17
  -7  10  12   21.85    7.87
  -6  10  12   72.03   10.86
  -6  10  12   97.63   11.56
  -5  10  12  193.52   14.98
  -5  10  12  178.46   14.96
  -4  10  12    0.49    6.80
  -4  10  12    7.61    7.41
  -3  10  12   56.52   10.35
  -3  10  12   46.63   10.25
  -2  10  12  102.90   12.55
  -2  10  12  119.09   13.67
  -1  10  12    9.75    8.02
  -1  10  12   10.12    8.04
   0 -10 -12  293.83   18.43
   0  10  12  319.66   20.72
   0 -10 -12  321.31   19.41
   1  10  12    3.31    5.25
   2  10  12   -7.12    4.90
 -14  11  12   -0.61    8.22
 -13  11  12   37.73   10.49
 -12  11  12  127.36   14.47
 -11  11  12   83.65   12.12
 -10  11  12   -2.38    7.11
  -9  11  12   24.81    8.96
  -8  11  12   56.20   10.86
  -7  11  12   96.07   12.34
  -6  11  12   10.82    8.54
  -5  11  12   88.90   12.53
  -5  11  12   94.62   12.46
  -4  11  12   64.19   11.48
  -4  11  12   53.56   11.11
  -3  11  12   45.42   10.90
  -3  11  12   61.10   11.36
  -2  11  12  273.36   19.45
  -2  11  12  262.08   18.17
   1 -11 -12   19.05    8.58
  -1  11  12    8.66    7.83
   1 -11 -12   12.29    7.69
   0 -11 -12   -4.17    6.07
   0 -11 -12    4.36    6.69
   0  11  12   -2.18    4.98
 -13  12  12   33.46   11.60
 -12  12  12    1.08    8.40
 -11  12  12    1.90    7.74
 -10  12  12   33.07   10.10
  -9  12  12   92.71   12.88
  -8  12  12   49.69   10.58
  -7  12  12  136.13   14.94
  -6  12  12   11.15    9.11
  -5  12  12   67.97   12.13
  -5  12  12   79.01   12.52
  -4  12  12  227.45   17.91
  -4  12  12  239.65   18.98
  -3  12  12   -5.94    8.81
  -3  12  12   -4.48    8.19
  -2  12  12    2.25    8.87
  -2  12  12    6.86    7.99
   1 -12 -12   21.83    7.21
   1 -12 -12    5.74    7.82
  -1  12  12   -9.90    8.22
 -11  13  12   58.39   12.41
 -10  13  12   61.51   12.27
  -9  13  12  137.23   15.35
  -8  13  12   -0.03    9.34
  -7  13  12   23.42    9.83
  -6  13  12   36.85   10.88
  -5  13  12   15.35   10.33
  -4  13  12   -2.06    9.13
  -4  13  12   -1.66    7.84
  -3  13  12   12.85   10.54
  -3  13  12   19.59   10.52
   2 -13 -12   -2.57    8.67
   2 -13 -12    1.03    7.92
  -7  14  12    9.76   11.15
   0 -18  13    6.73    8.09
   1 -18  13   11.17    7.75
   2 -18  13   13.53    7.58
  11 -18  13   24.47   10.25
  12 -18  13    1.86    8.64
  13 -18  13   -4.62    8.87
  -1 -17  13    2.22    7.61
   0 -17  13    8.12    7.25
   1 -17  13   53.22   10.05
   2 -17  13    3.63    6.26
   8 -17  13   30.71    9.48
   9 -17  13   23.87    8.73
  10 -17  13   23.35    8.98
  11 -17  13    2.50    7.24
  12 -17  13    8.15    8.51
  13 -17  13   49.16   12.62
  14 -17  13   15.21   10.55
  -3 -16  13   26.12    9.41
  -2 -16  13   19.78    8.39
  -1 -16  13   51.43   10.51
   0 -16  13   -2.06    6.04
   1 -16  13  151.66   13.77
   2 -16  13   20.29    7.43
   3 -16  13   34.34    7.73
   6 -16  13   24.93    8.70
   7 -16  13   10.79    6.97
   8 -16  13   72.76   12.13
   9 -16  13   21.33    8.54
  10 -16  13   79.14   12.13
  11 -16  13   52.81   11.49
  12 -16  13    2.56    7.02
  13 -16  13   29.07   10.62
  14 -16  13    5.91    8.70
  -4 -15  13   74.14   12.28
  -3 -15  13   38.12   10.01
  -2 -15  13   -5.67    5.65
  -1 -15  13  143.26   13.80
   0 -15  13    5.21    5.81
   1 -15  13   20.15    6.84
   2 -15  13   14.38    5.96
   2 -15  13   13.87    5.76
   3 -15  13   16.00    5.70
   3 -15  13   14.55    5.71
   5 -15  13   83.92   10.33
   6 -15  13  171.17   15.29
   7 -15  13    0.14    5.38
   8 -15  13   18.72    7.57
   9 -15  13   89.79   12.65
  10 -15  13    9.73    6.04
  11 -15  13   14.43    8.51
  12 -15  13   -0.96    7.62
  13 -15  13   38.21   10.52
  14 -15  13   18.25   10.24
  -5 -14  13   10.25    8.21
  -4 -14  13   11.04    8.07
  -3 -14  13  153.35   14.89
  -2 -14  13    9.95    6.49
  -1 -14  13   31.81    7.81
   0 -14  13   11.97    5.86
   1 -14  13    0.29    4.55
   2 -14  13   -1.61    3.99
   2 -14  13    2.49    4.28
   3 -14  13  267.31   15.04
   3 -14  13  256.82   14.58
   4 -14  13  221.47   14.83
   5 -14  13   26.19    6.72
   7 -14  13   19.04    7.87
   8 -14  13   29.82    8.04
   9 -14  13   13.33    6.74
  10 -14  13  219.47   17.68
  11 -14  13   23.78    8.52
  12 -14  13   14.44    7.86
  13 -14  13  129.04   16.33
  14 -14  13   33.11   10.73
  15 -14  13   15.34   11.06
  -6 -13  13   28.43    9.88
  -5 -13  13   34.90    9.57
  -4 -13  13    6.19    6.56
  -3 -13  13   28.51    8.02
  -2 -13  13    5.84    5.55
  -1 -13  13   -2.56    4.34
   0 -13  13    7.52    5.00
   1 -13  13  494.61   21.75
   2 -13  13   18.82    5.46
   2 -13  13   25.10    5.86
   3 -13  13    0.30    3.48
   3 -13  13    7.15    5.17
   3 -13  13    4.16    3.79
   4 -13  13   28.76    7.14
   5 -13  13    1.98    4.72
   6 -13  13   52.48    7.66
   7 -13  13    5.42    5.55
   8 -13  13  441.88   24.62
   9 -13  13   18.27    7.36
  10 -13  13    7.30    6.65
  11 -13  13  106.37   13.95
  12 -13  13   16.37    8.33
  13 -13  13   25.40    9.00
  14 -13  13   47.34   11.72
  15 -13  13   59.80   14.47
  -7 -12  13    4.14    8.30
  -6 -12  13   25.97    9.01
  -5 -12  13  -10.30    5.46
  -4 -12  13   90.52   11.47
  -3 -12  13   12.89    6.23
  -2 -12  13   -1.12    4.17
  -1 -12  13  466.85   21.39
   0 -12  13    4.97    4.88
   1 -12  13   10.18    4.42
   2 -12  13    3.39    3.51
   2 -12  13    6.21    4.02
   3 -12  13   84.29    7.64
   3 -12  13  104.13    8.23
   3 -12  13   90.01    9.67
   4 -12  13   10.82    5.22
   5 -12  13   11.42    4.90
   6 -12  13  159.73   10.89
   7 -12  13   13.78    5.98
   8 -12  13   12.70    6.20
   9 -12  13   25.29    8.30
  10 -12  13    0.99    5.44
  11 -12  13    2.80    6.24
  12 -12  13   94.11   13.66
  13 -12  13  204.48   18.24
  14 -12  13   54.65   12.77
  15 -12  13   26.53   10.83
  -8 -11  13    1.31    7.80
  -7 -11  13   -7.57    6.36
  -6 -11  13   79.72   12.42
  -5 -11  13    5.41    6.12
  -4 -11  13   11.50    6.15
  -3 -11  13  257.09   15.66
  -2 -11  13   20.82    6.09
  -1 -11  13   13.26    5.23
   1 -11  13  526.52   20.83
   2 -11  13   10.16    4.84
   2 -11  13   14.56    4.05
   2 -11  13   16.08    4.20
   3 -11  13   11.96    4.84
   4 -11  13   92.35    8.49
   5 -11  13   16.63    4.82
   6 -11  13   92.36    8.32
   7 -11  13   14.99    6.25
   8 -11  13  422.22   23.39
   9 -11  13   30.45    8.31
  10 -11  13  284.40   19.69
  11 -11  13  117.59   14.71
  12 -11  13   32.68    9.91
  13 -11  13   20.58    9.89
  14 -11  13   14.98    9.94
  15 -11  13    5.43    7.16
  -9 -10  13    1.22    7.78
  -8 -10  13  167.18   15.51
  -7 -10  13   12.41    7.84
  -6 -10  13   17.29    7.47
  -5 -10  13  100.83   11.79
  -4 -10  13  203.87   14.64
  -3 -10  13   -6.41    4.08
  -2 -10  13   -2.05    4.04
  -1 -10  13  497.20   20.41
   0 -10  13   -2.58    3.05
   1 -10  13   51.47    7.49
   1 -10  13   48.49    5.80
   2 -10  13  226.82   11.37
   2 -10  13  240.28   13.64
   3 -10  13    1.86    3.85
   4 -10  13   -0.15    3.32
   5 -10  13   27.96    5.27
   6 -10  13  295.78   13.87
   7 -10  13   -0.36    3.85
   7 -10  13    1.85    4.53
   8 -10  13  195.47   15.29
   9 -10  13  242.43   17.43
  10 -10  13   81.96   12.55
  11 -10  13   11.37    8.35
  12 -10  13    5.05    8.53
  13 -10  13   46.40   12.54
  14 -10  13   19.93   10.23
  15 -10  13  -11.49    6.64
 -10  -9  13   72.07   12.79
  -9  -9  13   26.46    9.91
  -8  -9  13   13.55    7.80
  -7  -9  13    0.85    6.60
  -6  -9  13  145.46   13.07
  -5  -9  13   27.62    7.82
  -4  -9  13   24.24    6.65
  -3  -9  13  104.84    9.79
  -2  -9  13    9.42    4.37
  -1  -9  13   57.60    7.89
  -1  -9  13   52.33    6.32
   0  -9  13    0.57    3.96
   0  -9  13   -2.38    2.45
   1  -9  13  131.27    8.05
   1  -9  13  125.86    9.91
   2  -9  13   15.03    4.82
   2  -9  13   21.51    3.69
   3  -9  13  904.67   30.30
   4  -9  13   66.16    7.03
   5  -9  13   11.64    4.09
   6  -9  13  807.08   27.02
   6  -9  13  808.29   34.06
   7  -9  13   42.89    8.37
   7  -9  13   36.35    5.66
   8  -9  13  414.52   23.58
   9  -9  13    4.35    6.73
  10  -9  13   34.35   10.15
  11  -9  13    2.42    8.06
  12  -9  13  128.31   16.21
  13  -9  13   93.78   15.35
  14  -9  13   87.08   15.81
  15  -9  13    2.34    7.33
 -11  -8  13    5.68    8.75
 -10  -8  13   -0.73    6.65
  -9  -8  13   20.47    8.31
  -8  -8  13   76.10   11.51
  -7  -8  13    3.78    6.03
  -6  -8  13  173.70   13.38
  -5  -8  13    0.86    4.16
  -4  -8  13   15.39    5.65
  -3  -8  13   14.60    4.90
  -2  -8  13  216.18   12.13
  -2  -8  13  247.38   14.02
  -1  -8  13  134.29    8.75
  -1  -8  13  146.83   10.70
   0  -8  13   12.50    4.50
   1  -8  13 1401.33   43.18
   1  -8  13 1402.11   40.06
   2  -8  13   81.05    7.46
   3  -8  13  199.87   11.25
   4  -8  13  256.23   12.51
   5  -8  13    3.91    3.60
   6  -8  13  554.40   26.57
   6  -8  13  546.30   20.28
   7  -8  13  369.08   21.05
   7  -8  13  364.22   15.44
   8  -8  13   13.79    7.09
   8  -8  13   12.85    4.51
   9  -8  13    4.38    6.52
  10  -8  13  101.17   13.71
  11  -8  13  227.57   18.93
  12  -8  13  304.82   22.27
  13  -8  13   12.59    9.88
  14  -8  13   62.68   13.80
  15  -8  13    4.98    7.56
 -11  -7  13   16.99    8.18
 -10  -7  13    3.94    6.91
  -9  -7  13   13.93    7.64
  -8  -7  13    9.12    6.57
  -7  -7  13   15.76    7.30
  -6  -7  13   43.51    7.84
  -5  -7  13   11.76    5.10
  -4  -7  13   76.93    8.60
  -4  -7  13   86.73    8.58
  -3  -7  13    8.17    4.25
  -3  -7  13   10.92    4.07
  -2  -7  13   17.14    4.57
  -2  -7  13   11.94    4.70
  -1  -7  13 1356.02   42.60
  -1  -7  13 1379.21   40.35
   0  -7  13    3.06    3.43
   0  -7  13   -0.71    2.53
   1  -7  13  350.09   15.24
   1  -7  13  327.80   12.21
   2  -7  13   89.76    7.49
   3  -7  13   11.28    3.80
   4  -7  13  312.35   13.92
   5  -7  13  440.02   17.24
   6  -7  13  314.08   18.63
   6  -7  13  321.44   14.17
   7  -7  13   71.48    6.98
   7  -7  13   81.05   10.77
   8  -7  13  386.88   21.95
   8  -7  13  404.51   16.46
   9  -7  13  263.20   18.84
  10  -7  13  527.01   27.84
  11  -7  13   25.24    9.92
  12  -7  13   56.19   12.73
  13  -7  13   78.71   14.70
  14  -7  13   28.38   12.09
  15  -7  13   24.85   11.62
 -12  -6  13    2.87    7.30
 -11  -6  13    2.81    6.50
 -10  -6  13   46.53    9.78
  -9  -6  13   80.31   10.68
  -8  -6  13    2.50    5.34
  -7  -6  13   -0.46    4.28
  -7  -6  13    4.56    5.14
  -6  -6  13  150.81   11.50
  -6  -6  13  138.64   11.03
  -5  -6  13   12.27    4.68
  -5  -6  13   15.73    5.43
  -4  -6  13   -5.30    3.08
  -4  -6  13    0.93    3.54
  -3  -6  13  869.67   28.98
  -3  -6  13  908.55   30.98
  -2  -6  13   74.00    7.66
  -2  -6  13   77.19    6.74
  -1  -6  13  332.85   15.01
  -1  -6  13  319.85   12.74
   0  -6  13    1.92    2.95
   0  -6  13    1.20    2.07
   1  -6  13  624.01   22.52
   2  -6  13   11.67    3.96
   3  -6  13  753.11   25.47
   4  -6  13  117.92    8.16
   5  -6  13  319.31   14.16
   6  -6  13  130.23   12.31
   6  -6  13  153.35    9.64
   7  -6  13    2.78    3.77
   7  -6  13    8.23    6.29
   8  -6  13  912.10   29.68
   8  -6  13  847.95   36.48
   9  -6  13    9.92    8.00
  10  -6  13   59.07   11.58
  11  -6  13   21.73    9.95
  12  -6  13   69.16   13.58
  13  -6  13   29.13   10.95
  14  -6  13   10.78   10.70
  15  -6  13   59.78   15.70
 -12  -5  13   14.16    8.13
 -11  -5  13   52.92    9.91
 -11  -5  13   52.68    9.71
 -10  -5  13    0.58    5.89
 -10  -5  13    1.74    5.03
  -9  -5  13    3.33    5.07
  -9  -5  13    7.93    6.12
  -8  -5  13  440.81   20.80
  -8  -5  13  405.37   20.43
  -7  -5  13    6.39    4.59
  -7  -5  13    6.47    5.07
  -6  -5  13   63.60    7.96
  -6  -5  13   74.75    8.24
  -5  -5  13   25.09    5.54
  -5  -5  13   25.41    5.55
  -4  -5  13   70.13    6.94
  -4  -5  13   55.36    6.92
  -3  -5  13  183.69    9.84
  -3  -5  13  177.06   10.80
  -2  -5  13   98.08    7.74
  -2  -5  13  106.34    6.88
  -1  -5  13  577.15   21.18
  -1  -5  13  558.25   18.03
   0  -5  13    7.62    3.70
   1  -5  13  992.54   31.46
   2  -5  13  454.49   17.67
   3  -5  13  551.60   20.12
   4  -5  13   50.70    5.87
   5  -5  13    0.71    3.45
   5  -5  13    2.93    4.89
   6  -5  13 1609.91   56.86
   6  -5  13 1704.15   48.86
   7  -5  13   29.07    7.96
   7  -5  13   36.68    5.94
   8  -5  13    8.22    7.07
   8  -5  13    7.66    4.60
   9  -5  13   -0.79    4.81
   9  -5  13    1.95    6.82
  10  -5  13   53.69   11.23
  11  -5  13   85.65   13.87
  12  -5  13  246.35   20.35
  13  -5  13   93.31   15.16
  14  -5  13   28.60   12.08
  15  -5  13   75.75   16.20
 -13  -4  13   39.52   10.34
 -12  -4  13   -1.18    6.68
 -11  -4  13    7.17    6.35
 -11  -4  13   14.12    6.89
 -10  -4  13  158.41   13.48
 -10  -4  13  190.76   14.11
  -9  -4  13   20.54    6.42
  -9  -4  13   17.27    6.67
  -8  -4  13   15.71    5.80
  -8  -4  13   17.70    5.39
  -7  -4  13    9.07    5.32
  -7  -4  13   14.97    5.25
  -6  -4  13  274.45   14.46
  -6  -4  13  268.96   14.33
  -5  -4  13    8.05    3.81
  -5  -4  13   16.70    4.51
  -4  -4  13  204.88   10.86
  -4  -4  13  213.39   11.80
  -3  -4  13    7.73    3.37
  -3  -4  13   10.99    3.43
  -2  -4  13   11.18    3.64
  -2  -4  13   10.29    2.91
  -1  -4  13  955.91   27.37
  -1  -4  13 1001.85   31.36
   0  -4  13   -0.34    2.87
   1  -4  13 1277.64   38.66
   2  -4  13   37.08    5.41
   3  -4  13   47.73    5.79
   4  -4  13  150.65    9.30
   5  -4  13   28.93    5.25
   5  -4  13   36.94    7.06
   6  -4  13   31.45    5.67
   6  -4  13   37.56    7.83
   7  -4  13  106.49    9.17
   7  -4  13  113.69   11.47
   8  -4  13    4.46    4.85
   8  -4  13    6.76    6.48
   9  -4  13  263.62   14.74
   9  -4  13  272.96   18.72
  10  -4  13  720.94   33.90
  11  -4  13  114.85   14.94
  12  -4  13   77.33   13.96
  13  -4  13   72.13   14.27
  14  -4  13   11.76   11.43
 -13  -3  13   54.24   11.06
 -12  -3  13   -0.43    6.25
 -11  -3  13   27.95    6.85
 -11  -3  13   14.67    6.63
 -10  -3  13    8.16    5.70
 -10  -3  13    5.21    5.76
  -9  -3  13   28.87    7.08
  -9  -3  13   16.74    5.90
  -8  -3  13  375.25   17.73
  -8  -3  13  341.80   17.41
  -7  -3  13    1.34    3.55
  -7  -3  13    4.64    4.57
  -6  -3  13  743.59   25.90
  -6  -3  13  703.19   25.94
  -5  -3  13    5.19    3.67
  -5  -3  13    3.21    3.35
  -4  -3  13  286.04   12.26
  -4  -3  13  282.53   13.25
  -3  -3  13  705.43   21.94
  -3  -3  13  678.87   24.11
  -2  -3  13  434.57   14.46
  -2  -3  13  428.93   16.97
  -1  -3  13 1240.79   37.78
   0  -3  13    2.76    2.92
   1  -3  13  148.40    9.20
   2  -3  13  105.87    7.85
   3  -3  13   81.78    7.41
   4  -3  13   73.93    7.12
   4  -3  13   72.96    8.82
   5  -3  13  621.21   26.28
   5  -3  13  588.69   22.01
   6  -3  13   16.36    5.19
   6  -3  13   12.37    6.13
   7  -3  13    6.07    4.49
   7  -3  13    6.04    6.22
   8  -3  13  591.12   27.82
   8  -3  13  575.65   23.25
   9  -3  13   78.12    9.41
   9  -3  13   79.73   12.05
  10  -3  13   61.09   12.12
  11  -3  13   18.55   10.11
  12  -3  13    3.14    8.81
 -14  -2  13    7.54    8.36
 -13  -2  13   36.95    8.91
 -12  -2  13    5.46    6.23
 -11  -2  13   83.35   10.79
 -10  -2  13    1.34    5.68
 -10  -2  13   -4.86    3.60
  -9  -2  13   15.92    6.17
  -9  -2  13    9.16    4.72
  -8  -2  13  136.48   10.14
  -8  -2  13  133.36   10.78
  -7  -2  13   37.45    6.31
  -7  -2  13   52.80    6.60
  -6  -2  13  549.27   20.75
  -6  -2  13  512.26   20.14
  -5  -2  13  411.45   17.17
  -5  -2  13  433.16   16.67
  -4  -2  13   94.57    6.96
  -4  -2  13  114.51    7.81
  -3  -2  13  509.42   17.10
  -3  -2  13  517.89   19.32
  -2  -2  13   32.33    3.74
  -2  -2  13   34.30    5.03
  -1  -2  13  139.37    8.60
   0  -2  13    1.94    2.93
   1  -2  13  285.73   13.18
   2  -2  13  246.27   12.10
   3  -2  13 2130.85   60.64
   4  -2  13   56.36    7.68
   4  -2  13   46.85    6.39
   5  -2  13  104.34    8.83
   5  -2  13   97.14    9.61
   6  -2  13  725.91   29.97
   6  -2  13  698.52   25.86
   7  -2  13    3.32    5.43
   7  -2  13    2.67    6.26
   8  -2  13   42.86    9.51
   8  -2  13   34.16    7.42
   9  -2  13   12.41    7.82
   9  -2  13   10.00    6.58
  10  -2  13   31.95   10.55
  10  -2  13   15.59    7.34
 -14  -1  13   30.48    9.06
 -13  -1  13  104.91   12.80
 -12  -1  13    9.71    6.38
 -11  -1  13    0.71    5.27
 -10  -1  13  283.95   14.94
 -10  -1  13  247.20   15.58
  -9  -1  13  217.65   13.95
  -9  -1  13  221.30   12.96
  -8  -1  13  412.87   17.78
  -8  -1  13  377.32   17.96
  -7  -1  13  334.91   15.46
  -7  -1  13  303.09   14.93
  -6  -1  13  309.08   13.99
  -6  -1  13  301.33   14.03
  -5  -1  13  267.51   12.16
  -5  -1  13  265.29   12.74
  -4  -1  13   56.13    6.05
  -4  -1  13   49.60    5.37
  -3  -1  13   45.30    4.71
  -3  -1  13   54.10    5.90
  -2  -1  13  105.77    6.33
  -2  -1  13  116.75    7.79
  -1  -1  13  295.76   13.08
  -1  -1  13  276.04   10.41
   0  -1  13   13.79    3.72
   1  -1  13 2785.64   76.45
   2  -1  13   30.32    5.51
   3  -1  13   49.94    7.26
   3  -1  13   50.67    6.23
   4  -1  13  266.26   13.75
   4  -1  13  274.06   15.16
   5  -1  13   71.66    8.87
   5  -1  13   62.24    7.60
   6  -1  13   25.05    7.09
   6  -1  13   15.62    5.69
   7  -1  13  129.92   11.18
   7  -1  13  126.76   12.30
   8  -1  13   26.91    7.31
   8  -1  13   13.17    7.19
   9  -1  13    4.25    6.61
  10  -1  13  114.56   12.23
 -15   0  13   96.38   14.00
 -14   0  13   23.78    8.47
 -13   0  13    3.07    6.53
 -12   0  13   78.60   10.54
 -11   0  13  114.29   11.44
 -10   0  13   87.78    8.73
 -10   0  13   75.92    9.45
  -9   0  13    9.08    4.32
  -9   0  13    6.20    5.09
  -8   0  13   17.49    5.00
  -8   0  13   17.71    5.61
  -7   0  13   73.70    7.88
  -7   0  13   73.65    7.15
  -6   0  13  143.03    9.17
  -6   0  13  126.26    9.00
  -5   0  13   -0.27    2.84
  -5   0  13    1.04    3.21
  -4   0  13  143.20    8.95
  -4   0  13  154.72    8.49
  -3   0  13   76.94    6.50
  -3   0  13   71.72    5.98
  -2   0  13  229.60   11.44
  -2   0  13  221.69    9.76
  -1   0  13 2835.73   75.64
  -1   0  13 2960.80   79.44
   0   0  13    1.62    3.20
   0   0  13   -0.91    2.58
   1   0  13   76.20    7.36
   2   0  13  665.17   24.08
   3   0  13    1.50    2.76
   3   0  13    4.29    4.08
   4   0  13    5.83    4.45
   4   0  13    5.54    3.75
   5   0  13  412.65   18.83
   6   0  13   24.12    6.82
   7   0  13   47.04    8.39
   8   0  13  188.39   13.84
   9   0  13   60.19    9.80
  10   0  13  131.94   13.79
 -15   1  13  -15.44    6.86
 -14   1  13   36.94    9.72
 -13   1  13  134.58   13.87
 -12   1  13   30.48    8.16
 -11   1  13   -0.94    5.36
 -10   1  13   32.47    7.14
  -9   1  13    3.90    4.16
  -9   1  13   10.34    5.16
  -8   1  13  392.43   17.75
  -8   1  13  385.49   16.78
  -7   1  13    6.82    4.56
  -7   1  13    4.61    3.24
  -6   1  13 1674.00   48.97
  -6   1  13 1689.07   49.37
  -5   1  13   30.05    5.05
  -5   1  13   21.11    4.74
  -4   1  13   77.27    6.65
  -4   1  13   80.42    6.87
  -3   1  13 2218.19   59.20
  -3   1  13 2088.13   60.65
  -2   1  13   25.64    4.66
  -2   1  13   23.93    4.33
  -1   1  13   82.18    7.29
  -1   1  13   72.94    6.10
   0   1  13   -2.56    2.78
   0   1  13    2.91    3.52
   1   1  13   62.09    7.37
   2   1  13   63.00    7.53
   2   1  13   57.00    7.22
   3   1  13  839.40   30.55
   3   1  13  822.66   29.38
   4   1  13  201.75   12.86
   5   1  13   88.04    9.84
   6   1  13  203.74   14.05
   7   1  13   33.56    7.99
   8   1  13  186.01   14.51
   9   1  13   -5.12    6.73
  10   1  13   -6.98    7.47
 -15   2  13   53.42   11.71
 -14   2  13   43.90    9.73
 -13   2  13    6.82    7.23
 -12   2  13    9.23    6.09
 -11   2  13    1.61    5.76
 -10   2  13   74.00    9.62
  -9   2  13  272.72   13.63
  -9   2  13  267.59   14.94
  -8   2  13  941.94   30.08
  -8   2  13  846.13   30.58
  -7   2  13   43.93    5.89
  -7   2  13   40.36    6.62
  -6   2  13   19.02    5.48
  -6   2  13   31.25    5.24
  -5   2  13  638.73   22.12
  -5   2  13  587.82   22.08
  -4   2  13   61.63    6.54
  -4   2  13   61.42    6.52
  -3   2  13   39.57    5.44
  -3   2  13   49.59    5.95
  -2   2  13  709.95   25.16
  -2   2  13  704.36   23.07
  -1   2  13   52.04    6.56
  -1   2  13   48.67    5.73
   0   2  13   12.14    4.10
   0   2  13   12.09    4.50
   1   2  13 1523.61   46.66
   2   2  13   91.60    9.05
   3   2  13  220.19   13.41
   4   2  13  126.30   11.06
   5   2  13   29.19    7.74
   6   2  13  108.72   11.47
   7   2  13    6.27    6.71
   8   2  13   30.18    8.94
   9   2  13   -2.88    7.40
  10   2  13  -18.44    6.92
  11   2  13   25.50   10.93
 -15   3  13   41.44   10.32
 -14   3  13   56.53   10.61
 -13   3  13   37.88    9.05
 -12   3  13  121.36   12.35
 -11   3  13  218.87   14.83
 -10   3  13  506.55   22.38
  -9   3  13    5.57    2.56
  -9   3  13   16.11    5.89
  -8   3  13   -1.89    4.68
  -8   3  13    9.81    3.94
  -7   3  13  101.40    8.99
  -7   3  13  123.25    8.63
  -6   3  13   12.75    4.72
  -6   3  13   20.13    4.43
  -5   3  13   90.42    7.56
  -5   3  13   89.84    8.27
  -4   3  13  268.34   13.64
  -4   3  13  302.19   13.74
  -3   3  13    1.07    3.72
  -3   3  13    4.20    3.95
  -2   3  13   76.39    7.14
  -2   3  13   67.85    7.58
  -1   3  13 1660.24   47.39
  -1   3  13 1628.84   49.69
   0   3  13    1.86    4.09
   0   3  13   -0.25    3.74
   1   3  13  285.16   15.25
   2   3  13   19.47    6.01
   3   3  13   71.13    9.32
   4   3  13  120.52   11.69
   5   3  13   28.29    7.89
   6   3  13   53.10   10.13
   7   3  13   21.47    8.51
   8   3  13   -1.14    7.14
   9   3  13   23.29    9.66
  10   3  13   60.50   12.25
 -15   4  13   22.38    9.69
 -14   4  13   52.50   10.33
 -13   4  13   66.98   10.98
 -12   4  13  298.59   17.89
 -11   4  13   43.47    8.62
 -10   4  13   71.56    9.20
  -9   4  13    0.95    4.96
  -8   4  13   -2.88    4.61
  -8   4  13    5.95    3.50
  -7   4  13    7.82    3.72
  -7   4  13    4.43    4.68
  -6   4  13  800.58   27.65
  -6   4  13  738.27   26.78
  -5   4  13   90.10    8.57
  -5   4  13   68.66    7.38
  -4   4  13    5.94    4.06
  -4   4  13    5.63    4.67
  -3   4  13  835.38   29.36
  -3   4  13  838.92   27.98
  -2   4  13   81.20    8.45
  -2   4  13   95.61    8.39
  -1   4  13  313.80   15.62
  -1   4  13  290.81   14.19
   0   4  13   -0.23    4.30
   0   4  13   -1.77    4.10
   1   4  13   17.41    5.86
   2   4  13   50.82    8.62
   3   4  13   17.47    6.86
   4   4  13   28.31    7.74
   5   4  13   -1.10    5.95
   6   4  13   25.31    9.00
   7   4  13   10.51    8.11
   8   4  13   97.67   13.14
   9   4  13    8.81    8.85
 -15   5  13  151.97   16.04
 -14   5  13   86.00   12.14
 -13   5  13   19.31    8.38
 -12   5  13   57.06    9.76
 -11   5  13   14.56    6.49
 -10   5  13   49.10    8.51
  -9   5  13  284.73   16.02
  -8   5  13  607.91   24.08
  -8   5  13  563.05   22.21
  -7   5  13    4.04    4.43
  -7   5  13    3.20    5.33
  -6   5  13   14.45    4.79
  -6   5  13   14.07    5.82
  -5   5  13  478.69   19.88
  -5   5  13  479.58   20.14
  -4   5  13  210.04   12.58
  -4   5  13  227.18   12.81
  -3   5  13  233.92   13.07
  -3   5  13  246.40   13.68
  -2   5  13   22.50    5.87
  -2   5  13   19.39    5.81
  -1   5  13   18.01    5.57
  -1   5  13   10.80    5.27
   0   5  13   -1.07    4.71
   0   5  13    1.76    5.13
   1   5  13  380.75   19.32
   2   5  13   38.30    8.10
   3   5  13  298.24   17.81
   4   5  13    0.62    5.77
   5   5  13   18.83    8.51
   6   5  13  196.54   16.41
   7   5  13    4.73    7.82
   8   5  13   25.95   10.15
 -15   6  13   15.88    8.72
 -14   6  13   91.62   12.40
 -13   6  13   72.81   11.08
 -12   6  13   60.33   10.05
 -11   6  13   72.65   10.28
 -10   6  13  722.43   28.85
  -9   6  13   88.95   10.03
  -8   6  13   35.39    7.76
  -7   6  13  117.92    9.86
  -7   6  13  117.54   10.66
  -6   6  13   29.82    7.05
  -6   6  13   26.99    6.29
  -5   6  13   97.01    9.57
  -5   6  13   82.91    8.88
  -4   6  13  131.04   10.72
  -4   6  13  147.37   11.25
  -3   6  13   76.04    9.02
  -3   6  13   88.15    9.29
  -2   6  13   37.77    7.61
  -2   6  13   49.37    7.93
  -1   6  13  349.20   18.41
  -1   6  13  355.75   17.18
   0   6  13   -0.87    5.26
   0   6  13   -0.86    5.54
   1   6  13  370.25   20.03
   2   6  13    7.67    6.46
   3   6  13   10.81    7.39
   4   6  13   81.73   12.11
   5   6  13   -8.87    6.56
   6   6  13   -1.15    7.95
   7   6  13    7.47    9.25
 -15   7  13  118.92   15.11
 -14   7  13   25.55    8.97
 -13   7  13   17.52    8.28
 -12   7  13  220.84   15.74
 -11   7  13  104.31   11.73
 -10   7  13   82.03   10.69
  -9   7  13   12.04    6.66
  -8   7  13   16.23    6.88
  -7   7  13   42.13    8.25
  -7   7  13   52.75    7.62
  -6   7  13  248.17   14.73
  -6   7  13  257.84   14.83
  -5   7  13   30.58    7.37
  -5   7  13   25.17    6.75
  -4   7  13  121.21   10.59
  -4   7  13   88.95   10.02
  -3   7  13   21.60    7.23
  -3   7  13   32.85    7.34
  -2   7  13   25.01    7.12
  -2   7  13   21.83    7.23
  -1   7  13  418.01   19.88
  -1   7  13  396.14   20.66
   0   7  13   -5.30    5.75
   1   7  13   52.49    9.93
   2   7  13   13.36    7.51
   3   7  13   -1.30    7.75
   4   7  13    9.52    7.84
   5   7  13   75.87   12.92
 -15   8  13    8.76    9.82
 -14   8  13   26.82    9.78
 -13   8  13   74.05   11.81
 -12   8  13   72.02   11.13
 -11   8  13   14.56    7.43
 -10   8  13    1.70    7.03
  -9   8  13   10.08    6.90
  -8   8  13  238.03   15.26
  -7   8  13   39.63    8.45
  -7   8  13   47.69    8.25
  -6   8  13  147.13   12.05
  -6   8  13  128.03   11.50
  -5   8  13   33.12    7.93
  -5   8  13   32.70    7.96
  -4   8  13   26.58    7.80
  -4   8  13   30.12    7.88
  -3   8  13  377.05   19.21
  -3   8  13  349.61   19.49
  -2   8  13   15.57    7.05
  -2   8  13    9.18    7.12
  -1   8  13   54.58    9.80
  -1   8  13   37.52    8.64
   0   8  13   -3.57    6.07
   1   8  13   -4.12    7.03
   2   8  13   12.38    7.48
   3   8  13    2.55    5.30
   4   8  13   -2.18    8.22
 -14   9  13   29.23    9.18
 -13   9  13   67.45   12.11
 -12   9  13    7.76    6.99
 -11   9  13    6.95    7.47
 -10   9  13  123.24   12.97
  -9   9  13   89.50   11.57
  -8   9  13  193.65   14.53
  -7   9  13    5.33    6.67
  -6   9  13   62.90    9.90
  -6   9  13   53.27    9.49
  -5   9  13   10.10    7.15
  -5   9  13   13.12    7.53
  -4   9  13   11.46    7.42
  -4   9  13    3.72    6.92
  -3   9  13   27.80    8.31
  -3   9  13   27.89    8.48
  -2   9  13   22.84    8.03
  -2   9  13   42.21    9.39
  -1   9  13   -1.78    7.38
  -1   9  13   -4.89    6.89
   0   9  13    1.41    8.31
   1   9  13  110.34   14.12
   2   9  13    1.35    5.01
   3   9  13    4.41    5.43
 -14  10  13   38.17   10.83
 -13  10  13    6.27    8.05
 -12  10  13   77.26   12.01
 -11  10  13  159.17   15.29
 -10  10  13  107.31   12.98
  -9  10  13   -1.21    7.11
  -8  10  13   39.30    9.76
  -7  10  13   29.39    8.79
  -6  10  13   34.12    9.54
  -6  10  13    8.84    7.96
  -5  10  13   10.96    8.21
  -5  10  13   18.42    7.99
  -4  10  13   95.44   12.71
  -4  10  13  101.94   12.48
  -3  10  13   10.80    8.33
  -3  10  13    3.77    7.44
  -2  10  13    4.51    7.60
  -2  10  13   13.05    8.49
  -1  10  13  132.97   14.96
   0  10  13   -1.43    6.33
   1  10  13   -0.82    5.21
 -13  11  13   77.79   12.63
 -12  11  13   81.89   12.92
 -11  11  13    6.15    8.82
 -10  11  13    5.08    7.82
  -9  11  13    9.64    8.61
  -8  11  13    9.26    8.59
  -7  11  13   24.52    9.32
  -6  11  13  213.21   16.84
  -5  11  13   -8.11    6.85
  -5  11  13   -1.25    8.11
  -4  11  13   -5.04    7.51
  -4  11  13    9.17    8.26
  -3  11  13  155.73   15.51
  -3  11  13  145.77   15.53
  -2  11  13    8.34    8.47
  -2  11  13   17.19    9.66
  -1  11  13   12.04    7.98
   0  11  13    7.49    5.67
 -12  12  13    6.34    9.53
 -11  12  13    5.11    9.21
 -10  12  13    8.05    8.95
  -9  12  13   53.19   11.65
  -8  12  13  106.10   13.90
  -7  12  13   -4.90    8.35
  -6  12  13    7.09    8.89
  -5  12  13   82.01   13.24
  -5  12  13  102.68   13.92
  -4  12  13   -0.62    7.77
  -4  12  13   -0.10    8.86
  -3  12  13    8.09    9.34
  -3  12  13   -8.81    6.91
  -2  12  13    8.86    9.04
 -10  13  13   89.37   14.68
  -9  13  13    5.33    9.73
  -8  13  13    7.30    9.91
  -7  13  13   -0.99    9.51
  -6  13  13   38.97   11.46
  -5  13  13   -5.88    9.33
  -4  13  13   40.34   12.45
  -4  13  13   50.44   12.03
  -3  13  13   30.18   13.42
  10 -18  14   16.41    8.86
  11 -18  14  139.62   17.83
  12 -18  14   37.25   12.23
  13 -18  14   61.81   14.02
  -1 -17  14    5.16    7.42
   7 -17  14   11.32    8.03
   8 -17  14   -6.89    6.02
   9 -17  14  265.27   20.54
  10 -17  14   44.47   11.28
  11 -17  14   -0.45    7.42
  12 -17  14   -5.72    9.12
  13 -17  14   52.63   12.51
  -3 -16  14   35.94   10.60
  -2 -16  14   32.70    9.43
  -1 -16  14    7.07    6.74
   0 -16  14   41.62    9.21
   4 -16  14  162.63   14.57
   6 -16  14   20.57    8.28
   7 -16  14  302.24   21.37
   8 -16  14   25.21    9.02
   9 -16  14    9.97    7.27
  10 -16  14   15.17    8.06
  11 -16  14    6.64    7.96
  12 -16  14   25.39   10.11
  13 -16  14  199.04   18.96
  14 -16  14   66.16   14.71
  -4 -15  14   10.64    7.86
  -3 -15  14   -4.74    6.53
  -2 -15  14   87.25   11.86
  -1 -15  14   25.97    8.04
   0 -15  14   29.35    7.82
   4 -15  14   -0.03    6.24
   5 -15  14  107.21   11.28
   7 -15  14   16.48    7.36
   8 -15  14    9.36    7.09
   9 -15  14    2.73    6.35
  10 -15  14    5.63    7.01
  11 -15  14   92.59   13.80
  12 -15  14   79.30   14.17
  13 -15  14   96.99   15.12
  14 -15  14   17.96    9.90
  -5 -14  14    8.61    8.74
  -4 -14  14   14.42    8.13
  -3 -14  14   78.13   11.61
  -2 -14  14   23.60    7.42
  -1 -14  14    7.19    5.54
   0 -14  14  413.15   20.82
   1 -14  14    3.95    4.98
   3 -14  14   60.14    9.46
   4 -14  14  128.49   12.18
   5 -14  14   -4.39    4.75
   7 -14  14    9.32    6.55
   8 -14  14  118.14   14.16
   9 -14  14  556.07   29.76
  10 -14  14   69.64   11.89
  11 -14  14   97.02   13.90
  12 -14  14    0.62    7.69
  13 -14  14    7.50    8.46
  14 -14  14   33.84   10.77
  -6 -13  14   -5.37    7.91
  -5 -13  14   97.30   13.20
  -4 -13  14   52.58   10.48
  -3 -13  14    2.95    5.80
  -2 -13  14  292.27   17.52
  -1 -13  14   -0.63    4.64
   0 -13  14   15.72    5.64
   1 -13  14   24.24    6.05
   2 -13  14   45.25    8.30
   3 -13  14    1.79    5.46
   4 -13  14  246.58   15.14
   5 -13  14    1.39    4.62
   6 -13  14    9.71    5.23
   7 -13  14  318.20   20.84
   8 -13  14  352.75   22.18
   9 -13  14  428.95   25.07
  10 -13  14    6.87    6.58
  11 -13  14   25.35    9.07
  12 -13  14   11.00    8.05
  13 -13  14   34.85   10.78
  14 -13  14   84.12   14.60
  -7 -12  14   66.56   12.15
  -6 -12  14   42.82   10.52
  -5 -12  14   20.11    8.18
  -4 -12  14  142.65   13.31
  -3 -12  14    3.96    5.60
  -2 -12  14   10.04    5.57
  -1 -12  14   17.68    6.03
   0 -12  14   32.96    6.46
   1 -12  14    1.24    4.96
   2 -12  14  326.62   17.90
   3 -12  14   67.48    8.80
   4 -12  14   53.36    7.84
   5 -12  14  295.51   15.27
   6 -12  14   28.84    6.24
   7 -12  14  240.15   17.51
   8 -12  14   99.48   12.93
   9 -12  14    6.17    6.00
  10 -12  14   -1.87    5.83
  11 -12  14   72.42   12.18
  12 -12  14   79.65   13.39
  13 -12  14  152.28   17.64
  14 -12  14    0.85    8.16
  15 -12  14   -6.99    6.66
  -8 -11  14    7.04    8.17
  -7 -11  14   62.25   11.52
  -6 -11  14   73.82   11.51
  -5 -11  14    0.27    5.99
  -4 -11  14   10.48    6.06
  -3 -11  14   78.21    9.69
  -2 -11  14   33.72    7.11
  -1 -11  14   12.30    4.66
   0 -11  14  537.21   21.97
   0 -11  14  578.41   25.00
   1 -11  14   -2.54    4.21
   2 -11  14  191.77   12.90
   3 -11  14   33.21    6.56
   4 -11  14   39.64    6.54
   5 -11  14  102.31    8.82
   6 -11  14   64.53    7.33
   7 -11  14  345.43   21.04
   7 -11  14  348.15   15.83
   8 -11  14   25.42    7.33
   9 -11  14  223.33   17.12
  10 -11  14  217.12   17.03
  11 -11  14  161.46   15.43
  12 -11  14   12.97    9.44
  13 -11  14   38.84   11.99
  14 -11  14    4.55    7.62
  15 -11  14   -9.59    6.68
  -9 -10  14   33.02   10.40
  -8 -10  14   -9.58    6.83
  -7 -10  14   -1.85    6.31
  -6 -10  14   -4.48    5.52
  -5 -10  14  120.30   12.54
  -4 -10  14  132.63   12.33
  -3 -10  14    4.32    5.14
  -2 -10  14  305.72   15.83
  -1 -10  14   -0.24    3.81
  -1 -10  14    1.89    4.99
   0 -10  14  349.99   18.18
   0 -10  14  351.53   15.57
   1 -10  14    9.27    5.03
   2 -10  14   76.50    8.25
   3 -10  14   70.26    7.76
   4 -10  14  136.31    9.77
   5 -10  14  159.96   10.40
   6 -10  14  136.47    9.81
   7 -10  14  149.04   10.10
   7 -10  14  157.58   13.64
   8 -10  14  370.23   22.02
   9 -10  14  885.20   38.77
  10 -10  14    1.43    7.70
  11 -10  14    3.47    8.08
  12 -10  14   54.06   12.70
  13 -10  14   -0.88    9.37
  14 -10  14    3.00    8.62
  15 -10  14    4.03    7.03
 -10  -9  14   -9.72    7.10
  -9  -9  14   13.84    8.36
  -8  -9  14   -8.89    6.55
  -7  -9  14  279.96   18.19
  -6  -9  14   10.63    6.72
  -5  -9  14   -8.04    4.46
  -4  -9  14  262.32   15.66
  -3  -9  14   70.86    8.51
  -2  -9  14  201.36   12.36
  -2  -9  14  208.36   13.65
  -1  -9  14   11.39    4.22
  -1  -9  14    6.27    4.61
   0  -9  14   36.15    6.80
   0  -9  14   55.72    5.74
   1  -9  14    5.26    4.22
   2  -9  14  935.36   31.99
   3  -9  14   -1.02    3.27
   4  -9  14  395.18   17.04
   5  -9  14   73.31    7.42
   6  -9  14    3.71    4.14
   7  -9  14  984.20   31.89
   7  -9  14  977.26   40.56
   8  -9  14  158.20   15.05
   9  -9  14    5.57    6.90
  10  -9  14   56.09   11.65
  11  -9  14   21.47    9.60
  12  -9  14  141.99   17.44
  13  -9  14  105.06   16.03
  14  -9  14    4.92    9.33
  15  -9  14    0.76    7.32
 -10  -8  14   21.30    8.87
  -9  -8  14  239.53   17.54
  -8  -8  14   17.72    8.18
  -7  -8  14   21.29    7.09
  -6  -8  14   18.73    7.02
  -5  -8  14    2.46    4.94
  -4  -8  14   39.12    6.99
  -4  -8  14   35.23    7.20
  -3  -8  14   24.78    5.86
  -3  -8  14   23.04    5.75
  -2  -8  14   76.87    7.53
  -2  -8  14   76.06    8.71
  -1  -8  14    4.06    4.25
  -1  -8  14    9.55    3.79
   0  -8  14  941.16   29.78
   0  -8  14  977.56   32.82
   1  -8  14   54.20    7.03
   2  -8  14  652.18   23.95
   3  -8  14  404.13   17.06
   4  -8  14   19.09    4.80
   5  -8  14  436.01   17.81
   6  -8  14  166.82   10.50
   6  -8  14  156.67   14.15
   7  -8  14   94.98    8.48
   7  -8  14  102.71   12.51
   8  -8  14   19.69    7.13
   8  -8  14    9.33    4.82
   9  -8  14   -3.67    6.52
  10  -8  14  144.58   15.90
  11  -8  14  338.54   23.29
  12  -8  14  142.92   17.72
  13  -8  14   31.14   11.49
  14  -8  14   45.98   12.08
  15  -8  14   20.23   12.73
 -11  -7  14  127.61   14.73
 -11  -7  14  148.96   15.10
 -10  -7  14   26.40    8.37
 -10  -7  14   34.48    8.66
  -9  -7  14    6.41    5.99
  -9  -7  14   15.75    7.20
  -8  -7  14    1.31    5.40
  -8  -7  14   12.50    6.33
  -7  -7  14    4.74    5.76
  -7  -7  14    8.00    5.26
  -6  -7  14    4.89    5.02
  -6  -7  14   14.43    5.99
  -5  -7  14  258.77   15.55
  -5  -7  14  272.79   15.10
  -4  -7  14   30.90    6.35
  -4  -7  14   23.39    6.01
  -3  -7  14   56.97    7.68
  -3  -7  14   75.46    7.28
  -2  -7  14  866.27   28.50
  -2  -7  14  891.42   31.03
  -1  -7  14   50.64    5.53
  -1  -7  14   37.55    6.18
   0  -7  14 1012.26   33.49
   1  -7  14  115.62    8.95
   2  -7  14    6.33    3.86
   3  -7  14  184.90   10.74
   4  -7  14  343.93   15.24
   5  -7  14  295.25   14.06
   6  -7  14  392.07   21.75
   6  -7  14  400.07   16.94
   7  -7  14   23.68    8.28
   7  -7  14   14.22    4.66
   8  -7  14    5.80    4.18
   8  -7  14    3.75    6.47
   9  -7  14  618.16   30.22
  10  -7  14  104.38   14.16
  11  -7  14   74.71   13.29
  12  -7  14   52.18   12.47
  13  -7  14   12.46   10.55
  14  -7  14   16.16   11.04
  15  -7  14    6.75   11.69
 -12  -6  14   12.69    8.49
 -11  -6  14    3.87    6.75
 -11  -6  14   -3.15    6.56
 -10  -6  14    5.58    5.99
 -10  -6  14    9.15    7.28
  -9  -6  14    6.55    6.21
  -9  -6  14    6.73    5.61
  -8  -6  14  108.71   11.36
  -8  -6  14  111.45   11.80
  -7  -6  14  283.63   16.48
  -7  -6  14  314.10   17.66
  -6  -6  14   38.55    7.04
  -6  -6  14   31.05    6.78
  -5  -6  14   93.36    9.46
  -5  -6  14  100.29    9.18
  -4  -6  14  136.45    9.58
  -4  -6  14  109.63    9.39
  -3  -6  14    5.64    3.60
  -3  -6  14    6.12    3.75
  -2  -6  14  590.34   20.80
  -2  -6  14  628.99   23.45
  -1  -6  14  117.36    8.82
  -1  -6  14  102.04    6.94
   0  -6  14  234.51   12.41
   1  -6  14   11.59    3.98
   2  -6  14  473.83   18.76
   3  -6  14  118.28    8.60
   4  -6  14 1089.06   34.50
   5  -6  14   36.63    5.69
   6  -6  14   10.34    5.88
   6  -6  14    2.45    3.84
   7  -6  14 1178.91   36.77
   7  -6  14 1149.11   44.67
   8  -6  14   16.12    7.59
   8  -6  14   11.12    5.04
   9  -6  14   29.95    9.22
  10  -6  14    7.66    8.24
  11  -6  14    3.26    8.16
  12  -6  14   10.28    9.86
  13  -6  14   13.48   10.37
  14  -6  14  120.04   17.38
  15  -6  14   -0.23   12.60
 -12  -5  14    9.00    7.91
 -11  -5  14   -0.51    5.95
 -11  -5  14   -0.51    5.89
 -10  -5  14    7.34    6.16
 -10  -5  14   -2.56    5.27
  -9  -5  14  505.50   24.07
  -9  -5  14  510.34   24.00
  -8  -5  14  344.51   18.61
  -8  -5  14  336.38   18.32
  -7  -5  14  212.34   13.63
  -7  -5  14  218.63   14.03
  -6  -5  14   66.80    7.86
  -6  -5  14   50.31    7.44
  -5  -5  14  136.51   10.15
  -5  -5  14  136.05    9.79
  -4  -5  14  345.65   15.09
  -4  -5  14  357.28   16.39
  -3  -5  14  327.86   15.75
  -3  -5  14  356.58   14.27
  -2  -5  14    4.77    2.84
  -2  -5  14    8.46    3.66
  -1  -5  14   13.14    2.92
  -1  -5  14   24.92    5.09
   0  -5  14  220.00   11.65
   1  -5  14   64.23    6.72
   2  -5  14 2099.05   59.80
   3  -5  14  110.94    8.49
   4  -5  14  127.38    9.06
   5  -5  14  409.85   16.76
   5  -5  14  371.48   20.66
   6  -5  14   12.08    4.99
   6  -5  14   13.12    6.88
   7  -5  14   21.13    5.73
   7  -5  14   26.88    8.17
   8  -5  14   10.37    4.86
   8  -5  14    7.85    7.04
   9  -5  14  294.63   15.67
   9  -5  14  285.99   19.99
  10  -5  14   62.98   12.28
  11  -5  14    6.32    8.24
  12  -5  14   48.86   12.25
  13  -5  14   17.34   10.40
  14  -5  14  -13.98    8.70
 -13  -4  14   33.04    9.63
 -12  -4  14   33.88    9.16
 -11  -4  14   89.48   11.08
 -11  -4  14   83.83   11.30
 -10  -4  14   57.40    9.73
 -10  -4  14   53.40    8.93
  -9  -4  14  379.02   19.69
  -9  -4  14  370.24   19.13
  -8  -4  14  107.84   10.62
  -8  -4  14   83.61    9.23
  -7  -4  14  310.17   16.03
  -7  -4  14  306.08   16.07
  -6  -4  14  109.21    9.30
  -6  -4  14  106.02    8.98
  -5  -4  14   66.90    7.49
  -5  -4  14   78.61    7.64
  -4  -4  14   13.14    4.06
  -4  -4  14   13.16    4.29
  -3  -4  14  185.70    9.37
  -3  -4  14  177.72   10.68
  -2  -4  14  455.56   18.24
  -2  -4  14  457.59   15.41
  -1  -4  14   59.26    6.48
   0  -4  14 1860.19   53.93
   1  -4  14   17.19    4.46
   2  -4  14   35.68    5.69
   3  -4  14  274.97   13.39
   4  -4  14    3.72    3.67
   5  -4  14   14.71    4.89
   5  -4  14   18.03    6.26
   6  -4  14    0.83    3.86
   6  -4  14    7.28    5.69
   7  -4  14  141.21   10.43
   7  -4  14  134.34   12.81
   8  -4  14   12.16    5.60
   8  -4  14    2.68    7.23
   9  -4  14  124.01   14.17
   9  -4  14   98.99   10.20
  10  -4  14  218.80   18.31
  11  -4  14    1.27    9.01
  12  -4  14   72.99   13.53
  13  -4  14   22.61   11.87
 -13  -3  14  161.63   15.85
 -12  -3  14   83.42   11.61
 -11  -3  14   82.80   11.01
 -10  -3  14    3.97    4.71
 -10  -3  14    3.79    5.72
  -9  -3  14    4.52    4.24
  -9  -3  14    3.20    5.20
  -8  -3  14   24.44    5.56
  -8  -3  14   19.65    6.18
  -7  -3  14  136.36   10.30
  -7  -3  14  126.18   10.18
  -6  -3  14    6.97    4.11
  -6  -3  14    2.14    3.59
  -5  -3  14  404.44   17.65
  -5  -3  14  419.85   16.78
  -4  -3  14  342.12   15.63
  -4  -3  14  347.38   14.04
  -3  -3  14  128.31    8.74
  -3  -3  14  125.15    7.28
  -2  -3  14 1983.91   57.23
  -2  -3  14 1999.49   53.38
  -1  -3  14   10.20    3.56
   0  -3  14    0.65    3.00
   1  -3  14   31.88    5.42
   2  -3  14   44.74    6.27
   3  -3  14   16.73    4.65
   4  -3  14  560.32   21.84
   4  -3  14  603.47   25.78
   5  -3  14  128.35   11.78
   5  -3  14  129.44    9.52
   6  -3  14    0.44    4.27
   6  -3  14    9.36    6.25
   7  -3  14  605.43   28.08
   7  -3  14  625.30   24.24
   8  -3  14    7.57    5.82
   8  -3  14    8.63    7.08
   9  -3  14  105.63   10.83
   9  -3  14  100.58   13.19
  10  -3  14  -10.16    7.87
  11  -3  14   46.49   11.98
 -14  -2  14   38.20   10.47
 -13  -2  14   79.19   11.75
 -12  -2  14    2.77    6.85
 -11  -2  14   32.63    7.99
 -10  -2  14    3.84    6.10
 -10  -2  14    0.33    4.12
  -9  -2  14  203.36   12.64
  -9  -2  14  203.89   13.84
  -8  -2  14  361.57   17.34
  -8  -2  14  327.59   16.51
  -7  -2  14  859.93   30.51
  -7  -2  14  910.95   30.75
  -6  -2  14  155.57    9.96
  -6  -2  14  141.63   10.10
  -5  -2  14  247.22   13.03
  -5  -2  14  280.33   12.60
  -4  -2  14 1001.28   30.44
  -4  -2  14 1007.73   32.62
  -3  -2  14  113.51    7.05
  -3  -2  14  125.66    8.53
  -2  -2  14   26.77    4.80
  -2  -2  14   24.90    3.65
  -1  -2  14   42.01    5.68
   0  -2  14   37.40    5.65
   1  -2  14   18.85    4.65
   2  -2  14  735.13   25.63
   3  -2  14  333.94   15.47
   4  -2  14  148.73   11.34
   4  -2  14  132.60    9.77
   5  -2  14  265.85   14.13
   5  -2  14  279.61   16.52
   6  -2  14    7.68    5.23
   6  -2  14   -0.85    5.48
   7  -2  14  503.89   25.13
   7  -2  14  540.75   22.30
   8  -2  14   43.22    9.46
   8  -2  14   26.90    7.41
   9  -2  14  124.85   11.64
   9  -2  14  117.36   13.70
  10  -2  14   24.65    8.02
 -14  -1  14    9.86    8.28
 -13  -1  14   15.58    7.62
 -12  -1  14   15.21    6.99
 -11  -1  14   76.55   10.21
 -10  -1  14  204.51   13.03
 -10  -1  14  206.53   13.90
  -9  -1  14  912.45   33.02
  -9  -1  14  918.61   32.41
  -8  -1  14  137.15   10.37
  -8  -1  14  140.34   10.77
  -7  -1  14  110.99    8.98
  -7  -1  14  101.88    9.11
  -6  -1  14  364.49   15.75
  -6  -1  14  365.76   16.31
  -5  -1  14   39.62    6.11
  -5  -1  14   32.96    5.20
  -4  -1  14  105.49    7.47
  -4  -1  14  116.09    8.49
  -3  -1  14  246.90   10.54
  -3  -1  14  245.32   12.33
  -2  -1  14   48.97    5.99
  -2  -1  14   37.60    4.41
  -1  -1  14   15.39    4.14
   0  -1  14 1792.50   52.34
   1  -1  14    8.65    4.20
   2  -1  14  146.91   10.00
   3  -1  14  164.75   10.67
   3  -1  14  170.19   12.12
   4  -1  14  164.54   11.12
   4  -1  14  163.91   12.24
   5  -1  14  125.33   10.69
   5  -1  14  114.47    9.78
   6  -1  14  159.77   12.16
   6  -1  14  174.79   13.63
   7  -1  14  151.71   13.42
   7  -1  14  148.63   12.21
   8  -1  14   13.61    7.16
   9  -1  14   42.37    9.23
  10  -1  14   30.23    9.47
 -14   0  14   24.79    8.56
 -13   0  14   45.27    9.28
 -12   0  14   71.60   10.61
 -11   0  14  109.92   11.54
 -10   0  14    7.26    5.68
 -10   0  14    5.92    4.24
  -9   0  14   -2.03    4.06
  -9   0  14   -0.81    5.29
  -8   0  14   11.58    4.79
  -8   0  14   19.68    5.84
  -7   0  14   27.37    5.93
  -7   0  14   27.38    5.70
  -6   0  14    0.83    3.67
  -6   0  14    3.61    4.40
  -5   0  14  404.25   17.10
  -5   0  14  398.49   15.86
  -4   0  14    1.28    3.12
  -4   0  14    1.96    3.34
  -3   0  14   18.35    3.86
  -3   0  14   18.48    4.58
  -2   0  14  715.39   25.99
  -2   0  14  791.29   23.73
  -1   0  14   12.43    4.26
   0   0  14   85.64    7.70
   1   0  14   82.31    7.95
   2   0  14  434.58   18.60
   3   0  14   46.35    6.83
   3   0  14   45.38    7.20
   4   0  14    2.17    4.53
   4   0  14   -1.56    4.62
   5   0  14  280.07   15.54
   6   0  14   11.88    6.31
   7   0  14   -4.43    5.56
   8   0  14    0.39    6.38
   9   0  14   28.28    9.08
  10   0  14    1.29    8.02
 -15   1  14   24.44    9.47
 -14   1  14   58.92   10.98
 -13   1  14  125.86   13.41
 -12   1  14   16.10    7.36
 -11   1  14    0.42    5.49
 -10   1  14   37.05    7.66
  -9   1  14   -3.84    4.70
  -9   1  14    2.34    4.21
  -8   1  14    6.80    4.89
  -8   1  14    3.50    4.29
  -7   1  14 1190.93   37.76
  -7   1  14 1174.99   37.72
  -6   1  14   11.91    4.42
  -6   1  14    6.04    4.49
  -5   1  14   13.03    4.39
  -5   1  14   13.87    4.44
  -4   1  14  568.45   21.69
  -4   1  14  595.69   20.51
  -3   1  14  337.43   13.93
  -3   1  14  349.70   15.58
  -2   1  14  138.16    8.29
  -2   1  14  133.65    9.42
  -1   1  14   93.15    8.31
   0   1  14  669.80   24.58
   1   1  14    8.80    4.76
   2   1  14   22.40    5.55
   3   1  14  179.74   12.13
   4   1  14   45.25    7.74
   5   1  14   17.39    6.46
   6   1  14   43.18    8.85
   7   1  14  117.42   12.32
   8   1  14  -18.01    5.41
   9   1  14  102.09   12.81
  10   1  14   20.42    8.95
 -15   2  14   -1.75    7.76
 -14   2  14    2.30    7.19
 -13   2  14   15.97    8.00
 -12   2  14   38.50    8.63
 -11   2  14   17.89    6.86
 -10   2  14  127.52   11.22
  -9   2  14  628.46   23.89
  -9   2  14  639.13   25.40
  -8   2  14    2.93    4.70
  -8   2  14    1.82    4.23
  -7   2  14   22.08    5.28
  -7   2  14   30.56    6.29
  -6   2  14    1.42    3.67
  -6   2  14    0.74    4.03
  -5   2  14  134.66    9.53
  -5   2  14  144.90    9.53
  -4   2  14  127.14    9.11
  -4   2  14  124.70    8.70
  -3   2  14  168.99   10.61
  -3   2  14  170.10    9.94
  -2   2  14  439.78   18.42
  -2   2  14  433.68   16.50
  -1   2  14   11.40    4.74
   0   2  14  541.90   21.95
   1   2  14   -0.66    4.43
   2   2  14   82.04    9.18
   3   2  14   15.34    5.98
   4   2  14  104.09   10.82
   5   2  14   61.85    9.46
   6   2  14   82.44   11.06
   7   2  14  141.51   13.80
   8   2  14   41.94    9.96
   9   2  14   62.34   11.84
  10   2  14   -7.84    8.09
 -15   3  14   57.26   11.74
 -14   3  14   46.55   10.61
 -13   3  14   14.80    7.77
 -12   3  14  105.27   12.12
 -11   3  14  266.79   16.29
 -10   3  14   90.15   10.33
  -9   3  14   22.30    7.19
  -8   3  14    4.93    5.06
  -8   3  14    8.79    4.47
  -7   3  14  128.94   10.18
  -7   3  14  127.17    9.65
  -6   3  14    3.32    4.19
  -6   3  14    7.54    4.97
  -5   3  14  275.15   13.66
  -5   3  14  287.16   14.14
  -4   3  14  158.75   10.81
  -4   3  14  180.41   10.60
  -3   3  14   58.39    6.79
  -3   3  14   59.52    7.42
  -2   3  14   22.64    5.91
  -2   3  14   26.85    5.40
  -1   3  14    4.74    4.66
   0   3  14  169.50   11.47
   1   3  14   60.52    8.19
   2   3  14  159.81   12.09
   3   3  14   11.21    6.42
   4   3  14    1.78    5.85
   5   3  14  123.71   12.77
   6   3  14   -5.69    6.36
   7   3  14  146.07   14.77
   8   3  14   -4.53    7.72
   9   3  14   49.21   10.92
 -15   4  14   57.80   11.68
 -14   4  14   44.24   10.25
 -13   4  14   88.93   12.11
 -12   4  14  133.34   13.39
 -11   4  14   75.24   10.11
 -10   4  14   -0.19    5.70
  -9   4  14  289.36   16.17
  -8   4  14    6.62    4.71
  -8   4  14    6.16    5.32
  -7   4  14  692.54   25.85
  -7   4  14  673.44   25.11
  -6   4  14    8.21    4.71
  -6   4  14    6.37    5.18
  -5   4  14  126.29    9.73
  -5   4  14  127.71    9.96
  -4   4  14   11.48    5.12
  -4   4  14    7.58    4.40
  -3   4  14  181.99   11.95
  -3   4  14  198.31   11.69
  -2   4  14   78.53    8.74
  -2   4  14   83.17    8.05
  -1   4  14   48.35    7.57
  -1   4  14   60.19    7.14
   0   4  14  128.49   10.63
   1   4  14   58.63    8.59
   2   4  14   29.13    7.48
   3   4  14   71.11   10.19
   4   4  14  102.60   12.11
   5   4  14  132.97   13.62
   6   4  14    1.75    7.40
   7   4  14   53.15   11.45
   8   4  14   -1.58    7.99
 -15   5  14   13.16    9.12
 -14   5  14   28.14    9.49
 -13   5  14   19.27    8.02
 -12   5  14   72.21   10.75
 -11   5  14   -0.68    5.87
 -10   5  14   51.02    8.98
  -9   5  14  136.14   11.48
  -8   5  14   17.84    6.60
  -8   5  14   17.12    5.42
  -7   5  14  564.64   22.74
  -7   5  14  505.21   21.33
  -6   5  14  140.08   10.62
  -6   5  14  171.55   12.04
  -5   5  14  332.19   15.97
  -5   5  14  264.03   15.00
  -4   5  14   40.97    7.35
  -4   5  14   56.42    7.91
  -3   5  14   12.38    5.14
  -3   5  14   19.41    5.84
  -2   5  14  161.14   11.59
  -2   5  14  189.54   12.69
  -1   5  14   56.28    8.40
   0   5  14   -0.21    5.01
   1   5  14    2.31    5.78
   2   5  14  105.39   11.65
   3   5  14    7.71    6.62
   4   5  14   35.78    9.19
   5   5  14   71.82   12.10
   6   5  14   13.13    9.00
   7   5  14   -7.89    8.38
 -15   6  14   42.18   10.95
 -14   6  14   63.53   11.16
 -13   6  14    4.25    7.16
 -12   6  14   -0.58    6.54
 -11   6  14   16.04    7.29
 -10   6  14  271.30   16.56
  -9   6  14  108.59   11.49
  -8   6  14   20.15    7.35
  -7   6  14  147.57   11.98
  -7   6  14  150.52   11.35
  -6   6  14    5.45    5.90
  -6   6  14    4.09    5.11
  -5   6  14   12.56    5.42
  -5   6  14   10.64    6.01
  -4   6  14  103.87   10.21
  -4   6  14   92.47   10.05
  -3   6  14   13.35    6.00
  -3   6  14    3.93    5.79
  -2   6  14   23.92    6.97
  -2   6  14   16.39    6.91
  -1   6  14    5.55    5.99
   0   6  14   20.76    7.41
   1   6  14    5.95    6.54
   2   6  14   78.24   11.01
   3   6  14   92.57   12.54
   4   6  14  136.51   14.70
   5   6  14    1.05    8.36
   6   6  14   -2.99    8.01
 -15   7  14   21.67   10.37
 -14   7  14    1.93    8.03
 -13   7  14   17.85    8.17
 -12   7  14   52.82    9.96
 -11   7  14   12.34    7.08
 -10   7  14    5.66    6.47
  -9   7  14  138.29   12.32
  -8   7  14    8.72    6.95
  -7   7  14   -1.11    4.80
  -7   7  14    4.80    6.38
  -6   7  14   36.70    8.06
  -6   7  14   47.62    8.21
  -5   7  14   68.60    9.56
  -5   7  14   71.66    9.24
  -4   7  14   12.17    6.05
  -4   7  14    1.05    5.83
  -3   7  14   84.53   10.04
  -3   7  14   78.33   10.51
  -2   7  14  136.34   11.93
  -2   7  14  116.58   12.30
  -1   7  14    1.18    6.20
   0   7  14  173.76   14.63
   1   7  14   -1.37    6.46
   2   7  14  236.29   17.65
   3   7  14   -6.58    6.31
   4   7  14    9.98    9.09
   5   7  14   99.69   15.10
 -14   8  14  124.41   14.80
 -13   8  14    1.36    7.72
 -12   8  14   58.82   11.03
 -11   8  14   53.56    9.81
 -10   8  14   35.55    8.67
  -9   8  14   65.26   10.42
  -8   8  14    3.86    7.20
  -7   8  14  139.25   12.49
  -6   8  14   98.00   11.40
  -6   8  14   85.46   10.34
  -5   8  14  117.33   12.30
  -5   8  14  127.60   12.23
  -4   8  14  103.85   11.36
  -4   8  14   96.43   11.43
  -3   8  14   16.50    7.31
  -3   8  14    4.36    6.66
  -2   8  14   58.26    9.71
  -2   8  14   50.17    9.97
  -1   8  14    7.50    6.63
   0   8  14  520.16   26.18
   1   8  14    0.95    6.87
   2   8  14   -1.91    6.23
   3   8  14   -0.01    5.54
 -14   9  14    1.64    8.41
 -13   9  14   27.36    9.71
 -12   9  14   50.49   10.60
 -11   9  14   -1.87    7.13
 -10   9  14   40.69   10.13
  -9   9  14   23.23    8.61
  -8   9  14   -3.21    6.88
  -7   9  14  157.81   13.61
  -6   9  14    3.57    6.80
  -6   9  14    1.27    7.08
  -5   9  14  153.07   13.99
  -5   9  14  140.22   13.69
  -4   9  14   53.05   10.19
  -4   9  14   41.54    9.81
  -3   9  14  121.05   13.39
  -3   9  14  126.70   13.28
  -2   9  14  245.96   17.74
  -1   9  14  -11.31    6.32
   0   9  14    2.65    7.32
   1   9  14    2.71    4.75
   2   9  14   -2.50    5.15
 -13  10  14    6.53    9.04
 -12  10  14   59.17   11.85
 -11  10  14   48.07   11.03
 -10  10  14    6.34    8.23
  -9  10  14   82.39   12.06
  -8  10  14   22.71    9.05
  -7  10  14  162.00   14.51
  -6  10  14   -3.24    7.79
  -6  10  14    5.30    7.75
  -5  10  14  113.26   13.34
  -5  10  14   99.25   12.69
  -4  10  14  180.20   15.47
  -4  10  14  154.68   15.18
  -3  10  14   -4.48    7.48
  -3  10  14   -0.12    7.81
  -2  10  14    5.85    7.65
  -1  10  14   11.03    7.35
   0  10  14    2.07    5.53
 -12  11  14   -8.11    8.21
 -11  11  14    3.49    9.32
 -10  11  14   35.81   10.67
  -9  11  14   66.05   11.68
  -8  11  14    3.90    8.80
  -7  11  14   36.55   10.63
  -6  11  14    8.49    9.17
  -5  11  14    5.64    8.18
  -5  11  14   -0.05    8.59
  -4  11  14   -5.52    8.78
  -4  11  14    4.55    8.33
  -3  11  14   89.62   13.44
  -2  11  14   10.50    8.91
  -1  11  14   11.06    9.12
 -11  12  14   69.77   13.45
 -10  12  14   12.95    9.79
  -9  12  14   47.26   12.21
  -8  12  14    5.27    9.20
  -7  12  14    5.00    8.90
  -6  12  14    6.88    9.87
  -5  12  14  139.98   15.78
  -4  12  14    8.26    7.92
  -4  12  14    2.75    9.86
  -3  12  14   18.16    9.62
  -8  13  14   25.37   11.78
  -7  13  14   92.56   14.94
  -6  13  14   18.48   12.34
  -5  13  14   -7.19   12.02
  12 -19  15  120.86   19.38
   8 -18  15   34.65   10.04
   9 -18  15    2.60    8.40
  10 -18  15  171.91   17.67
  11 -18  15   91.94   15.37
  12 -18  15   30.39   11.66
   4 -17  15   -6.52    6.43
   6 -17  15   29.04   10.52
   7 -17  15   27.72   10.77
   8 -17  15  151.09   17.58
   9 -17  15   38.63   11.71
  10 -17  15   24.45    9.26
  11 -17  15    8.94    8.59
  12 -17  15    9.76    9.51
  13 -17  15   17.33   10.16
  -3 -16  15   71.08   13.14
   3 -16  15  209.09   16.57
   4 -16  15   47.85   10.26
   7 -16  15   37.09   10.51
   8 -16  15   48.50   11.51
   9 -16  15   10.56    8.07
  10 -16  15   -5.75    7.06
  11 -16  15    2.96    7.51
  12 -16  15   13.93    8.56
  13 -16  15  135.16   17.29
  -4 -15  15    2.55    7.57
  -3 -15  15    1.31    7.17
  -2 -15  15   88.63   11.98
   2 -15  15   62.72   11.10
   3 -15  15   72.92   11.38
   4 -15  15   85.45   11.11
   5 -15  15    6.75    5.82
   7 -15  15   31.48   10.18
   8 -15  15   47.76   10.63
   9 -15  15   16.35    8.22
  10 -15  15   55.78   11.57
  11 -15  15   45.64   11.27
  12 -15  15   37.03   10.24
  13 -15  15   57.20   12.45
  14 -15  15    7.76    9.57
  -5 -14  15    1.48    8.13
  -4 -14  15  145.28   15.13
  -3 -14  15   -1.79    6.37
  -2 -14  15    9.12    6.72
   2 -14  15    6.00    6.47
   3 -14  15   28.95    7.85
   4 -14  15   -4.51    5.09
   5 -14  15   50.74    8.04
   7 -14  15   70.69   12.04
   8 -14  15  129.99   15.51
   9 -14  15   49.47   10.54
  10 -14  15  111.18   14.44
  11 -14  15    2.96    7.56
  12 -14  15    6.54    8.56
  13 -14  15   19.32    8.82
  14 -14  15    8.80    8.94
  -6 -13  15  176.78   17.73
  -5 -13  15   25.75    9.31
  -4 -13  15   -6.07    6.54
  -3 -13  15  172.64   14.49
  -2 -13  15   44.59    8.88
   1 -13  15    3.54    5.32
   2 -13  15    1.22    5.43
   3 -13  15  282.18   16.96
   4 -13  15    3.82    5.16
   5 -13  15   46.34    7.69
   6 -13  15   12.21    5.49
   7 -13  15   50.07   11.14
   8 -13  15  209.15   17.26
   9 -13  15   25.96    9.59
  10 -13  15    1.90    6.84
  11 -13  15   13.01    8.35
  12 -13  15   18.14    9.13
  13 -13  15   62.55   13.70
  14 -13  15    1.21    8.40
  -7 -12  15    3.68    8.54
  -6 -12  15    3.41    7.58
  -5 -12  15  172.77   16.00
  -4 -12  15   40.06    9.24
  -3 -12  15   94.87   11.21
  -2 -12  15   15.87    6.08
   0 -12  15   -2.38    5.14
   1 -12  15  287.15   17.41
   2 -12  15   58.76    8.74
   3 -12  15   95.82    9.92
   4 -12  15  248.15   14.57
   5 -12  15   24.01    6.06
   6 -12  15   56.03    7.59
   7 -12  15   32.86    9.05
   8 -12  15   48.50   10.51
   9 -12  15    8.01    6.55
  10 -12  15   10.36    6.76
  11 -12  15    7.07    7.35
  12 -12  15   -2.99    6.61
  13 -12  15   38.55   11.70
  14 -12  15    8.57    7.09
  -8 -11  15   -5.02    7.79
  -7 -11  15    9.52    7.92
  -6 -11  15   22.19    8.82
  -5 -11  15   74.24   11.39
  -4 -11  15   90.56   11.14
  -3 -11  15   20.68    6.74
  -2 -11  15    2.00    4.72
  -2 -11  15    6.17    6.27
  -1 -11  15  230.23   15.65
   0 -11  15    0.93    5.19
   1 -11  15  168.07   12.73
   2 -11  15   69.56    8.67
   3 -11  15   32.98    6.40
   4 -11  15  286.83   15.18
   5 -11  15   53.41    7.43
   6 -11  15  136.61   10.19
   7 -11  15   65.46    7.68
   7 -11  15   90.00   12.04
   8 -11  15   -7.54    5.36
   9 -11  15   24.08    7.66
  10 -11  15  246.67   18.82
  11 -11  15   27.61    9.87
  12 -11  15    9.09    8.84
  13 -11  15   51.53   12.78
  14 -11  15   -3.65    6.35
  -9 -10  15    4.00    7.82
  -8 -10  15   17.18    8.88
  -7 -10  15    6.06    7.18
  -6 -10  15  165.56   14.61
  -5 -10  15    3.10    5.60
  -4 -10  15   -1.84    5.07
  -3 -10  15  247.93   15.43
  -3 -10  15  258.19   16.65
  -2 -10  15   76.90    8.85
  -2 -10  15   66.64    9.59
  -1 -10  15  147.04   12.38
   0 -10  15    9.68    5.72
   1 -10  15    3.18    4.25
   2 -10  15   22.25    5.61
   3 -10  15   19.19    5.20
   4 -10  15   16.22    5.22
   5 -10  15    7.91    4.49
   6 -10  15   -1.29    3.89
   7 -10  15    2.76    4.32
   7 -10  15    3.33    6.11
   8 -10  15  534.55   28.28
   9 -10  15   17.84    8.76
  10 -10  15   -1.16    7.26
  11 -10  15  104.40   15.34
  12 -10  15   23.55   10.71
  13 -10  15    3.98    9.48
  14 -10  15   -1.30    6.19
 -10  -9  15    7.32    8.54
  -9  -9  15    7.02    7.93
  -8  -9  15  110.87   13.19
  -7  -9  15   27.87    8.78
  -6  -9  15   27.85    7.74
  -5  -9  15   54.26    8.72
  -5  -9  15   62.91    9.79
  -4  -9  15    1.70    4.69
  -4  -9  15    6.52    5.34
  -3  -9  15   81.99    9.97
  -3  -9  15  101.17    9.76
  -2  -9  15   70.15    7.83
  -2  -9  15   60.50    8.65
  -1  -9  15   -0.80    3.63
   0  -9  15    0.45    4.11
   1  -9  15   96.47    8.98
   2  -9  15    4.84    3.85
   3  -9  15  385.49   17.50
   4  -9  15    6.86    4.18
   5  -9  15   45.01    6.52
   6  -9  15  417.16   17.81
   7  -9  15   42.20   10.06
   7  -9  15   40.15    6.57
   8  -9  15  106.28   13.64
   9  -9  15  164.01   15.76
  10  -9  15  137.03   16.13
  11  -9  15    0.39    8.56
  12  -9  15    6.11    9.30
  13  -9  15  140.58   18.31
  14  -9  15   -2.55    6.41
 -11  -8  15    6.70    7.34
 -10  -8  15  137.37   15.10
 -10  -8  15  143.36   14.86
  -9  -8  15   36.76    9.21
  -9  -8  15   26.81    8.67
  -8  -8  15   25.93    8.17
  -8  -8  15   26.57    8.00
  -7  -8  15   39.02    8.71
  -7  -8  15   36.32    8.50
  -6  -8  15   82.39   10.42
  -6  -8  15   92.18   10.90
  -5  -8  15   44.71    7.90
  -5  -8  15   43.58    8.31
  -4  -8  15  201.00   13.09
  -4  -8  15  204.08   14.05
  -3  -8  15   18.41    5.74
  -3  -8  15   23.36    5.63
  -2  -8  15   11.22    4.85
  -2  -8  15   26.09    5.10
  -1  -8  15   90.79    8.91
   0  -8  15    5.67    3.95
   1  -8  15  518.99   21.18
   2  -8  15   79.50    8.08
   3  -8  15    7.03    3.91
   4  -8  15  182.05   11.30
   5  -8  15   22.11    5.27
   6  -8  15  257.34   13.37
   6  -8  15  240.20   17.49
   7  -8  15   18.78    5.68
   7  -8  15   33.82    8.79
   8  -8  15  899.65   39.50
   8  -8  15  938.99   31.10
   9  -8  15   16.18    8.24
  10  -8  15    1.46    7.76
  11  -8  15   93.90   14.50
  12  -8  15   -0.45    8.53
  13  -8  15   61.05   13.78
  14  -8  15   35.61   12.24
 -11  -7  15   75.67   12.11
 -11  -7  15   85.62   13.13
 -10  -7  15   23.30    8.80
 -10  -7  15   18.76    8.10
  -9  -7  15    6.17    6.13
  -9  -7  15   14.35    7.20
  -8  -7  15   39.31    8.30
  -8  -7  15   17.04    7.15
  -7  -7  15   47.53    8.71
  -7  -7  15   51.06    8.63
  -6  -7  15   17.59    5.96
  -6  -7  15    9.04    5.71
  -5  -7  15   24.92    6.00
  -5  -7  15   21.48    6.27
  -4  -7  15  256.77   14.97
  -4  -7  15  257.54   14.02
  -3  -7  15   19.31    4.84
  -3  -7  15   19.25    5.08
  -2  -7  15   -0.50    3.52
  -2  -7  15    4.81    3.43
  -1  -7  15  508.17   21.00
   0  -7  15   12.97    4.51
   1  -7  15  333.98   15.73
   2  -7  15   22.29    5.02
   3  -7  15   65.92    7.29
   4  -7  15   19.11    5.18
   5  -7  15    1.20    3.88
   6  -7  15  714.36   25.74
   6  -7  15  736.45   32.76
   7  -7  15    5.32    6.06
   7  -7  15    1.26    4.40
   8  -7  15  179.12   15.67
   8  -7  15  171.32   11.57
   9  -7  15   37.97   10.11
  10  -7  15   16.64    9.20
  11  -7  15   55.42   12.79
  12  -7  15   58.13   13.31
  13  -7  15  101.15   16.30
  14  -7  15   49.56   14.28
 -12  -6  15   30.40   10.09
 -11  -6  15   -1.69    6.40
 -11  -6  15    7.54    7.48
 -10  -6  15   -1.71    5.34
 -10  -6  15    6.91    6.68
  -9  -6  15    8.95    6.62
  -9  -6  15    3.62    5.71
  -8  -6  15  163.58   13.13
  -8  -6  15  138.97   12.50
  -7  -6  15   32.77    7.57
  -7  -6  15   43.48    7.89
  -6  -6  15   53.79    8.24
  -6  -6  15   37.95    7.01
  -5  -6  15   49.50    7.49
  -5  -6  15   50.25    7.10
  -4  -6  15   12.34    4.83
  -4  -6  15   10.44    4.39
  -3  -6  15  315.62   15.77
  -3  -6  15  309.01   13.76
  -2  -6  15   69.62    7.50
  -1  -6  15  295.86   14.59
   0  -6  15   -0.17    3.20
   1  -6  15  167.57   10.56
   2  -6  15   45.08    6.33
   3  -6  15   55.25    6.76
   4  -6  15  277.91   13.93
   5  -6  15   10.92    4.58
   6  -6  15  170.36   11.20
   6  -6  15  191.68   15.15
   7  -6  15    7.33    7.24
   7  -6  15    3.30    4.35
   8  -6  15   66.71    8.33
   8  -6  15   74.05   11.32
   9  -6  15  142.55   15.35
  10  -6  15  400.56   24.83
  11  -6  15   40.37   11.96
  12  -6  15   21.29   10.48
  13  -6  15   31.94   11.71
  14  -6  15   65.96   14.40
 -12  -5  15    2.00    7.67
 -11  -5  15   -0.86    6.74
 -11  -5  15   -2.07    5.74
 -10  -5  15   59.07   10.24
 -10  -5  15   67.29    9.86
  -9  -5  15   41.65    8.28
  -9  -5  15   40.12    8.61
  -8  -5  15  172.28   13.08
  -8  -5  15  181.46   13.31
  -7  -5  15   19.70    6.23
  -7  -5  15   19.26    6.11
  -6  -5  15  125.76   10.61
  -6  -5  15  129.32   10.32
  -5  -5  15    6.26    3.80
  -5  -5  15   -2.26    3.61
  -4  -5  15   -0.79    3.37
  -4  -5  15    6.21    3.95
  -3  -5  15    9.36    4.08
  -3  -5  15    4.75    3.29
  -2  -5  15   19.81    4.85
  -1  -5  15  193.00   11.39
   0  -5  15    9.22    3.78
   1  -5  15 1183.90   37.53
   2  -5  15  165.90   10.46
   3  -5  15    9.53    4.49
   4  -5  15   63.64    7.23
   5  -5  15  116.99   12.09
   5  -5  15  123.58    9.28
   6  -5  15    6.07    5.96
   6  -5  15    3.15    4.42
   7  -5  15  125.70   10.16
   7  -5  15  125.36   12.77
   8  -5  15 1147.06   44.56
   8  -5  15 1073.80   36.35
   9  -5  15   35.72    7.58
   9  -5  15   67.36   11.68
  10  -5  15   42.75   11.17
  11  -5  15   59.62   13.05
  12  -5  15   -1.19    9.21
  13  -5  15    5.55    9.90
  14  -5  15   41.16   13.98
 -13  -4  15    2.89    7.59
 -12  -4  15   11.33    7.76
 -11  -4  15   26.52    8.13
 -11  -4  15   36.04    8.00
 -10  -4  15  110.12   11.50
 -10  -4  15  145.61   12.90
  -9  -4  15   20.45    6.35
  -9  -4  15   27.18    7.31
  -8  -4  15   27.57    7.12
  -8  -4  15   45.02    7.60
  -7  -4  15   52.26    7.48
  -7  -4  15   52.69    7.60
  -6  -4  15    5.03    3.78
  -6  -4  15    3.32    4.35
  -5  -4  15   35.59    5.67
  -5  -4  15   33.97    6.03
  -4  -4  15  168.35   10.76
  -4  -4  15  159.58    9.36
  -3  -4  15   49.13    6.56
  -3  -4  15   50.11    5.18
  -2  -4  15   47.24    6.23
  -1  -4  15 1191.12   37.84
   0  -4  15    3.58    3.66
   1  -4  15  101.12    8.42
   2  -4  15  226.75   12.28
   3  -4  15  671.49   24.41
   4  -4  15    9.48    4.51
   5  -4  15    8.19    4.74
   5  -4  15   19.02    6.87
   6  -4  15 1053.31   41.18
   6  -4  15 1051.60   34.77
   7  -4  15   53.30    9.76
   7  -4  15   34.88    6.92
   8  -4  15  127.68   11.30
   8  -4  15  129.96   14.26
   9  -4  15   27.53    7.51
   9  -4  15   57.67   11.44
  10  -4  15    2.33    8.55
  11  -4  15   -1.39    9.15
  12  -4  15   36.96   11.92
 -13  -3  15  124.91   14.47
 -12  -3  15   35.29    8.84
 -11  -3  15    7.69    6.57
 -10  -3  15    2.03    5.34
 -10  -3  15    6.77    6.11
  -9  -3  15   -1.66    3.96
  -9  -3  15   -3.83    5.27
  -8  -3  15    6.15    4.08
  -8  -3  15    4.05    5.27
  -7  -3  15    2.74    4.34
  -7  -3  15    0.06    3.56
  -6  -3  15  383.14   17.49
  -6  -3  15  376.91   16.76
  -5  -3  15   17.97    4.65
  -5  -3  15   11.68    4.38
  -4  -3  15   20.53    4.85
  -4  -3  15   23.88    4.43
  -3  -3  15   52.25    5.06
  -3  -3  15   49.01    6.41
  -2  -3  15  159.60   10.31
  -1  -3  15   88.94    7.91
   0  -3  15   15.83    4.68
   1  -3  15 1387.18   42.56
   2  -3  15    0.25    3.52
   3  -3  15    6.14    4.39
   4  -3  15  501.26   23.42
   4  -3  15  450.16   19.53
   5  -3  15   10.17    6.33
   5  -3  15    6.17    4.48
   6  -3  15   69.94    8.39
   6  -3  15   69.48   10.29
   7  -3  15   37.66    9.20
   7  -3  15   34.85    7.33
   8  -3  15   60.26    8.82
   8  -3  15   46.98   10.29
   9  -3  15   44.39   10.64
   9  -3  15   32.86    7.98
  10  -3  15  214.14   18.41
 -14  -2  15   41.37   11.02
 -13  -2  15   27.92    8.74
 -12  -2  15   -0.47    5.65
 -11  -2  15   12.82    6.83
 -10  -2  15    0.09    5.50
 -10  -2  15    0.70    4.53
  -9  -2  15   16.95    6.35
  -9  -2  15   18.24    5.35
  -8  -2  15  486.51   21.09
  -8  -2  15  482.62   21.03
  -7  -2  15   26.16    6.26
  -7  -2  15   29.62    6.28
  -6  -2  15  201.04   11.42
  -6  -2  15  216.55   12.36
  -5  -2  15    0.12    3.37
  -5  -2  15   -0.87    3.30
  -4  -2  15  233.51   12.69
  -4  -2  15  229.96   10.87
  -3  -2  15    9.87    4.04
  -3  -2  15   11.86    3.50
  -2  -2  15  204.34   11.58
  -1  -2  15 1328.89   41.21
   0  -2  15    4.33    3.94
   1  -2  15   14.35    4.72
   2  -2  15  356.37   16.20
   3  -2  15    8.85    4.50
   4  -2  15   15.62    5.00
   4  -2  15   20.18    6.62
   5  -2  15  172.33   11.66
   5  -2  15  138.47   12.64
   6  -2  15  957.64   33.81
   6  -2  15  986.65   38.27
   7  -2  15   14.61    7.27
   7  -2  15    8.75    5.93
   8  -2  15  243.71   15.77
   8  -2  15  245.39   17.66
   9  -2  15  141.21   12.73
  10  -2  15  223.82   16.17
 -14  -1  15   -3.52    7.23
 -13  -1  15   13.72    7.58
 -12  -1  15   15.49    7.64
 -11  -1  15    4.89    6.11
 -10  -1  15  230.70   14.77
 -10  -1  15  222.41   13.90
  -9  -1  15   11.45    4.88
  -9  -1  15   12.61    5.90
  -8  -1  15   92.20    9.40
  -8  -1  15   99.88    9.20
  -7  -1  15   24.09    5.76
  -7  -1  15   20.70    5.54
  -6  -1  15  663.39   23.78
  -6  -1  15  669.88   25.00
  -5  -1  15   12.14    4.40
  -5  -1  15   11.06    4.47
  -4  -1  15   52.08    5.69
  -4  -1  15   45.37    6.49
  -3  -1  15  688.48   21.95
  -3  -1  15  668.32   24.69
  -2  -1  15    1.23    3.58
  -1  -1  15    6.19    4.12
   0  -1  15   -0.44    3.60
   1  -1  15  115.70    9.36
   2  -1  15   13.49    4.63
   3  -1  15 1538.18   48.12
   3  -1  15 1614.74   53.60
   4  -1  15    7.60    5.09
   4  -1  15    9.11    5.76
   5  -1  15    4.15    5.45
   5  -1  15   -0.47    4.79
   6  -1  15  161.63   12.60
   7  -1  15   92.90   10.67
   8  -1  15  214.88   15.13
   9  -1  15  -13.37    6.55
  10  -1  15    7.78    7.61
 -14   0  15   -0.77    7.51
 -13   0  15   56.73   10.70
 -12   0  15    1.44    6.34
 -11   0  15   39.01    8.38
 -10   0  15    4.80    5.86
  -9   0  15  164.20   12.05
  -9   0  15  166.34   11.67
  -8   0  15  920.97   31.91
  -8   0  15  913.54   32.01
  -7   0  15    7.75    4.72
  -7   0  15    3.47    4.22
  -6   0  15  189.68   11.24
  -6   0  15  199.88   12.04
  -5   0  15  111.36    8.11
  -5   0  15  117.76    9.12
  -4   0  15   19.02    4.43
  -4   0  15   14.32    4.70
  -3   0  15    4.69    3.81
  -3   0  15    6.14    3.72
  -2   0  15  373.76   16.59
  -1   0  15  122.15    9.28
   0   0  15   13.50    4.75
   1   0  15 1277.78   40.62
   2   0  15    6.22    4.75
   3   0  15  415.75   19.79
   3   0  15  408.45   18.96
   4   0  15  255.17   14.79
   5   0  15    2.02    5.45
   6   0  15  232.82   15.00
   7   0  15  168.45   13.74
   8   0  15   -5.31    6.32
   9   0  15   -2.03    7.09
  10   0  15   27.37    9.42
 -14   1  15    3.23    7.27
 -13   1  15  113.24   13.00
 -12   1  15   11.87    6.57
 -11   1  15  125.80   12.20
 -10   1  15  132.02   11.91
  -9   1  15    3.62    5.20
  -9   1  15    0.81    4.19
  -8   1  15  187.09   11.92
  -8   1  15  169.69   12.01
  -7   1  15    1.95    4.39
  -7   1  15    2.27    3.84
  -6   1  15    8.23    4.90
  -6   1  15   11.32    4.86
  -5   1  15    6.30    4.18
  -5   1  15   17.64    4.72
  -4   1  15  464.89   17.64
  -4   1  15  446.63   19.06
  -3   1  15    7.02    4.02
  -3   1  15    3.98    3.88
  -2   1  15   13.27    4.51
  -1   1  15 1269.59   40.57
   0   1  15    4.14    4.35
   1   1  15  452.68   20.13
   2   1  15   84.23    9.26
   3   1  15    4.91    4.91
   4   1  15  237.50   14.76
   5   1  15  101.65   11.11
   6   1  15   52.20    9.32
   7   1  15   73.54   10.78
   8   1  15   77.38   11.91
   9   1  15  119.19   14.05
  10   1  15  173.27   16.95
 -15   2  15   10.45    9.41
 -14   2  15    9.45    7.62
 -13   2  15   47.73   10.22
 -12   2  15   17.18    7.47
 -11   2  15    0.19    5.61
 -10   2  15   -0.25    5.54
  -9   2  15   32.41    6.14
  -9   2  15   34.78    7.37
  -8   2  15   74.36    8.14
  -8   2  15   70.41    8.54
  -7   2  15  118.01    9.48
  -7   2  15  107.16    9.13
  -6   2  15 1046.00   34.15
  -6   2  15 1059.84   35.02
  -5   2  15   14.10    4.93
  -5   2  15   11.22    4.72
  -4   2  15   20.56    5.50
  -4   2  15   11.38    4.78
  -3   2  15 1532.53   44.76
  -3   2  15 1533.35   47.18
  -2   2  15   10.08    4.90
  -1   2  15  421.98   18.66
   0   2  15    1.19    4.41
   1   2  15    3.99    4.62
   2   2  15    5.33    5.12
   3   2  15  351.06   18.19
   4   2  15    6.08    5.80
   5   2  15  105.41   12.03
   6   2  15   35.19    9.15
   7   2  15   14.38    7.66
   8   2  15  234.60   17.60
   9   2  15    2.48    8.48
  10   2  15    3.66    9.97
 -15   3  15   87.34   13.78
 -14   3  15    0.16    7.08
 -13   3  15    0.77    7.64
 -12   3  15    1.88    6.06
 -11   3  15   67.63   10.00
 -10   3  15    5.28    5.76
  -9   3  15  144.16   11.36
  -8   3  15 1097.73   37.35
  -8   3  15 1155.83   37.30
  -7   3  15   41.59    6.78
  -7   3  15   46.27    7.43
  -6   3  15   67.90    8.20
  -6   3  15   60.45    7.62
  -5   3  15  143.74   10.52
  -5   3  15  166.35   10.80
  -4   3  15   12.44    4.94
  -4   3  15   13.05    5.15
  -3   3  15  444.23   17.75
  -3   3  15  416.21   18.82
  -2   3  15   66.85    8.44
  -1   3  15    6.28    4.59
   0   3  15    2.58    4.56
   1   3  15   58.06    8.51
   2   3  15  105.21   11.00
   3   3  15  451.13   22.18
   4   3  15    2.93    6.12
   5   3  15   11.23    7.34
   6   3  15  362.61   21.00
   7   3  15    7.51    8.20
   8   3  15    3.44    8.54
   9   3  15    0.36    8.75
 -15   4  15    6.11    8.93
 -14   4  15   56.63   11.38
 -13   4  15  122.35   14.12
 -12   4  15    6.19    6.67
 -11   4  15   47.19    8.93
 -10   4  15  388.61   19.51
  -9   4  15   53.18    8.60
  -8   4  15  108.36    9.71
  -8   4  15  115.63   10.96
  -7   4  15   29.11    6.53
  -7   4  15   35.72    7.37
  -6   4  15 1063.59   34.83
  -6   4  15  997.37   34.58
  -5   4  15    0.96    4.58
  -5   4  15    1.32    5.08
  -4   4  15  269.55   14.96
  -4   4  15  283.12   14.23
  -3   4  15    8.98    5.02
  -2   4  15   16.24    5.58
  -1   4  15   54.33    8.04
   0   4  15   -0.27    4.55
   1   4  15  485.43   22.57
   2   4  15   22.11    7.79
   3   4  15   -1.64    6.00
   4   4  15  134.43   13.61
   5   4  15    5.15    7.17
   6   4  15    4.63    7.69
   7   4  15   -9.76    7.36
   8   4  15   -9.64    9.42
 -15   5  15  211.19   18.34
 -14   5  15   35.53    9.63
 -13   5  15   33.31    9.48
 -12   5  15   45.69    9.56
 -11   5  15   33.26    8.39
 -10   5  15   45.41    8.79
  -9   5  15   53.11    8.85
  -8   5  15   62.49    9.01
  -8   5  15   60.88    8.19
  -7   5  15   -0.97    5.66
  -7   5  15    6.73    5.21
  -6   5  15  188.23   12.82
  -6   5  15  161.76   12.05
  -5   5  15   -1.83    5.25
  -5   5  15    1.53    4.60
  -4   5  15  263.04   15.08
  -4   5  15  278.92   15.03
  -3   5  15  327.36   17.11
  -2   5  15  116.90   10.63
  -1   5  15  465.46   21.79
   0   5  15   -6.50    5.07
   1   5  15   -1.07    5.98
   2   5  15   77.74   11.07
   3   5  15    9.80    7.44
   4   5  15   57.67   11.02
   5   5  15   79.57   12.73
   6   5  15   -0.37    8.69
 -15   6  15    1.54    9.36
 -14   6  15   34.50   10.26
 -13   6  15   95.71   12.55
 -12   6  15   20.29    8.30
 -11   6  15   64.88   10.26
 -10   6  15    4.43    6.33
  -9   6  15   26.61    8.12
  -8   6  15  273.14   16.28
  -7   6  15   84.62    9.53
  -7   6  15  124.73   11.42
  -6   6  15  244.40   15.04
  -6   6  15  250.92   14.86
  -5   6  15  105.33   10.48
  -5   6  15  105.97   10.60
  -4   6  15    7.09    5.73
  -4   6  15   14.05    6.44
  -3   6  15  455.70   21.85
  -2   6  15   17.24    7.12
  -1   6  15    1.85    6.13
   0   6  15    4.29    6.24
   1   6  15   33.00    8.66
   2   6  15   60.64   10.84
   3   6  15  333.92   21.09
   4   6  15   14.31    8.40
   5   6  15    5.02    8.73
 -14   7  15   40.23   10.71
 -13   7  15   42.76   10.65
 -12   7  15   -4.78    6.66
 -11   7  15   -0.26    6.85
 -10   7  15  268.55   16.93
  -9   7  15  163.48   13.80
  -8   7  15  253.95   16.35
  -7   7  15  150.86   13.03
  -7   7  15  151.58   12.40
  -6   7  15   46.56    8.89
  -6   7  15   51.15    9.04
  -5   7  15  114.27   11.59
  -5   7  15  107.84   11.45
  -4   7  15    9.53    6.88
  -4   7  15    5.86    6.22
  -3   7  15    0.59    6.45
  -2   7  15   71.19   10.54
  -1   7  15   28.60    8.42
   0   7  15   -7.89    6.59
   1   7  15  352.01   21.18
   2   7  15   15.21    8.22
   3   7  15   -1.12    4.77
   4   7  15   87.22   14.65
 -14   8  15   37.98   10.87
 -13   8  15    1.80    8.57
 -12   8  15   54.44   10.62
 -11   8  15   47.23   10.24
 -10   8  15  209.22   15.76
  -9   8  15    4.58    7.94
  -8   8  15   -3.89    6.67
  -7   8  15   83.52   10.92
  -6   8  15   49.72    9.66
  -6   8  15   45.79    9.14
  -5   8  15    6.66    6.96
  -5   8  15    2.84    6.55
  -4   8  15  164.27   13.62
  -4   8  15  158.86   13.94
  -3   8  15   -1.31    6.38
  -2   8  15   37.57    9.71
  -1   8  15  350.02   20.67
   0   8  15    2.68    6.82
   1   8  15   -1.17    6.14
   2   8  15   -1.20    5.18
 -14   9  15   60.19   13.02
 -13   9  15  101.32   14.01
 -12   9  15   51.69   11.32
 -11   9  15    0.30    7.44
 -10   9  15    3.62    7.90
  -9   9  15    1.15    7.58
  -8   9  15   58.97   10.36
  -7   9  15   17.40    8.78
  -6   9  15  374.93   21.69
  -6   9  15  425.44   21.88
  -5   9  15    2.42    7.53
  -5   9  15    0.99    7.51
  -4   9  15   66.82   11.17
  -3   9  15  328.34   20.55
  -2   9  15   12.30    7.91
  -1   9  15   -1.92    7.45
   0   9  15    0.35    5.02
   1   9  15   -1.73    5.34
 -13  10  15    7.71   10.22
 -12  10  15   -0.88    8.62
 -11  10  15   21.91   10.08
 -10  10  15   -0.44    7.94
  -9  10  15  111.21   13.41
  -8  10  15  267.72   18.49
  -7  10  15    1.73    8.50
  -6  10  15    0.05    8.05
  -5  10  15   87.49   12.61
  -5  10  15   95.71   12.94
  -4  10  15   -0.15    7.51
  -3  10  15   18.15    8.57
  -2  10  15   43.39   10.08
  -1  10  15   -2.18    5.57
 -12  11  15   -3.46   10.48
 -11  11  15   64.05   12.88
 -10  11  15  229.25   17.56
  -9  11  15   21.01    9.78
  -8  11  15   12.83    9.51
  -7  11  15   19.02    9.42
  -6  11  15    2.66    9.59
  -5  11  15   28.10    9.89
  -4  11  15   92.78   13.55
  -3  11  15    1.97    8.86
  -2  11  15   -6.81    8.63
 -10  12  15   20.03   10.90
  -9  12  15   13.99   10.85
  -8  12  15    9.34   10.37
  -7  12  15    4.89   10.19
  -4  12  15   -9.44    8.74
   3 -19  16   -6.57    9.80
  10 -19  16   42.47   12.49
  11 -19  16    5.11   11.91
   3 -18  16   40.89   11.04
   7 -18  16  115.61   16.69
   8 -18  16   19.10   11.10
   9 -18  16   18.22   10.94
  10 -18  16   47.09   12.48
  11 -18  16    1.18    9.41
  12 -18  16    7.59   11.43
   2 -17  16   46.54   11.26
   3 -17  16   14.53    8.79
   4 -17  16   13.76    8.80
   7 -17  16    9.88    9.93
   8 -17  16    6.23    7.86
   9 -17  16   36.70   10.18
  10 -17  16   13.45    8.12
  11 -17  16   82.75   14.49
  12 -17  16   31.38   11.30
   2 -16  16   82.85   12.64
   3 -16  16  153.77   15.30
   4 -16  16   -9.90    6.43
   7 -16  16   94.59   15.20
   8 -16  16    1.67    7.45
   9 -16  16  131.22   16.82
  10 -16  16  113.91   15.81
  11 -16  16    4.93    7.92
  12 -16  16   87.86   14.74
  13 -16  16    0.96    9.75
   1 -15  16   15.50    7.92
   2 -15  16   69.94   11.48
   3 -15  16   11.67    7.25
   4 -15  16  141.93   13.26
   5 -15  16   61.10    9.62
   7 -15  16  213.76   18.56
   8 -15  16   33.89    9.57
   9 -15  16   26.51    9.08
  10 -15  16   -0.56    7.59
  11 -15  16    4.14    7.36
  12 -15  16   53.06   12.40
  13 -15  16   25.57   10.82
  -5 -14  16   87.48   13.87
   0 -14  16   27.59    8.99
   1 -14  16    7.26    7.73
   2 -14  16  335.92   20.23
   3 -14  16   33.16    8.64
   4 -14  16   19.78    7.11
   5 -14  16  222.52   14.71
   7 -14  16   92.37   13.97
   8 -14  16    8.16    7.30
   9 -14  16   48.55   11.14
  10 -14  16   22.49    8.17
  11 -14  16  137.15   16.86
  12 -14  16   19.90   10.25
  13 -14  16   40.60   11.71
  -6 -13  16   -4.73    7.93
  -5 -13  16   12.55    8.80
  -1 -13  16   22.35    8.23
   0 -13  16   39.45    9.45
   1 -13  16    7.46    5.95
   2 -13  16    7.46    5.93
   3 -13  16   43.06    8.46
   4 -13  16   56.64    8.49
   5 -13  16   45.91    7.84
   6 -13  16  126.36   10.99
   7 -13  16   13.23    8.24
   8 -13  16   24.65    8.41
   9 -13  16   34.98   10.06
  10 -13  16   97.57   14.26
  11 -13  16  131.42   16.62
  12 -13  16    3.77    7.20
  13 -13  16   33.76   10.69
  14 -13  16   59.26   13.97
  -7 -12  16   24.13    9.80
  -6 -12  16    6.98    8.13
  -5 -12  16  205.26   17.00
  -4 -12  16   13.46    7.35
  -2 -12  16  314.61   19.88
  -1 -12  16    4.35    6.02
   0 -12  16   10.42    6.29
   1 -12  16   92.73   10.68
   2 -12  16  187.18   13.79
   3 -12  16   26.25    6.86
   4 -12  16    1.88    4.75
   5 -12  16   40.87    7.28
   6 -12  16  314.81   16.21
   7 -12  16  302.79   21.00
   8 -12  16   51.78   10.37
   9 -12  16   88.93   13.90
  10 -12  16   67.73   12.17
  11 -12  16    2.23    7.37
  12 -12  16   33.29   11.82
  13 -12  16    9.64    8.00
  14 -12  16    4.26    7.08
  -8 -11  16   -2.61    8.52
  -7 -11  16   63.80   11.75
  -6 -11  16    5.09    7.33
  -5 -11  16   11.83    7.33
  -4 -11  16  144.65   13.71
  -4 -11  16  152.08   13.93
  -3 -11  16   44.53    9.22
  -2 -11  16   14.01    6.46
  -1 -11  16  109.08   11.72
   0 -11  16   -3.08    4.52
   1 -11  16   36.18    7.25
   2 -11  16  133.33   11.11
   3 -11  16   34.29    6.70
   4 -11  16   40.00    6.98
   5 -11  16   31.60    6.46
   6 -11  16   31.98    6.59
   7 -11  16  437.49   25.36
   7 -11  16  420.45   18.91
   8 -11  16   32.77    9.06
   9 -11  16   42.49   10.48
  10 -11  16    6.11    8.54
  11 -11  16   49.45   12.56
  12 -11  16   44.84   12.42
  13 -11  16   -4.24    7.70
  14 -11  16    1.52    7.94
  -9 -10  16   -9.29    7.92
  -9 -10  16    0.63    7.47
  -8 -10  16   13.43    8.53
  -8 -10  16    4.95    4.30
  -7 -10  16   19.42    8.58
  -7 -10  16   16.93    7.17
  -6 -10  16    8.38    7.05
  -6 -10  16   14.39    6.65
  -5 -10  16   69.89   10.50
  -5 -10  16   60.70    9.88
  -4 -10  16   16.12    6.41
  -4 -10  16   23.17    7.10
  -3 -10  16   59.37    9.81
  -2 -10  16  163.86   13.22
  -1 -10  16   36.47    7.69
   0 -10  16  834.56   31.50
   1 -10  16   22.58    6.17
   2 -10  16  245.10   14.09
   3 -10  16   62.13    7.75
   4 -10  16    1.45    3.87
   5 -10  16  243.69   13.77
   6 -10  16    5.68    4.72
   7 -10  16   16.56    8.93
   7 -10  16   34.48    6.46
   8 -10  16    2.15    7.31
   9 -10  16    4.08    7.96
  10 -10  16   66.92   13.14
  11 -10  16  179.03   19.04
  12 -10  16  116.25   17.04
  13 -10  16   32.74   10.29
  14 -10  16    0.10    6.83
 -10  -9  16   40.68   11.16
 -10  -9  16   37.15   10.64
  -9  -9  16   31.71    8.00
  -9  -9  16   31.57   10.15
  -8  -9  16    2.57    6.01
  -8  -9  16   -0.08    6.71
  -7  -9  16   77.19   11.26
  -7  -9  16   70.82   10.95
  -6  -9  16   -0.82    5.32
  -6  -9  16    2.62    6.51
  -5  -9  16  198.88   14.50
  -5  -9  16  213.75   15.51
  -4  -9  16   36.70    8.19
  -4  -9  16   38.74    7.49
  -3  -9  16   10.21    5.55
  -2  -9  16  116.90   11.04
  -1  -9  16   22.04    6.15
   0  -9  16  767.11   28.97
   1  -9  16    0.25    3.97
   2  -9  16   55.63    7.49
   3  -9  16  259.33   13.93
   4  -9  16  202.71   12.30
   5  -9  16   18.86    5.43
   6  -9  16   93.15    9.09
   7  -9  16    2.13    4.59
   7  -9  16    3.83    7.01
   8  -9  16   26.39    9.64
   9  -9  16  420.95   25.38
  10  -9  16   21.20    9.83
  11  -9  16   55.97   12.65
  12  -9  16   15.07    9.79
  13  -9  16   43.20   12.57
  14  -9  16    9.32    7.87
 -11  -8  16   -0.99    7.68
 -10  -8  16   53.59   11.25
 -10  -8  16   52.02   10.63
  -9  -8  16   34.64    9.43
  -9  -8  16   24.30    8.61
  -8  -8  16   -4.30    6.09
  -8  -8  16   10.01    6.44
  -7  -8  16  152.60   13.33
  -7  -8  16  150.38   13.78
  -6  -8  16   -0.58    4.95
  -6  -8  16    1.71    5.58
  -5  -8  16   26.37    6.95
  -5  -8  16   49.18    7.94
  -4  -8  16   14.80    5.62
  -4  -8  16   15.58    5.60
  -3  -8  16   17.05    5.76
  -2  -8  16  261.54   15.03
  -1  -8  16   14.00    4.77
   0  -8  16  104.13    9.22
   1  -8  16  226.66   13.19
   2  -8  16   50.66    6.97
   3  -8  16   15.68    4.99
   4  -8  16  807.50   28.59
   5  -8  16   51.36    7.10
   6  -8  16  339.32   16.15
   6  -8  16  339.83   21.14
   7  -8  16  995.99   33.95
   7  -8  16 1053.64   42.95
   8  -8  16   27.43    6.44
   8  -8  16   13.21    8.06
   9  -8  16   43.07   10.89
  10  -8  16   27.70   10.13
  11  -8  16    2.83    8.08
  12  -8  16    8.87   10.78
  13  -8  16  125.39   17.77
  14  -8  16  102.52   17.65
 -11  -7  16   13.11    6.93
 -11  -7  16    3.57    8.09
 -10  -7  16    0.04    6.38
 -10  -7  16   -1.69    6.80
  -9  -7  16  147.53   14.44
  -9  -7  16  146.29   14.30
  -8  -7  16   24.97    7.37
  -8  -7  16   20.53    7.62
  -7  -7  16   88.77   10.53
  -7  -7  16   67.51   10.17
  -6  -7  16   90.35    9.92
  -6  -7  16   89.80   10.45
  -5  -7  16   35.28    6.87
  -5  -7  16   32.62    7.26
  -4  -7  16   33.30    6.84
  -4  -7  16   35.02    6.18
  -3  -7  16   49.37    7.20
  -2  -7  16   37.94    6.52
  -1  -7  16  187.21   11.97
   0  -7  16  179.23   11.54
   1  -7  16   21.41    5.03
   2  -7  16  826.11   29.14
   3  -7  16   -0.21    3.78
   4  -7  16  247.40   13.47
   5  -7  16  359.84   16.62
   6  -7  16   64.76    7.78
   6  -7  16   63.74   11.01
   7  -7  16    9.70    5.47
   7  -7  16   22.37    8.75
   8  -7  16   33.84    9.86
   8  -7  16   24.50    6.20
   9  -7  16   19.21    9.16
  10  -7  16   47.31   12.01
  11  -7  16   61.24   12.71
  12  -7  16  109.61   16.41
  13  -7  16   54.56   13.46
  14  -7  16    8.67   11.31
 -12  -6  16   -1.46    8.60
 -11  -6  16   51.00   10.96
 -11  -6  16   58.17   10.80
 -10  -6  16   81.32   11.42
 -10  -6  16   87.54   12.19
  -9  -6  16   18.05    7.03
  -9  -6  16   29.27    7.55
  -8  -6  16    5.59    5.26
  -8  -6  16    1.69    5.82
  -7  -6  16   13.69    6.07
  -7  -6  16    6.65    5.35
  -6  -6  16  259.91   15.61
  -6  -6  16  280.78   15.35
  -5  -6  16   29.75    6.14
  -5  -6  16   32.29    6.61
  -4  -6  16    9.07    4.85
  -4  -6  16   10.04    4.18
  -3  -6  16  209.98   12.71
  -2  -6  16   34.22    5.99
  -1  -6  16    9.36    4.40
   0  -6  16 1510.37   46.40
   1  -6  16   40.26    6.51
   2  -6  16   86.64    8.34
   3  -6  16  108.91    9.09
   4  -6  16  107.73    9.20
   5  -6  16    4.33    4.27
   6  -6  16   44.92    9.72
   6  -6  16   54.10    7.50
   7  -6  16   49.34    7.26
   7  -6  16   60.48   10.90
   8  -6  16   57.03    8.30
   8  -6  16   55.57   10.97
   9  -6  16  707.88   34.16
  10  -6  16  153.90   17.01
  11  -6  16  124.91   16.12
  12  -6  16   28.83   10.75
  13  -6  16    7.67   10.00
  14  -6  16   23.68   12.93
 -12  -5  16   16.46    8.02
 -11  -5  16   16.83    8.17
 -11  -5  16    7.87    6.29
 -10  -5  16    8.44    6.89
 -10  -5  16    6.49    5.68
  -9  -5  16   63.62    9.67
  -9  -5  16   43.24    8.18
  -8  -5  16   15.35    5.56
  -8  -5  16   13.20    6.37
  -7  -5  16  262.47   15.08
  -7  -5  16  254.81   15.27
  -6  -5  16   21.11    5.96
  -6  -5  16   21.09    6.03
  -5  -5  16  200.04   12.48
  -5  -5  16  197.51   11.58
  -4  -5  16  184.57   11.83
  -3  -5  16   19.57    5.23
  -2  -5  16  720.10   26.34
  -1  -5  16   35.97    6.12
   0  -5  16   12.30    4.63
   1  -5  16   70.93    7.75
   2  -5  16   33.74    6.12
   3  -5  16    1.60    3.95
   4  -5  16 1000.32   33.52
   5  -5  16  133.19   12.79
   5  -5  16  137.89   10.19
   6  -5  16   46.64    9.56
   6  -5  16   43.39    7.23
   7  -5  16  585.52   28.63
   7  -5  16  587.04   23.87
   8  -5  16  254.38   18.75
   8  -5  16  247.22   14.59
   9  -5  16  481.97   21.77
   9  -5  16  469.99   26.66
  10  -5  16    2.67    8.46
  11  -5  16   -1.14    8.75
  12  -5  16   28.60   12.39
  13  -5  16   57.89   13.89
 -13  -4  16    6.77    8.49
 -12  -4  16   69.97   11.87
 -11  -4  16    2.56    6.79
 -11  -4  16   -0.27    5.43
 -10  -4  16   -1.13    4.58
 -10  -4  16    9.83    6.66
  -9  -4  16   25.53    6.94
  -9  -4  16   29.82    7.71
  -8  -4  16   31.12    6.95
  -8  -4  16   62.52    8.56
  -7  -4  16  379.56   18.62
  -7  -4  16  396.96   18.32
  -6  -4  16    6.66    4.63
  -6  -4  16    2.39    3.66
  -5  -4  16   12.64    4.38
  -5  -4  16   11.13    4.65
  -4  -4  16  705.94   26.30
  -3  -4  16    0.62    3.44
  -2  -4  16   77.37    7.89
  -1  -4  16   74.51    7.81
   0  -4  16   14.86    4.92
   1  -4  16   28.39    5.50
   2  -4  16 1168.27   37.72
   3  -4  16    6.81    4.49
   4  -4  16  298.52   15.05
   5  -4  16  412.73   18.43
   5  -4  16  416.04   22.59
   6  -4  16   10.91    7.24
   6  -4  16    5.70    5.34
   7  -4  16  246.30   17.38
   7  -4  16  237.90   14.41
   8  -4  16  101.84   10.59
   8  -4  16  114.83   13.60
   9  -4  16   10.46    8.70
   9  -4  16   10.13    6.72
  10  -4  16   15.20    9.97
  11  -4  16   17.53   10.69
 -13  -3  16    9.89    8.00
 -12  -3  16   32.96    9.03
 -11  -3  16  146.37   13.50
 -10  -3  16   90.46   10.17
 -10  -3  16   77.90   10.14
  -9  -3  16   75.34    9.30
  -9  -3  16   75.75    9.95
  -8  -3  16   11.70    6.19
  -8  -3  16   21.74    5.92
  -7  -3  16   31.56    6.62
  -7  -3  16   31.34    6.33
  -6  -3  16   98.51    8.46
  -6  -3  16   78.79    8.54
  -5  -3  16   63.84    6.67
  -5  -3  16   54.55    7.01
  -4  -3  16  228.18   12.83
  -3  -3  16  105.23    8.80
  -2  -3  16   31.42    5.85
  -1  -3  16   24.94    5.37
   0  -3  16 1595.46   48.50
   1  -3  16   32.98    6.06
   2  -3  16  358.44   16.82
   3  -3  16  473.67   19.96
   4  -3  16  106.26    9.39
   4  -3  16   95.97   11.41
   5  -3  16  231.18   16.45
   5  -3  16  244.31   13.85
   6  -3  16   86.29   11.57
   6  -3  16   83.21    9.56
   7  -3  16  196.69   15.94
   7  -3  16  202.74   13.63
   8  -3  16   73.05    9.91
   8  -3  16   74.13   11.57
   9  -3  16   98.17   13.52
   9  -3  16  102.04   11.39
 -13  -2  16   11.26    8.19
 -12  -2  16   31.94    8.72
 -11  -2  16  113.56   12.20
 -10  -2  16   80.57    9.45
 -10  -2  16   46.36    8.76
  -9  -2  16   41.88    7.30
  -9  -2  16   39.68    7.58
  -8  -2  16    2.93    4.51
  -8  -2  16   -1.38    4.58
  -7  -2  16    9.14    4.63
  -7  -2  16    5.67    4.16
  -6  -2  16  285.20   14.97
  -6  -2  16  300.06   14.16
  -5  -2  16  312.44   15.73
  -5  -2  16  332.55   14.35
  -4  -2  16  124.94    9.55
  -3  -2  16    8.63    4.06
  -2  -2  16 1122.05   36.65
  -1  -2  16   33.59    5.96
   0  -2  16  783.93   28.13
   1  -2  16   56.33    7.28
   2  -2  16   94.33    9.05
   3  -2  16  212.62   12.75
   4  -2  16   56.47    8.93
   4  -2  16   33.45    6.90
   5  -2  16  136.40   11.22
   5  -2  16  133.31   12.61
   6  -2  16   18.06    7.39
   6  -2  16   11.52    6.04
   7  -2  16   86.16   12.14
   7  -2  16   82.96   10.24
   8  -2  16  137.25   12.82
   9  -2  16  478.70   23.39
  10  -2  16   -4.83    7.26
 -14  -1  16   15.46    9.13
 -13  -1  16   32.19    9.33
 -12  -1  16   13.83    6.93
 -11  -1  16    5.33    6.18
 -10  -1  16    1.28    5.61
 -10  -1  16   -0.33    4.73
  -9  -1  16   -2.17    5.29
  -9  -1  16    1.41    4.39
  -8  -1  16   26.65    6.28
  -8  -1  16   15.67    5.48
  -7  -1  16  954.94   33.50
  -7  -1  16  977.16   32.59
  -6  -1  16   55.42    7.44
  -6  -1  16   77.84    7.71
  -5  -1  16    2.38    3.87
  -5  -1  16    1.37    3.97
  -4  -1  16  966.83   32.67
  -3  -1  16    3.31    3.83
  -2  -1  16  330.22   15.85
  -1  -1  16   45.80    6.73
   0  -1  16  588.02   22.94
   1  -1  16   10.22    4.93
   2  -1  16 1028.36   34.89
   3  -1  16  171.05   12.03
   3  -1  16  161.74   12.75
   4  -1  16  153.62   11.54
   4  -1  16  146.33   12.33
   5  -1  16   31.36    7.05
   6  -1  16   -5.53    5.25
   7  -1  16  240.03   16.05
   8  -1  16   23.93    8.36
   9  -1  16  -21.12    6.08
  10  -1  16   35.74   10.03
 -14   0  16   -0.13    7.41
 -13   0  16   19.87    8.54
 -12   0  16   26.67    8.10
 -11   0  16   35.77    8.27
 -10   0  16   48.82    8.31
  -9   0  16  459.56   20.44
  -9   0  16  432.49   20.42
  -8   0  16   27.39    6.43
  -8   0  16   22.18    6.17
  -7   0  16    8.88    5.08
  -7   0  16   13.62    5.76
  -6   0  16   45.63    6.37
  -6   0  16   43.58    6.89
  -5   0  16  139.61    9.07
  -5   0  16  134.24   10.13
  -4   0  16  271.31   14.26
  -3   0  16  461.25   19.66
  -2   0  16   81.48    8.47
  -1   0  16   16.98    5.21
   0   0  16  445.67   19.69
   1   0  16   89.84    9.12
   2   0  16 1331.52   43.43
   3   0  16   11.54    5.52
   4   0  16    6.44    5.29
   5   0  16  281.10   16.75
   6   0  16   -3.05    5.92
   7   0  16   49.63    9.67
   8   0  16   -3.44    6.93
   9   0  16    9.46    8.07
  10   0  16   23.87    9.96
 -14   1  16   45.39   10.73
 -13   1  16   47.53   10.38
 -12   1  16   48.14    9.81
 -11   1  16  206.52   14.76
 -10   1  16   19.36    6.82
  -9   1  16   40.86    7.95
  -9   1  16   48.94    7.48
  -8   1  16   28.96    6.64
  -8   1  16   34.38    6.81
  -7   1  16   51.95    7.32
  -7   1  16   49.90    7.40
  -6   1  16   37.51    6.85
  -6   1  16   48.62    6.76
  -5   1  16  439.21   17.59
  -5   1  16  401.45   18.37
  -4   1  16  106.81    9.08
  -3   1  16  208.86   12.43
  -2   1  16  983.85   33.59
  -1   1  16   96.21    9.44
   0   1  16 1270.67   41.33
   1   1  16    3.28    4.86
   2   1  16   45.80    7.76
   3   1  16  169.43   12.77
   4   1  16   65.75    9.73
   5   1  16   41.30    8.73
   6   1  16   22.31    8.12
   7   1  16    4.91    7.12
   8   1  16    4.35    8.34
   9   1  16   84.50   13.02
  10   1  16    8.13    9.82
 -14   2  16   22.33    9.82
 -13   2  16   42.17    9.83
 -12   2  16  126.99   13.29
 -11   2  16   56.33    9.31
 -10   2  16   35.93    8.01
  -9   2  16   16.54    5.70
  -9   2  16    5.25    6.02
  -8   2  16   50.75    7.60
  -8   2  16   47.40    7.59
  -7   2  16  640.82   23.95
  -7   2  16  592.82   24.01
  -6   2  16    7.60    4.69
  -6   2  16    8.49    5.18
  -5   2  16  278.36   13.94
  -5   2  16  250.38   14.17
  -4   2  16   43.09    6.93
  -3   2  16  159.68   11.36
  -2   2  16 1258.25   40.90
  -1   2  16    5.06    4.88
   0   2  16   84.28    9.45
   1   2  16    3.00    4.64
   2   2  16    2.13    5.05
   3   2  16   54.91    8.89
   4   2  16  187.18   14.19
   5   2  16   82.49   11.30
   6   2  16    9.22    7.80
   7   2  16   79.62   12.22
   8   2  16    4.02    8.49
   9   2  16   64.15   12.99
 -14   3  16   61.58   11.71
 -13   3  16   47.30   10.01
 -12   3  16    9.19    7.73
 -11   3  16    0.32    6.12
 -10   3  16   46.76    8.56
  -9   3  16  664.39   26.49
  -8   3  16  264.25   14.70
  -8   3  16  263.49   15.13
  -7   3  16  247.83   14.28
  -7   3  16  274.41   15.08
  -6   3  16   89.98    9.12
  -6   3  16   88.70    9.29
  -5   3  16  136.00   10.34
  -5   3  16  130.22   10.63
  -4   3  16  145.77   10.92
  -3   3  16   18.16    6.33
  -2   3  16   53.59    8.30
  -1   3  16    6.57    4.90
   0   3  16   10.62    5.33
   1   3  16   53.41    8.80
   2   3  16  553.73   24.91
   3   3  16   12.73    7.03
   4   3  16    5.68    6.92
   5   3  16   67.52   11.47
   6   3  16   -0.50    7.63
   7   3  16    3.37    8.37
   8   3  16    0.58    9.34
 -14   4  16   96.28   13.46
 -13   4  16   65.37   11.22
 -12   4  16    4.15    6.87
 -11   4  16   83.45   10.72
 -10   4  16  167.79   13.25
  -9   4  16  419.46   20.28
  -8   4  16   95.68    9.64
  -8   4  16  110.86   10.68
  -7   4  16  187.88   12.89
  -7   4  16  200.16   13.46
  -6   4  16   17.08    6.09
  -6   4  16   26.26    6.98
  -5   4  16   33.57    6.90
  -4   4  16    5.00    4.80
  -3   4  16  189.69   12.89
  -2   4  16    3.21    4.98
  -1   4  16   45.60    7.94
   0   4  16  532.84   24.03
   1   4  16   10.32    6.60
   2   4  16   68.61   10.66
   3   4  16  114.46   12.89
   4   4  16   32.47    9.37
   5   4  16   -1.64    7.44
   6   4  16    2.08    8.00
   7   4  16   48.87   11.97
 -14   5  16    7.15    8.52
 -13   5  16  125.67   13.96
 -12   5  16  111.73   12.82
 -11   5  16  106.66   12.00
 -10   5  16   -0.69    6.35
  -9   5  16    3.22    6.40
  -8   5  16   74.31    9.87
  -8   5  16   77.89    9.24
  -7   5  16   84.15   10.15
  -7   5  16   95.48    9.83
  -6   5  16    1.29    5.65
  -6   5  16    3.06    5.21
  -5   5  16  283.03   16.03
  -4   5  16   60.56    8.80
  -3   5  16   58.61    8.83
  -2   5  16  512.24   23.50
  -1   5  16   -0.30    5.46
   0   5  16    4.89    6.09
   1   5  16    3.06    5.98
   2   5  16   50.54    9.96
   3   5  16    2.70    7.13
   4   5  16   45.58   10.97
   5   5  16  111.89   14.35
   6   5  16  -12.52    8.94
 -14   6  16  103.96   14.13
 -13   6  16   63.79   11.63
 -12   6  16   12.81    8.08
 -11   6  16   -1.31    6.77
 -10   6  16   14.17    7.99
  -9   6  16   91.67   11.14
  -8   6  16  131.36   12.06
  -7   6  16  285.24   16.72
  -7   6  16  285.65   16.43
  -6   6  16    0.89    5.59
  -6   6  16   -3.29    5.96
  -5   6  16   31.59    7.87
  -4   6  16  177.08   13.40
  -3   6  16   10.59    6.32
  -2   6  16   63.24   10.00
  -1   6  16    9.63    6.73
   0   6  16   82.42   11.59
   1   6  16   -8.46    6.08
   2   6  16   44.38   10.16
   3   6  16   19.87    9.09
   4   6  16   12.06    9.17
 -14   7  16   -5.15    8.71
 -13   7  16   19.09    8.93
 -12   7  16   30.69    9.76
 -11   7  16   32.55    9.01
 -10   7  16   56.74    9.78
  -9   7  16  507.21   24.04
  -8   7  16   32.92    8.88
  -7   7  16   38.36    9.01
  -7   7  16   47.54    8.70
  -6   7  16   12.38    7.09
  -6   7  16   28.75    8.40
  -5   7  16   84.38   11.01
  -4   7  16   12.51    7.01
  -3   7  16  103.03   12.16
  -2   7  16   52.65   10.12
  -1   7  16   -1.80    6.65
   0   7  16   59.17   11.20
   1   7  16    2.01    6.74
   2   7  16   -5.09    4.26
   3   7  16   -0.12    5.15
 -14   8  16    0.87    9.95
 -13   8  16   43.03   10.64
 -12   8  16  155.59   15.68
 -11   8  16   91.40   12.56
 -10   8  16    9.25    7.90
  -9   8  16    7.93    7.82
  -8   8  16   -7.10    6.67
  -7   8  16   29.64    9.05
  -6   8  16   11.54    7.64
  -5   8  16   63.06   10.63
  -4   8  16   38.66    9.40
  -3   8  16   -3.74    7.02
  -2   8  16   44.40   10.20
  -1   8  16   14.18    7.98
   0   8  16    4.19    6.55
   1   8  16   -4.32    4.96
 -13   9  16   44.11   11.53
 -12   9  16   22.37    9.38
 -11   9  16    0.74    8.55
 -10   9  16   45.31   10.64
  -9   9  16   -3.39    7.60
  -8   9  16    3.77    8.00
  -7   9  16  115.04   13.52
  -6   9  16    4.51    7.79
  -5   9  16   -2.86    7.18
  -4   9  16   47.74   10.66
  -3   9  16   10.38    8.06
  -2   9  16   33.90    9.80
  -1   9  16    1.31    5.35
   0   9  16    0.94    5.53
 -12  10  16   56.17   12.19
 -11  10  16   21.05   10.21
 -10  10  16   29.56   10.30
  -9  10  16   97.81   13.04
  -8  10  16    2.13    8.60
  -5  10  16  108.89   13.84
  -4  10  16   -5.83    7.15
  -3  10  16   -3.54    7.57
  -2  10  16   89.75   14.13
 -11  11  16   54.91   13.03
 -10  11  16   29.27   10.62
  -9  11  16   53.64   12.43
  -8  11  16    3.70    9.29
  -5  11  16   14.99    8.96
  -4  11  16   33.00   11.02
   9 -19  17   42.71   12.74
  10 -19  17   11.72   11.80
   2 -18  17    2.68    9.17
   3 -18  17  157.48   17.26
   6 -18  17  219.55   22.04
   7 -18  17   64.19   15.15
   8 -18  17   30.14   11.61
   9 -18  17   12.53   10.01
  10 -18  17    8.74   10.67
  11 -18  17    5.91   10.09
   0 -17  17   12.62   10.28
   1 -17  17  112.58   15.48
   2 -17  17   -4.59    8.03
   3 -17  17    6.54    8.48
   4 -17  17  102.64   13.42
   7 -17  17   43.65   12.48
   8 -17  17   80.75   14.37
   9 -17  17   20.53    9.29
  10 -17  17  106.91   16.15
  11 -17  17   79.67   14.83
  12 -17  17   73.58   15.61
  -1 -16  17   98.30   14.84
   0 -16  17    8.90    8.23
   1 -16  17    5.02    8.03
   2 -16  17   50.35   10.96
   3 -16  17   -0.13    6.77
   4 -16  17   83.28   11.95
   7 -16  17   12.10    9.03
   8 -16  17   67.91   13.65
   9 -16  17   39.99   10.78
  10 -16  17   81.81   14.84
  11 -16  17   12.61    9.23
  12 -16  17   29.63   12.37
  -1 -15  17    8.51    8.38
   0 -15  17   -1.40    7.33
   1 -15  17   -5.18    6.80
   2 -15  17   23.57    9.09
   3 -15  17  289.75   18.77
   4 -15  17   27.33    7.98
   5 -15  17  179.89   14.40
   7 -15  17  111.71   15.51
   8 -15  17  257.34   20.60
   9 -15  17   47.15   11.78
  10 -15  17    1.59    7.34
  11 -15  17   15.76    8.35
  12 -15  17   71.63   14.37
  13 -15  17   24.00   11.95
  -3 -14  17   -7.95    6.60
  -2 -14  17   34.75   10.04
  -1 -14  17   -0.15    6.92
   0 -14  17    0.01    6.65
   1 -14  17  436.70   24.05
   2 -14  17  102.77   12.55
   3 -14  17  199.43   15.17
   4 -14  17   66.10    9.78
   5 -14  17   14.89    6.37
   7 -14  17   60.00   12.96
   8 -14  17   33.74   10.14
   9 -14  17    9.03    6.58
  10 -14  17   49.86   11.35
  11 -14  17   96.80   14.89
  12 -14  17   67.02   13.79
  13 -14  17   10.44   10.47
  -5 -13  17    7.47    4.80
  -4 -13  17  100.15   14.08
  -3 -13  17    4.23    7.34
  -2 -13  17   17.67    8.32
  -1 -13  17  454.11   25.00
   0 -13  17    1.32    6.67
   1 -13  17  398.51   21.83
   2 -13  17    5.51    6.11
   3 -13  17   19.26    6.66
   4 -13  17  205.38   14.13
   5 -13  17   88.45   10.00
   6 -13  17    5.59    5.39
   7 -13  17   51.50   11.27
   8 -13  17    6.98    7.32
   9 -13  17  107.65   14.83
  10 -13  17  289.99   21.57
  11 -13  17   73.75   12.88
  12 -13  17   44.73   11.67
  13 -13  17   33.24   11.05
  -6 -12  17   -4.02    4.49
  -5 -12  17    1.37    4.66
  -4 -12  17   87.22   12.31
  -3 -12  17  268.67   19.20
  -2 -12  17   97.43   12.72
  -1 -12  17  354.97   20.90
   0 -12  17    3.38    5.43
   1 -12  17   63.96    9.68
   2 -12  17  180.01   13.44
   3 -12  17   12.76    5.13
   4 -12  17   19.65    6.55
   5 -12  17  472.59   21.18
   6 -12  17   16.00    6.26
   7 -12  17   79.57   12.61
   8 -12  17  407.39   25.28
   9 -12  17  164.50   16.08
  10 -12  17   54.25   12.00
  11 -12  17    4.56    9.72
  12 -12  17  -12.92    8.45
  13 -12  17    0.21    7.02
  -8 -11  17   72.00   13.04
  -7 -11  17   39.35   10.63
  -7 -11  17   -3.62    4.24
  -6 -11  17   -3.40    5.55
  -5 -11  17  163.55   15.17
  -4 -11  17   26.03    8.55
  -3 -11  17  227.20   16.84
  -2 -11  17   11.39    5.98
  -1 -11  17   58.52    9.50
   0 -11  17    1.62    4.98
   1 -11  17  143.11   11.92
   2 -11  17   20.67    5.95
   3 -11  17  266.97   15.32
   4 -11  17    6.45    4.97
   5 -11  17    9.76    5.24
   6 -11  17  717.49   27.35
   7 -11  17   69.41    8.60
   7 -11  17   70.60   12.12
   8 -11  17    8.89    7.55
   9 -11  17   -1.78    8.12
  10 -11  17   21.94    9.96
  11 -11  17    4.61    9.16
  12 -11  17   44.88   12.65
  13 -11  17    1.83    6.74
  -9 -10  17   54.78   12.24
  -8 -10  17   25.17    9.34
  -7 -10  17   39.76    9.73
  -7 -10  17    9.68    7.06
  -6 -10  17   33.82    8.77
  -5 -10  17  175.60   15.19
  -4 -10  17   35.19    8.65
  -3 -10  17   15.93    6.79
  -2 -10  17  171.31   13.53
  -1 -10  17  142.72   12.09
   0 -10  17    5.91    4.94
   1 -10  17 1176.57   40.15
   2 -10  17    5.23    4.76
   3 -10  17    5.17    4.37
   4 -10  17  215.36   13.18
   5 -10  17    0.26    4.62
   6 -10  17   33.86    6.69
   7 -10  17    1.08    7.39
   7 -10  17   -1.80    4.89
   8 -10  17   50.01   12.00
   9 -10  17    0.50    7.78
  10 -10  17   91.55   14.61
  11 -10  17   60.58   13.17
  12 -10  17   59.98   14.24
  13 -10  17   11.19    7.10
  14 -10  17   -2.34    7.29
 -10  -9  17    9.70    9.76
  -9  -9  17   -4.99    7.81
  -9  -9  17   11.23    7.33
  -8  -9  17   56.80   10.91
  -8  -9  17   57.64   10.96
  -7  -9  17    6.15    6.89
  -7  -9  17   16.63    7.16
  -6  -9  17   85.91   11.57
  -5  -9  17   17.70    6.97
  -4  -9  17  187.11   14.05
  -3  -9  17    8.33    5.65
  -2  -9  17   12.99    5.51
  -1  -9  17 1127.26   39.27
   0  -9  17   -0.16    4.31
   1  -9  17   -1.16    4.07
   2  -9  17   96.48    9.25
   3  -9  17    6.97    4.68
   4  -9  17    1.81    4.16
   5  -9  17  341.33   16.86
   6  -9  17   53.98    7.80
   7  -9  17    3.87    7.46
   7  -9  17    5.26    5.30
   8  -9  17  358.95   23.48
   9  -9  17   11.39    9.03
  10  -9  17   39.33   11.54
  11  -9  17    3.24    9.63
  12  -9  17   -0.34    8.79
  13  -9  17    5.57    7.73
  14  -9  17   -8.82   10.11
 -10  -8  17   -0.46    6.64
 -10  -8  17    8.57    8.56
  -9  -8  17   -3.43    6.92
  -9  -8  17    9.50    7.13
  -8  -8  17   56.56    9.91
  -8  -8  17   43.72    9.49
  -7  -8  17   89.31   11.70
  -7  -8  17   96.16   11.27
  -6  -8  17  365.02   19.50
  -6  -8  17  382.44   20.82
  -5  -8  17   69.67    9.94
  -4  -8  17   34.58    7.10
  -3  -8  17  255.37   15.21
  -2  -8  17   11.42    5.07
  -1  -8  17    8.59    4.73
   0  -8  17   -0.24    3.72
   1  -8  17    4.69    4.38
   2  -8  17    7.03    4.31
   3  -8  17  378.93   17.80
   4  -8  17   51.41    7.43
   5  -8  17  135.81   10.59
   6  -8  17   31.30    6.62
   6  -8  17   13.99    9.35
   7  -8  17   90.66   13.25
   7  -8  17   68.14    8.50
   8  -8  17  150.28   15.56
   8  -8  17  141.19   11.46
   9  -8  17   41.09   10.60
  10  -8  17   18.40   10.19
  11  -8  17   10.30    9.45
  12  -8  17    5.33    9.78
  13  -8  17  115.97   17.31
  14  -8  17   -9.01   10.21
 -11  -7  17   14.77    8.47
 -11  -7  17   20.61    9.15
 -10  -7  17   81.69   12.18
 -10  -7  17   80.02   12.10
  -9  -7  17   28.60    8.32
  -9  -7  17   15.83    7.87
  -8  -7  17  219.73   16.12
  -8  -7  17  222.22   15.92
  -7  -7  17   43.70    8.51
  -7  -7  17   40.31    8.70
  -6  -7  17   -0.27    4.87
  -6  -7  17    9.24    5.42
  -5  -7  17  440.69   21.09
  -4  -7  17    2.60    4.20
  -3  -7  17    3.02    3.79
  -2  -7  17   88.78    9.02
  -1  -7  17    2.73    3.67
   0  -7  17   -0.94    3.50
   1  -7  17  640.94   24.76
   2  -7  17   33.44    6.62
   3  -7  17   12.73    5.20
   4  -7  17   45.22    7.26
   5  -7  17    0.49    4.30
   6  -7  17   35.59    9.75
   6  -7  17   25.37    6.41
   7  -7  17   58.09   11.41
   7  -7  17   49.15    7.74
   8  -7  17  200.80   17.30
   8  -7  17  207.09   13.43
   9  -7  17    7.08    8.58
  10  -7  17    0.41    8.66
  11  -7  17   73.60   14.04
  12  -7  17   30.38   11.47
  13  -7  17   20.73   10.97
  14  -7  17  -14.79   10.51
 -11  -6  17   79.89   12.38
 -11  -6  17   72.01   11.42
 -10  -6  17   92.08   11.56
 -10  -6  17   94.22   11.94
  -9  -6  17   34.70    7.98
  -9  -6  17   38.65    9.13
  -8  -6  17   27.96    6.97
  -8  -6  17   27.04    7.92
  -7  -6  17   34.74    7.41
  -7  -6  17   32.98    7.66
  -6  -6  17   12.51    5.56
  -6  -6  17    7.92    5.32
  -5  -6  17   -1.55    3.92
  -4  -6  17  195.54   12.72
  -3  -6  17    3.50    4.10
  -2  -6  17   10.70    4.73
  -1  -6  17  619.49   24.11
   0  -6  17   -2.28    3.72
   1  -6  17  219.34   12.96
   2  -6  17    8.08    4.46
   3  -6  17   20.88    5.57
   4  -6  17   19.15    5.76
   5  -6  17   83.25    8.88
   6  -6  17   62.00   10.97
   6  -6  17   71.06    8.48
   7  -6  17   32.38    7.07
   7  -6  17   35.79    9.45
   8  -6  17   -2.44    7.34
   8  -6  17    5.89    5.70
   9  -6  17   44.82   11.84
  10  -6  17   87.94   14.42
  11  -6  17   15.49    9.50
  12  -6  17   14.06   10.03
  13  -6  17   55.50   12.91
 -12  -5  17   47.13   11.08
 -11  -5  17   14.82    7.06
 -11  -5  17   12.58    7.96
 -10  -5  17    1.15    5.96
 -10  -5  17    9.08    6.08
  -9  -5  17    2.70    5.53
  -9  -5  17    1.40    5.08
  -8  -5  17    5.87    5.76
  -8  -5  17    2.14    4.96
  -7  -5  17   40.71    7.56
  -7  -5  17   39.14    7.37
  -6  -5  17  597.45   24.99
  -5  -5  17    2.64    3.96
  -4  -5  17    1.37    3.73
  -3  -5  17  332.23   16.38
  -2  -5  17   37.50    6.57
  -1  -5  17  193.10   12.21
   0  -5  17    6.58    4.26
   1  -5  17   11.18    4.78
   2  -5  17    9.24    4.57
   3  -5  17  110.84    9.42
   4  -5  17  286.14   15.16
   5  -5  17   80.09   11.68
   5  -5  17   78.49    8.90
   6  -5  17   27.24    6.79
   6  -5  17   35.22    9.46
   7  -5  17    1.97    5.61
   7  -5  17   -0.84    7.16
   8  -5  17  130.39   11.14
   8  -5  17  120.69   15.02
   9  -5  17   -2.20    6.10
   9  -5  17    4.71    8.77
  10  -5  17   11.03    9.48
  11  -5  17   72.58   13.92
  12  -5  17   32.50   13.18
 -12  -4  17   53.41   10.80
 -11  -4  17   19.06    6.45
 -11  -4  17    5.10    6.79
 -10  -4  17   38.24    8.50
 -10  -4  17   47.74    8.86
  -9  -4  17  120.32   11.77
  -9  -4  17  103.18   10.82
  -8  -4  17  324.41   17.86
  -8  -4  17  349.92   17.93
  -7  -4  17   53.45    8.10
  -7  -4  17   71.63    8.55
  -6  -4  17   24.47    6.23
  -5  -4  17  305.90   15.85
  -4  -4  17   22.99    5.78
  -3  -4  17   13.68    4.88
  -2  -4  17    6.83    4.25
  -1  -4  17   10.85    4.74
   0  -4  17    2.42    4.15
   1  -4  17  351.87   16.87
   2  -4  17   10.89    4.88
   3  -4  17  250.96   14.03
   4  -4  17    8.10    4.95
   5  -4  17   93.19   12.04
   5  -4  17   95.70    9.60
   6  -4  17  251.59   18.02
   6  -4  17  241.62   14.83
   7  -4  17    5.90    7.14
   7  -4  17   -0.97    5.53
   8  -4  17  157.40   16.35
   8  -4  17  136.25   12.24
   9  -4  17   23.27    7.94
   9  -4  17   35.19   11.27
  10  -4  17    8.27    9.71
 -13  -3  17   15.30    9.05
 -12  -3  17   52.12   10.22
 -11  -3  17   70.55   10.71
 -10  -3  17  253.81   15.98
 -10  -3  17  256.30   16.34
  -9  -3  17  140.44   11.97
  -9  -3  17  120.75   11.58
  -8  -3  17   -0.08    5.21
  -8  -3  17    2.06    5.03
  -7  -3  17    1.52    4.67
  -7  -3  17    4.97    5.32
  -6  -3  17   52.75    7.53
  -5  -3  17  118.18    9.80
  -4  -3  17   34.28    6.52
  -3  -3  17   12.66    5.02
  -2  -3  17    6.51    4.24
  -1  -3  17  345.79   16.70
   0  -3  17    6.31    4.77
   1  -3  17  443.04   19.54
   2  -3  17   10.04    5.37
   3  -3  17   41.95    7.34
   4  -3  17  455.79   20.34
   4  -3  17  474.49   24.16
   5  -3  17   11.75    5.99
   5  -3  17    8.14    7.25
   6  -3  17  112.87   11.17
   6  -3  17  112.22   13.35
   7  -3  17    3.89    6.06
   7  -3  17    8.04    7.99
   8  -3  17   29.07    8.42
   8  -3  17   36.89   10.40
   9  -3  17    4.71    7.44
 -13  -2  17   21.20    8.78
 -12  -2  17   60.25   10.62
 -11  -2  17   70.76   10.41
 -10  -2  17   48.31    8.63
 -10  -2  17   45.44    8.22
  -9  -2  17    3.21    5.30
  -9  -2  17    1.65    4.89
  -8  -2  17   40.60    7.13
  -8  -2  17   38.97    7.21
  -7  -2  17    9.16    4.97
  -7  -2  17   -2.33    3.73
  -6  -2  17   30.09    6.45
  -5  -2  17    3.14    4.12
  -4  -2  17   13.48    5.31
  -3  -2  17  103.40    8.94
  -2  -2  17   23.80    5.85
  -1  -2  17  435.09   19.18
   0  -2  17   10.28    4.92
   1  -2  17  723.06   27.05
   2  -2  17    9.66    5.38
   3  -2  17   12.69    5.73
   4  -2  17   39.97    8.57
   4  -2  17   25.70    7.00
   5  -2  17   42.64    7.96
   5  -2  17   35.87    9.30
   6  -2  17   70.01    9.67
   6  -2  17   67.56   11.08
   7  -2  17   -2.84    6.21
   8  -2  17  274.44   17.54
   9  -2  17   -3.54    7.11
  10  -2  17   -3.12    7.60
 -14  -1  17   17.24   10.03
 -13  -1  17    9.11    8.14
 -12  -1  17   28.60    8.78
 -11  -1  17    2.36    6.29
 -10  -1  17   12.16    6.57
 -10  -1  17    8.64    5.84
  -9  -1  17    4.38    5.36
  -9  -1  17   -0.64    4.85
  -8  -1  17  354.42   17.45
  -8  -1  17  350.96   17.70
  -7  -1  17   75.06    8.66
  -7  -1  17   75.21    8.19
  -6  -1  17   35.56    6.65
  -5  -1  17   72.27    8.41
  -4  -1  17  271.77   14.77
  -3  -1  17  262.04   14.22
  -2  -1  17    4.74    4.09
  -1  -1  17  736.14   27.31
   0  -1  17    5.82    4.54
   1  -1  17   24.49    6.35
   2  -1  17  404.12   18.92
   3  -1  17  131.32   12.83
   3  -1  17  133.75   11.18
   4  -1  17   60.73    9.00
   5  -1  17   50.61    8.78
   6  -1  17   75.76   10.43
   7  -1  17   15.02    7.50
   8  -1  17    0.42    7.05
   9  -1  17  122.96   13.70
  10  -1  17   69.14   12.15
 -14   0  17   -3.57    8.02
 -13   0  17   69.24   11.59
 -12   0  17    5.18    7.04
 -11   0  17    4.51    6.54
 -10   0  17   75.37   10.11
  -9   0  17    7.31    5.09
  -9   0  17   19.90    6.57
  -8   0  17  120.75   10.60
  -8   0  17  113.33   10.45
  -7   0  17   36.46    6.93
  -7   0  17   31.84    6.43
  -6   0  17   64.79    8.22
  -5   0  17   58.23    7.88
  -4   0  17    9.58    4.85
  -3   0  17   48.04    7.15
  -2   0  17    8.89    4.73
  -1   0  17   19.89    5.84
   0   0  17    3.86    4.72
   1   0  17  518.79   22.26
   2   0  17   30.87    7.15
   3   0  17   67.41    9.31
   4   0  17   69.92    9.65
   5   0  17  291.64   17.60
   6   0  17   85.37   11.39
   7   0  17   11.37    7.87
   8   0  17  208.29   16.35
   9   0  17    2.44    8.52
  10   0  17    0.71    9.17
 -14   1  17   13.32    8.88
 -13   1  17   25.78    8.78
 -12   1  17   49.24    9.92
 -11   1  17   65.27   10.02
 -10   1  17   31.74    8.03
  -9   1  17   10.02    5.53
  -9   1  17   21.99    6.44
  -8   1  17  209.37   13.67
  -8   1  17  212.32   13.52
  -7   1  17   30.29    6.38
  -7   1  17   30.66    6.47
  -6   1  17   23.70    5.93
  -5   1  17   88.84    9.28
  -4   1  17  443.64   19.72
  -3   1  17   13.16    5.37
  -2   1  17  394.26   18.70
  -1   1  17  513.61   21.93
   0   1  17    5.95    4.71
   1   1  17  181.43   12.88
   2   1  17   21.61    6.51
   3   1  17  158.22   12.84
   4   1  17    9.24    6.91
   5   1  17   -2.82    6.27
   6   1  17  400.30   21.99
   7   1  17  -12.89    6.48
   8   1  17    0.24    7.94
   9   1  17   -1.56    8.50
 -14   2  17   39.77   10.56
 -13   2  17   69.41   11.55
 -12   2  17   53.97    9.92
 -11   2  17   10.48    6.85
 -10   2  17   25.08    7.31
  -9   2  17    1.82    4.94
  -9   2  17    2.92    5.43
  -8   2  17   -0.16    5.53
  -8   2  17    6.89    5.09
  -7   2  17   -6.27    4.92
  -7   2  17    5.13    5.00
  -6   2  17  225.65   13.62
  -5   2  17    4.02    4.49
  -4   2  17   36.35    7.05
  -3   2  17  129.58   10.56
  -2   2  17   30.98    7.10
  -1   2  17  151.93   11.93
   0   2  17    1.89    4.73
   1   2  17  216.24   14.21
   2   2  17   39.92    8.09
   3   2  17    9.33    6.35
   4   2  17  137.50   13.50
   5   2  17    8.47    7.91
   6   2  17    6.04    8.09
   7   2  17    8.18    8.12
   8   2  17   12.31    9.16
 -14   3  17   16.71    9.18
 -13   3  17    8.25    8.16
 -12   3  17    3.30    6.99
 -11   3  17    6.55    6.80
 -10   3  17    6.00    6.35
  -9   3  17   64.70    9.12
  -8   3  17  119.03   10.92
  -8   3  17  129.24   11.15
  -7   3  17    7.15    5.14
  -6   3  17  129.65   10.81
  -5   3  17   39.05    7.57
  -4   3  17   51.86    8.05
  -3   3  17   67.80    8.61
  -2   3  17   14.30    6.09
  -1   3  17  214.11   14.14
   0   3  17    1.35    5.40
   1   3  17  116.53   11.96
   2   3  17    2.48    6.06
   3   3  17   -0.13    6.79
   4   3  17   23.99    8.80
   5   3  17  113.98   13.92
   6   3  17    6.88    8.12
   7   3  17    9.25    8.78
 -14   4  17    3.86    8.23
 -13   4  17   -7.82    7.09
 -12   4  17    9.42    7.39
 -11   4  17   90.31   11.25
 -10   4  17  119.35   12.25
  -9   4  17    0.31    5.59
  -8   4  17  130.79   12.25
  -8   4  17  127.53   11.38
  -7   4  17    4.42    5.38
  -6   4  17   77.79    9.41
  -5   4  17   39.32    7.51
  -4   4  17   73.24    9.63
  -3   4  17  143.17   11.90
  -2   4  17   40.05    8.04
  -1   4  17  118.98   11.90
   0   4  17   -6.02    5.31
   1   4  17    7.91    6.59
   2   4  17   13.54    7.09
   3   4  17  297.40   19.43
   4   4  17   18.14    8.56
   5   4  17   17.93    9.30
   6   4  17  122.93   15.44
 -14   5  17    2.51    8.96
 -13   5  17  143.28   14.87
 -12   5  17   21.24    8.52
 -11   5  17   -1.31    6.63
 -10   5  17    1.98    6.87
  -9   5  17   35.60    8.07
  -8   5  17   29.40    8.02
  -7   5  17   -1.90    5.38
  -6   5  17   82.74   10.26
  -5   5  17  253.08   15.61
  -4   5  17   -1.93    5.22
  -3   5  17   10.78    6.19
  -2   5  17    6.35    6.20
  -1   5  17    4.48    6.16
   0   5  17   -2.11    5.88
   1   5  17  425.89   22.72
   2   5  17    1.86    7.31
   3   5  17   11.47    8.40
   4   5  17  151.82   16.05
   5   5  17   -7.99    8.95
 -14   6  17    0.96    9.35
 -13   6  17   19.60    9.23
 -12   6  17   16.96    8.81
 -11   6  17   77.42   11.51
 -10   6  17    5.97    7.69
  -9   6  17   -0.26    6.56
  -8   6  17  315.73   18.24
  -7   6  17   11.69    6.80
  -6   6  17   73.80    9.91
  -5   6  17    5.90    6.45
  -4   6  17  159.88   13.31
  -3   6  17   11.36    6.57
  -2   6  17    5.72    6.35
  -1   6  17  437.02   23.21
   0   6  17   -4.30    6.62
   1   6  17    5.60    6.83
   2   6  17    0.79    5.34
   3   6  17    2.63    8.27
 -14   7  17   10.52   10.46
 -13   7  17   40.74   11.00
 -12   7  17   30.63   10.12
 -11   7  17   18.15    8.75
 -10   7  17   87.19   12.10
  -9   7  17    1.24    7.26
  -7   7  17   18.36    7.21
  -6   7  17  440.63   22.56
  -5   7  17   15.27    7.81
  -4   7  17   21.85    8.09
  -3   7  17  265.55   17.95
  -2   7  17    6.94    7.40
  -1   7  17    2.50    7.38
   0   7  17  -12.70    6.24
   1   7  17    5.09    4.58
   2   7  17   -2.02    5.22
 -13   8  17   90.89   13.65
 -12   8  17    5.70    9.17
 -11   8  17   15.74    9.18
 -10   8  17    7.05    8.89
  -9   8  17  118.48   13.53
  -6   8  17    9.74    7.75
  -5   8  17  128.42   13.87
  -4   8  17   32.63    9.11
  -3   8  17   15.87    7.79
  -2   8  17   54.15   10.28
  -1   8  17    9.77    5.83
   0   8  17    0.18    4.86
 -12   9  17   13.67   10.20
 -11   9  17   54.53   12.04
 -10   9  17   99.62   13.55
  -6   9  17   10.45    8.26
  -5   9  17   10.73    8.55
  -4   9  17  124.97   14.58
  -3   9  17    3.36    8.16
  -2   9  17   -6.39    7.26
  -1   9  17   -0.96    5.72
 -11  10  17   -2.58    9.56
 -10  10  17   24.03   10.33
  -5  10  17    9.84    7.53
  -4  10  17   21.21    9.62
  -3  10  17  157.97   17.35
   8 -19  18   -0.20   11.87
   9 -19  18   87.14   17.92
   2 -18  18  140.61   17.32
   3 -18  18    6.46    8.83
   7 -18  18  164.13   20.96
   8 -18  18   41.28   11.77
   9 -18  18   98.15   17.02
  10 -18  18   15.66   10.78
   1 -17  18   20.65   10.66
   2 -17  18   78.69   13.60
   3 -17  18  -11.47    7.30
   4 -17  18    9.98    8.41
   7 -17  18   35.73   11.16
   8 -17  18   10.49    9.67
   9 -17  18    7.99    9.19
  10 -17  18   35.85   11.40
  11 -17  18   63.53   14.65
  -1 -16  18    9.00   10.23
   0 -16  18   55.94   12.31
   1 -16  18    1.12    7.88
   2 -16  18   22.74    9.43
   3 -16  18   20.01    9.12
   4 -16  18   44.61   10.28
   7 -16  18   22.71    9.74
   8 -16  18   -2.61    7.61
   9 -16  18   86.12   15.72
  10 -16  18   60.44   13.12
  11 -16  18   -3.87    8.87
  12 -16  18   22.97   11.50
  -2 -15  18   46.25   11.95
  -1 -15  18    6.87    8.60
   0 -15  18   37.47   10.38
   1 -15  18   27.77    9.35
   2 -15  18   73.26   11.89
   3 -15  18   28.93    8.50
   4 -15  18  128.41   13.45
   5 -15  18    9.13    6.71
   7 -15  18  197.42   19.10
   8 -15  18   23.53    9.47
   9 -15  18    7.04    8.38
  10 -15  18   14.04    8.79
  11 -15  18   32.66   11.31
  12 -15  18    2.25    9.13
  -3 -14  18    2.85    8.32
  -2 -14  18   42.32   11.13
  -1 -14  18   29.57    9.34
   0 -14  18   44.87   10.47
   1 -14  18   11.93    7.50
   2 -14  18  216.73   16.68
   3 -14  18   14.85    7.40
   4 -14  18    4.36    6.19
   5 -14  18  170.40   13.57
   7 -14  18   80.82   14.11
   8 -14  18    9.83    7.80
   9 -14  18   14.91    9.04
  10 -14  18    5.30    7.04
  11 -14  18   29.05    9.76
  12 -14  18   32.78   10.91
  -5 -13  18    1.32    4.78
  -4 -13  18   10.02    8.14
  -3 -13  18   21.07    9.07
  -2 -13  18   52.89   11.10
  -1 -13  18   11.06    7.63
   0 -13  18  270.78   18.52
   1 -13  18   35.14    9.30
   2 -13  18   51.22    9.45
   3 -13  18   16.13    6.75
   4 -13  18   35.13    7.69
   5 -13  18   45.38    8.35
   6 -13  18   14.78    6.28
   7 -13  18  322.64   22.75
   8 -13  18   17.40    8.93
   9 -13  18  144.73   16.96
  10 -13  18   48.90   11.62
  11 -13  18   36.91   11.34
  12 -13  18    4.29    7.25
  13 -13  18  -11.73    6.33
  -6 -12  18    3.28    5.09
  -5 -12  18    2.68    4.32
  -4 -12  18   23.43    8.24
  -3 -12  18   16.38    8.42
  -2 -12  18  203.92   16.57
  -1 -12  18   48.83    9.83
   0 -12  18   24.11    7.73
   1 -12  18   41.70    8.51
   2 -12  18   50.47    8.75
   3 -12  18   -1.47    5.19
   4 -12  18   53.66    8.50
   5 -12  18  265.99   15.84
   6 -12  18    1.93    5.20
   7 -12  18   98.35   14.45
   8 -12  18    6.39    6.38
   9 -12  18    5.35    8.08
  10 -12  18   33.67   11.52
  11 -12  18   40.26   12.78
  12 -12  18    1.50    6.88
  13 -12  18   -2.80    7.21
  -7 -11  18   -1.10    4.71
  -6 -11  18   -3.82    4.34
  -5 -11  18   21.97    7.35
  -4 -11  18  148.61   14.60
  -3 -11  18    9.86    6.53
  -2 -11  18   25.02    7.77
  -1 -11  18   44.69    8.87
   0 -11  18   72.06    9.69
   1 -11  18   94.52   10.47
   2 -11  18  327.72   17.69
   3 -11  18   16.88    6.05
   4 -11  18   29.37    6.74
   5 -11  18   16.68    6.36
   6 -11  18    5.55    5.62
   7 -11  18   16.61    6.73
   7 -11  18   20.28    9.69
   8 -11  18    7.65    8.98
   9 -11  18  148.36   18.11
  10 -11  18   66.88   13.96
  11 -11  18   25.49   11.10
  12 -11  18    6.04    8.87
  13 -11  18    0.02    6.87
  -8 -10  18   -4.20    4.67
  -7 -10  18    3.03    5.10
  -6 -10  18   25.28    7.96
  -5 -10  18    4.29    6.10
  -4 -10  18    2.90    5.82
  -3 -10  18    8.69    6.17
  -2 -10  18   43.69    8.26
  -1 -10  18   95.74   10.70
   0 -10  18  178.27   13.10
   1 -10  18   -2.06    4.40
   2 -10  18    0.21    4.76
   3 -10  18   76.28    8.96
   4 -10  18   98.58   10.10
   5 -10  18    4.78    5.38
   6 -10  18    2.26    5.11
   7 -10  18  305.01   21.89
   7 -10  18  279.25   15.79
   8 -10  18    3.66    8.61
   9 -10  18    3.40    8.97
  10 -10  18   30.70   11.38
  11 -10  18    0.15    8.90
  12 -10  18   12.89   10.12
  13 -10  18    6.47    7.62
  -9  -9  18   85.04   12.90
  -8  -9  18   -0.68    5.56
  -7  -9  18    4.44    6.45
  -6  -9  18   20.26    7.47
  -5  -9  18  138.84   13.53
  -4  -9  18   30.90    7.60
  -3  -9  18   12.49    5.61
  -2  -9  18  318.61   17.79
  -1  -9  18    1.37    4.91
   0  -9  18   14.58    5.71
   1  -9  18   15.27    5.76
   2  -9  18  256.22   14.79
   3  -9  18   -0.32    4.23
   4  -9  18   39.70    7.46
   5  -9  18  226.12   13.79
   6  -9  18   68.42    8.85
   7  -9  18    4.94    5.47
   7  -9  18    8.57    8.30
   8  -9  18    3.87    8.15
   9  -9  18   34.43   11.20
  10  -9  18   -5.15    7.96
  11  -9  18  134.30   17.26
  12  -9  18   32.42   12.12
  13  -9  18  105.20   17.75
 -10  -8  18    2.55    6.72
 -10  -8  18    4.23    8.65
  -9  -8  18    2.49    6.26
  -8  -8  18    9.45    6.32
  -7  -8  18  156.19   13.86
  -6  -8  18    3.88    5.24
  -5  -8  18   35.52    7.85
  -4  -8  18   64.44    9.31
  -3  -8  18   14.80    5.62
  -2  -8  18    2.94    4.47
  -1  -8  18    8.82    5.10
   0  -8  18  228.19   13.93
   1  -8  18   31.59    6.49
   2  -8  18   26.29    6.49
   3  -8  18  245.14   14.42
   4  -8  18   95.45    9.40
   5  -8  18   -2.14    4.44
   6  -8  18  316.81   16.52
   6  -8  18  283.66   20.66
   7  -8  18   95.12   13.87
   7  -8  18   89.38    9.72
   8  -8  18   82.19    9.73
   8  -8  18   66.73   13.00
   9  -8  18  136.75   16.25
  10  -8  18  110.67   15.90
  11  -8  18  184.61   18.76
  12  -8  18   19.80   10.96
  13  -8  18   -0.38   11.18
 -11  -7  18    9.80    7.60
 -11  -7  18    3.23    8.61
 -10  -7  18   46.72    9.62
 -10  -7  18   37.37   10.12
  -9  -7  18   97.32   12.40
  -9  -7  18   75.36   11.01
  -8  -7  18   14.88    6.08
  -7  -7  18   42.53    8.39
  -6  -7  18    5.91    5.15
  -5  -7  18  245.04   15.55
  -4  -7  18   34.50    7.27
  -3  -7  18   73.21    8.79
  -2  -7  18  222.62   14.01
  -1  -7  18   32.74    6.52
   0  -7  18   46.57    7.32
   1  -7  18   58.51    8.03
   2  -7  18   12.89    5.39
   3  -7  18   11.61    4.97
   4  -7  18  312.35   16.23
   5  -7  18   76.69    8.98
   6  -7  18   60.20    8.27
   6  -7  18   56.10   11.49
   7  -7  18  229.66   14.42
   7  -7  18  228.76   18.64
   8  -7  18   34.28    7.61
   8  -7  18   38.83   10.69
   9  -7  18  137.72   16.63
  10  -7  18    3.07    8.92
  11  -7  18    1.68    9.30
  12  -7  18   32.55   11.77
  13  -7  18   23.31   12.03
 -11  -6  18   34.91    8.44
 -11  -6  18   40.76   10.45
 -10  -6  18   49.08   10.10
 -10  -6  18   39.53    8.79
  -9  -6  18    4.49    5.45
  -9  -6  18    2.03    6.44
  -8  -6  18    2.94    5.47
  -7  -6  18  255.05   16.16
  -6  -6  18    5.37    4.69
  -5  -6  18    2.85    4.55
  -4  -6  18   66.88    8.51
  -3  -6  18    4.24    4.27
  -2  -6  18   26.64    5.92
  -1  -6  18   64.72    8.11
   0  -6  18   12.11    4.95
   1  -6  18   21.98    5.81
   2  -6  18  359.85   17.43
   3  -6  18    5.92    4.58
   4  -6  18   97.50    9.77
   5  -6  18  205.77   13.29
   6  -6  18   18.44    8.54
   6  -6  18    9.28    5.91
   7  -6  18  235.89   14.81
   7  -6  18  260.94   19.87
   8  -6  18   10.89    6.41
   8  -6  18   11.40    8.82
   9  -6  18   11.77    9.01
  10  -6  18   12.91    9.53
  11  -6  18   34.78   12.00
  12  -6  18   47.67   12.88
  13  -6  18   58.19   14.98
 -12  -5  18    8.27    8.50
 -11  -5  18    5.93    7.42
 -11  -5  18   -4.27    5.69
 -10  -5  18    2.11    6.91
 -10  -5  18    6.97    5.86
  -9  -5  18   14.96    6.13
  -9  -5  18   22.36    7.36
  -8  -5  18    8.99    5.27
  -7  -5  18   69.02    9.14
  -6  -5  18    6.22    4.45
  -5  -5  18   -1.62    3.93
  -4  -5  18   23.72    6.08
  -3  -5  18  200.65   12.61
  -2  -5  18    9.30    4.77
  -1  -5  18   23.60    5.94
   0  -5  18  628.72   24.89
   1  -5  18   68.11    8.51
   2  -5  18  124.27   10.25
   3  -5  18  208.64   13.22
   4  -5  18   -0.14    4.72
   5  -5  18   95.80   13.12
   5  -5  18   95.55   10.08
   6  -5  18  168.21   12.44
   6  -5  18  168.90   15.78
   7  -5  18   41.84    8.61
   7  -5  18   46.92   10.95
   8  -5  18   41.91    8.30
   8  -5  18   39.53   11.12
   9  -5  18   42.92    9.04
   9  -5  18   55.20   12.78
  10  -5  18  162.09   17.82
  11  -5  18  160.77   18.52
 -12  -4  18    7.36    8.24
 -11  -4  18    9.95    7.80
 -10  -4  18   -7.15    5.93
 -10  -4  18    4.60    5.37
  -9  -4  18  108.65   11.67
  -9  -4  18  104.01   11.21
  -8  -4  18    5.54    5.21
  -7  -4  18   12.82    5.56
  -6  -4  18   -2.82    4.34
  -5  -4  18  205.88   13.07
  -4  -4  18   89.18    9.19
  -3  -4  18   15.18    5.02
  -2  -4  18  330.09   16.53
  -1  -4  18   68.10    8.25
   0  -4  18   12.36    5.21
   1  -4  18   71.23    8.60
   2  -4  18   38.09    7.08
   3  -4  18   16.92    5.96
   4  -4  18  201.42   13.25
   5  -4  18   91.49   12.42
   5  -4  18   73.72    9.21
   6  -4  18  336.23   21.04
   6  -4  18  296.44   17.17
   7  -4  18  169.85   13.05
   7  -4  18  161.75   15.75
   8  -4  18  255.78   19.91
   8  -4  18  222.81   15.63
   9  -4  18  202.83   19.13
   9  -4  18  210.29   15.74
 -13  -3  18    4.53    8.05
 -12  -3  18    3.15    7.40
 -11  -3  18   30.10    8.63
 -10  -3  18   62.47    9.58
 -10  -3  18   72.25   10.32
  -9  -3  18   10.96    5.64
  -9  -3  18   15.59    6.55
  -8  -3  18    3.34    5.25
  -7  -3  18  258.21   15.26
  -6  -3  18   69.23    8.53
  -5  -3  18   -3.77    3.89
  -4  -3  18  258.84   14.58
  -3  -3  18   -0.14    4.18
  -2  -3  18  126.53   10.00
  -1  -3  18   81.61    8.88
   0  -3  18  179.06   12.30
   1  -3  18   76.18    8.83
   2  -3  18  210.35   13.22
   3  -3  18   42.22    7.86
   4  -3  18  147.06   11.52
   4  -3  18  136.33   13.90
   5  -3  18   91.29   10.50
   5  -3  18   81.57   11.93
   6  -3  18   14.21    6.65
   6  -3  18   29.93    9.03
   7  -3  18  369.99   19.72
   7  -3  18  381.00   23.09
   8  -3  18   71.53   10.65
   9  -3  18    6.32    7.85
 -13  -2  18    8.80    8.02
 -12  -2  18   24.97    8.49
 -11  -2  18   27.51    8.60
 -10  -2  18   20.39    7.13
 -10  -2  18   31.88    7.71
  -9  -2  18  138.35   11.91
  -9  -2  18  143.48   11.91
  -8  -2  18    2.10    5.08
  -7  -2  18   10.64    5.52
  -6  -2  18  264.25   15.07
  -5  -2  18   82.04    9.18
  -4  -2  18   91.33    9.26
  -3  -2  18  177.07   12.13
  -2  -2  18   36.86    6.89
  -1  -2  18   77.99    8.90
   0  -2  18  422.60   19.47
   1  -2  18    8.45    5.14
   2  -2  18  440.83   20.55
   3  -2  18   22.68    6.43
   4  -2  18   42.97    8.29
   4  -2  18   44.45    9.32
   5  -2  18  593.27   25.59
   6  -2  18   37.97    8.65
   7  -2  18   11.81    7.28
   8  -2  18   17.19    8.12
   9  -2  18    4.11    7.76
 -13  -1  18   12.51    8.65
 -12  -1  18   39.75    9.90
 -11  -1  18   46.59    9.53
 -10  -1  18   57.66    9.31
 -10  -1  18   65.70    9.73
  -9  -1  18   -2.38    5.70
  -9  -1  18   -0.31    5.22
  -8  -1  18    8.59    5.33
  -7  -1  18   93.57    9.79
  -6  -1  18   57.64    7.98
  -5  -1  18  204.24   13.05
  -4  -1  18   -3.19    4.16
  -3  -1  18   15.40    5.50
  -2  -1  18  184.44   12.31
  -1  -1  18    3.01    4.28
   0  -1  18  578.55   23.86
   1  -1  18    5.87    5.34
   2  -1  18   40.77    7.87
   3  -1  18  156.88   12.66
   4  -1  18   63.72    9.48
   5  -1  18    3.58    6.24
   6  -1  18   67.61   10.68
   7  -1  18   -1.76    6.84
   8  -1  18   56.97   11.01
   9  -1  18  198.31   16.57
  10  -1  18   25.79   10.63
 -14   0  18   14.24   10.28
 -13   0  18    5.53    8.12
 -12   0  18   10.47    8.23
 -11   0  18   27.49    7.97
 -10   0  18   37.55    8.45
  -9   0  18   24.82    6.79
  -8   0  18   70.74    9.18
  -7   0  18  198.11   13.51
  -6   0  18    7.62    5.14
  -5   0  18   94.16    9.63
  -4   0  18  176.51   12.43
  -3   0  18   43.01    7.37
  -2   0  18  405.45   18.94
  -1   0  18    7.63    5.19
   0   0  18   18.00    6.07
   1   0  18   31.24    7.10
   2   0  18   22.42    7.28
   3   0  18    4.95    5.55
   4   0  18  513.18   23.77
   5   0  18    3.20    6.86
   6   0  18   40.50    9.67
   7   0  18  309.17   19.92
   8   0  18    6.25    8.24
   9   0  18   52.31   11.68
  10   0  18   54.55   13.94
 -14   1  18   47.03   12.06
 -13   1  18    6.86    8.22
 -12   1  18   40.67    9.91
 -11   1  18   -2.97    6.55
 -10   1  18    9.85    6.61
  -9   1  18  164.70   12.67
  -8   1  18   37.79    7.37
  -7   1  18  255.29   15.16
  -6   1  18  153.97   11.84
  -5   1  18   94.14    9.89
  -4   1  18  137.92   11.07
  -3   1  18   15.15    6.04
  -2   1  18   56.64    8.52
  -1   1  18   43.19    7.80
   0   1  18  114.29   10.63
   1   1  18    9.99    6.08
   2   1  18  415.71   20.49
   3   1  18   10.70    6.57
   4   1  18   60.28   10.09
   5   1  18  210.86   15.99
   6   1  18   41.49   10.07
   7   1  18    8.98    8.74
   8   1  18    3.01    9.04
   9   1  18   45.42   12.91
 -14   2  18   78.09   13.29
 -13   2  18    4.42    8.05
 -12   2  18   10.07    8.08
 -11   2  18  141.75   13.11
 -10   2  18  101.02   11.26
  -9   2  18  121.82   11.10
  -8   2  18    8.42    6.08
  -7   2  18   42.07    7.77
  -6   2  18  289.91   16.20
  -5   2  18   95.08    9.94
  -4   2  18   43.09    7.84
  -3   2  18  155.93   12.03
  -2   2  18   20.33    6.55
  -1   2  18    3.08    5.39
   0   2  18  453.06   21.59
   1   2  18   -4.37    5.10
   2   2  18   26.44    7.78
   3   2  18   91.34   11.74
   4   2  18    1.54    7.02
   5   2  18    1.41    7.99
   6   2  18   40.63   10.72
   7   2  18   46.32   11.31
 -14   3  18    5.45    9.80
 -13   3  18   35.79   10.16
 -12   3  18   47.30   10.06
 -11   3  18  170.62   13.78
 -10   3  18   11.16    6.70
  -8   3  18   34.68    7.53
  -7   3  18  144.05   11.80
  -6   3  18   14.09    6.62
  -5   3  18  647.41   26.46
  -4   3  18   60.99    9.06
  -3   3  18    0.58    5.06
  -2   3  18  398.39   19.98
  -1   3  18    2.94    5.51
   0   3  18   16.36    6.72
   1   3  18    2.54    6.11
   2   3  18    7.11    6.78
   3   3  18    8.70    7.66
   4   3  18  165.36   15.46
   5   3  18   80.63   12.88
   6   3  18    9.37    9.70
 -14   4  18   44.16   11.66
 -13   4  18   73.07   12.12
 -12   4  18   31.88    9.66
 -11   4  18   -1.65    7.06
 -10   4  18    6.34    6.96
  -8   4  18  256.07   15.95
  -7   4  18  375.29   19.30
  -6   4  18   39.22    8.30
  -5   4  18    2.34    5.68
  -4   4  18  475.81   22.54
  -3   4  18    7.74    5.81
  -2   4  18   31.27    7.92
  -1   4  18    4.53    5.92
   0   4  18    1.51    6.40
   1   4  18   11.42    6.97
   2   4  18  444.07   23.78
   3   4  18   21.94    9.06
   4   4  18   70.94   12.74
   5   4  18   60.04   12.73
 -14   5  18   10.17   10.19
 -13   5  18   28.26   10.21
 -12   5  18   31.70    9.59
 -11   5  18   36.91    9.57
  -7   5  18    3.68    6.26
  -6   5  18   65.72    9.66
  -5   5  18   15.53    6.99
  -4   5  18   66.35    9.77
  -3   5  18   91.10   11.23
  -2   5  18    5.76    6.30
  -1   5  18    8.87    6.85
   0   5  18  498.54   24.86
   1   5  18   -1.08    6.00
   2   5  18   -0.53    6.91
   3   5  18   55.64   11.42
   4   5  18  -16.92    7.84
 -13   6  18   23.28    9.64
 -12   6  18   55.71   11.29
 -11   6  18  190.28   15.66
  -7   6  18   -4.27    6.05
  -6   6  18   50.10    9.48
  -5   6  18  234.22   15.92
  -4   6  18   -4.26    6.36
  -3   6  18   -7.37    5.58
  -2   6  18  474.21   24.24
  -1   6  18    3.00    7.61
   0   6  18   46.35   10.52
   1   6  18    1.07    4.83
   2   6  18    0.38    4.72
 -13   7  18   98.90   14.25
 -12   7  18   12.61    8.98
  -6   7  18   21.39    8.20
  -5   7  18    4.81    6.74
  -4   7  18  172.60   14.97
  -3   7  18   17.66    8.32
  -2   7  18   53.57   10.62
  -1   7  18    4.91    6.75
   0   7  18    1.53    5.00
   1   7  18    2.16    5.46
 -12   8  18   69.68   12.89
  -6   8  18   52.85   10.30
  -5   8  18   87.21   12.40
  -4   8  18   86.18   12.33
  -3   8  18   62.33   11.50
  -2   8  18   40.72    9.46
  -1   8  18    0.82    5.49
  -5   9  18   68.82   12.23
  -4   9  18  -13.00    6.12
  -3   9  18   43.80   11.13
  -5  10  18   79.05   13.30
   7 -19  19    3.66   14.25
   3 -18  19   62.62   13.19
   7 -18  19   36.24   14.03
   8 -18  19   39.35   13.52
   9 -18  19   30.07   13.80
   1 -17  19   53.66   12.99
   2 -17  19   -2.92    7.74
   3 -17  19  117.03   14.54
   4 -17  19   26.95    9.33
   7 -17  19   19.42   11.71
   8 -17  19  137.88   18.99
   9 -17  19    2.60    9.19
  10 -17  19    1.87    9.90
   0 -16  19    1.18    8.60
   1 -16  19   81.67   13.33
   2 -16  19    8.92    7.97
   3 -16  19   78.35   12.14
   4 -16  19   64.66   11.14
   7 -16  19   17.04   10.31
   8 -16  19  106.68   16.86
   9 -16  19   29.12   10.10
  10 -16  19   63.80   13.87
  11 -16  19   25.23   11.07
  -2 -15  19   -0.83    8.90
  -1 -15  19  103.74   14.69
   0 -15  19    9.40    8.38
   1 -15  19  118.83   14.52
   2 -15  19    4.05    6.83
   3 -15  19   24.42    8.46
   4 -15  19   90.77   11.52
   5 -15  19   26.94    8.22
   7 -15  19   35.29   11.84
   8 -15  19    6.79    8.94
   9 -15  19   31.45   10.39
  10 -15  19  249.47   21.57
  11 -15  19   66.36   14.13
  -3 -14  19  104.39   15.21
  -2 -14  19    4.38    7.77
  -1 -14  19   69.36   12.23
   0 -14  19   10.37    7.82
   1 -14  19   24.37    8.18
   2 -14  19   -0.23    6.32
   3 -14  19   77.17   10.94
   4 -14  19   13.91    7.03
   5 -14  19   90.52   11.23
   7 -14  19   65.70   13.07
   8 -14  19  419.70   27.76
   9 -14  19  119.05   16.47
  10 -14  19   17.80    9.20
  11 -14  19    9.54    8.67
  12 -14  19   25.42   11.48
  -4 -13  19   32.68    9.81
  -3 -13  19   88.28   13.56
  -2 -13  19   -5.25    5.56
  -1 -13  19   27.06    8.99
   0 -13  19   -4.49    6.04
   1 -13  19   34.70    9.12
   2 -13  19   10.30    6.65
   3 -13  19  168.71   13.67
   4 -13  19    8.56    6.47
   5 -13  19   24.93    7.44
   6 -13  19  339.62   18.77
   7 -13  19  120.64   15.90
   8 -13  19   45.36   11.35
   9 -13  19    3.47    8.20
  10 -13  19   10.89    8.17
  11 -13  19    2.64    7.06
  12 -13  19   -9.48    6.25
  -5 -12  19    0.39    4.34
  -4 -12  19   -2.93    5.05
  -3 -12  19   17.21    7.82
  -2 -12  19   -3.22    5.50
  -1 -12  19   39.04    9.22
   0 -12  19    8.68    6.53
   1 -12  19  364.34   20.14
   2 -12  19   19.48    6.99
   3 -12  19    2.54    5.50
   4 -12  19  190.83   13.68
   5 -12  19   69.38    9.62
   6 -12  19   -3.10    5.68
   7 -12  19  123.02   16.09
   8 -12  19   28.30   10.48
   9 -12  19    3.22    9.02
  10 -12  19  322.17   24.62
  11 -12  19   -2.45    8.24
  12 -12  19    5.82    7.28
  -6 -11  19    1.56    4.42
  -5 -11  19   -5.18    4.79
  -4 -11  19  101.05   12.76
  -3 -11  19   56.87   10.25
  -2 -11  19   14.64    7.17
  -1 -11  19  335.11   19.54
   0 -11  19    0.32    5.15
   1 -11  19   19.95    6.95
   2 -11  19  235.61   15.49
   3 -11  19    1.00    4.98
   4 -11  19    8.93    5.86
   5 -11  19  256.31   15.65
   6 -11  19   19.24    6.72
   7 -11  19   63.25   13.67
   7 -11  19   51.32    8.72
   8 -11  19  254.40   21.54
   9 -11  19   65.49   14.30
  10 -11  19   64.80   14.05
  11 -11  19   12.84   10.27
  12 -11  19   -0.08    6.36
  -8 -10  19  -11.57    4.42
  -7 -10  19    9.34    4.77
  -6 -10  19   54.93    9.73
  -5 -10  19   13.36    7.00
  -4 -10  19   15.73    6.81
  -3 -10  19  146.65   13.12
  -2 -10  19   21.11    6.64
  -1 -10  19   20.33    6.33
   0 -10  19   -0.16    4.85
   1 -10  19   12.02    5.99
   2 -10  19    7.66    5.29
   3 -10  19  167.01   12.62
   4 -10  19    9.74    5.97
   5 -10  19   96.60   10.42
   6 -10  19  373.51   18.99
   7 -10  19   41.34    8.26
   7 -10  19   63.31   13.52
   8 -10  19   88.13   15.00
   9 -10  19   -6.47    8.74
  10 -10  19   32.82   11.24
  11 -10  19    8.19    9.87
  12 -10  19    1.40    6.95
  13 -10  19    5.47    8.40
  -9  -9  19   31.58   10.01
  -8  -9  19   19.99    6.24
  -7  -9  19   22.09    7.51
  -6  -9  19   51.58    9.48
  -5  -9  19   70.95   10.03
  -4  -9  19    7.25    5.43
  -3  -9  19    4.62    5.04
  -2  -9  19  230.95   15.05
  -1  -9  19   -0.80    4.53
   0  -9  19   14.98    6.12
   1  -9  19  844.00   31.57
   2  -9  19    0.43    4.79
   3  -9  19   13.79    6.08
   4  -9  19  231.12   14.58
   5  -9  19   13.94    6.16
   6  -9  19  126.63   11.35
   7  -9  19   92.15   14.16
   7  -9  19   85.85    9.96
   8  -9  19   70.18   13.83
   9  -9  19    6.31    9.02
  10  -9  19   22.66   11.03
  11  -9  19  105.30   16.50
  12  -9  19  129.36   18.05
  13  -9  19    8.32   11.19
  -9  -8  19    3.26    6.10
  -8  -8  19   89.01   11.76
  -7  -8  19   26.34    7.24
  -6  -8  19    9.35    6.31
  -5  -8  19   15.08    6.30
  -4  -8  19  207.89   14.50
  -3  -8  19    3.05    4.49
  -2  -8  19    9.04    4.98
  -1  -8  19  818.21   31.23
   0  -8  19    5.16    4.91
   1  -8  19   47.42    7.80
   2  -8  19  128.75   10.90
   3  -8  19   16.59    6.08
   4  -8  19   12.67    6.15
   5  -8  19  270.71   15.66
   6  -8  19   14.28    9.49
   6  -8  19   18.07    6.60
   7  -8  19   74.16    9.54
   7  -8  19   50.41   11.98
   8  -8  19   43.29   12.02
   8  -8  19   27.88    7.64
   9  -8  19  121.92   16.15
  10  -8  19  185.57   19.68
  11  -8  19   23.31   10.71
  12  -8  19   23.80   13.12
  13  -8  19   44.24   14.27
 -10  -7  19    6.35    6.42
  -9  -7  19   16.15    7.38
  -8  -7  19   -3.94    5.46
  -7  -7  19   54.80    9.62
  -6  -7  19  279.25   17.35
  -5  -7  19   71.45    9.73
  -4  -7  19   11.74    5.64
  -3  -7  19  165.00   12.54
  -2  -7  19    5.56    5.08
  -1  -7  19   65.65    8.65
   0  -7  19   -1.22    4.39
   1  -7  19    4.17    4.65
   2  -7  19    0.71    4.78
   3  -7  19  384.94   18.96
   4  -7  19  112.62   10.37
   5  -7  19  410.90   19.76
   6  -7  19  329.41   17.70
   6  -7  19  360.99   23.35
   7  -7  19   64.53    9.31
   7  -7  19   62.91   12.61
   8  -7  19  206.13   14.20
   8  -7  19  220.27   18.84
   9  -7  19    2.27    9.09
  10  -7  19   -0.80    9.14
  11  -7  19   40.35   12.82
  12  -7  19   16.81   10.06
  13  -7  19   32.11   13.81
 -11  -6  19   31.29    9.18
 -10  -6  19   42.56    9.01
  -9  -6  19   26.16    7.96
  -8  -6  19  342.93   19.61
  -7  -6  19   88.12   10.73
  -6  -6  19    5.47    5.13
  -5  -6  19  227.21   14.78
  -4  -6  19    6.17    4.72
  -3  -6  19    9.94    4.66
  -2  -6  19  109.75    9.79
  -1  -6  19   11.06    5.22
   0  -6  19    6.41    4.81
   1  -6  19  450.85   20.61
   2  -6  19   86.75    9.50
   3  -6  19  426.33   19.99
   4  -6  19   71.55    9.18
   5  -6  19   60.04    8.92
   6  -6  19  664.74   32.60
   6  -6  19  624.63   26.51
   7  -6  19   33.84    7.87
   7  -6  19   48.34   11.18
   8  -6  19   90.27   14.11
   8  -6  19   67.39   10.01
   9  -6  19    3.74    8.80
  10  -6  19    4.28    9.91
  11  -6  19   54.03   13.43
  12  -6  19   65.30   14.71
 -11  -5  19   36.51    8.85
 -10  -5  19  188.38   14.85
  -9  -5  19   75.00   10.58
  -8  -5  19   27.77    7.48
  -7  -5  19   80.80   10.21
  -6  -5  19   11.45    5.65
  -5  -5  19   97.09   10.12
  -4  -5  19  202.84   13.42
  -3  -5  19   13.31    5.40
  -2  -5  19    3.28    4.74
  -1  -5  19  430.53   19.98
   0  -5  19    8.28    4.79
   1  -5  19  492.26   21.70
   2  -5  19   -1.46    4.58
   3  -5  19    7.73    5.56
   4  -5  19  252.42   15.15
   5  -5  19  119.01   14.43
   5  -5  19   96.80   10.70
   6  -5  19   66.59    9.55
   6  -5  19   51.93   11.66
   7  -5  19   32.99   10.32
   7  -5  19   19.72    7.34
   8  -5  19   -7.77    8.31
   8  -5  19    1.92    6.32
   9  -5  19   80.01   11.65
   9  -5  19   79.89   14.36
  10  -5  19  178.17   18.51
 -10  -4  19    5.69    6.28
  -9  -4  19   13.23    6.44
  -8  -4  19   22.32    6.55
  -7  -4  19   36.50    7.52
  -6  -4  19  316.90   17.20
  -5  -4  19   19.15    5.99
  -4  -4  19    3.28    4.75
  -3  -4  19  342.08   17.49
  -2  -4  19   80.67    9.21
  -1  -4  19  462.13   20.73
   0  -4  19    4.27    4.37
   1  -4  19   31.63    7.08
   2  -4  19   68.26    8.83
   3  -4  19    2.37    5.24
   4  -4  19   25.06    7.00
   5  -4  19  263.56   15.82
   5  -4  19  257.31   18.71
   6  -4  19   22.18    7.53
   6  -4  19   14.53    9.19
   7  -4  19   63.44   11.80
   7  -4  19   48.72    9.07
   8  -4  19  457.85   23.05
   8  -4  19  469.31   27.33
   9  -4  19   20.85    8.67
 -10  -3  19    2.60    5.51
  -9  -3  19   20.05    6.95
  -8  -3  19  219.41   14.68
  -7  -3  19   48.81    8.30
  -6  -3  19  103.21   10.66
  -5  -3  19  276.15   15.89
  -4  -3  19  106.54   10.31
  -3  -3  19  427.26   19.97
  -2  -3  19    0.16    4.23
  -1  -3  19   26.12    6.53
   0  -3  19    2.08    4.91
   1  -3  19   66.36    8.98
   2  -3  19   10.16    5.86
   3  -3  19  196.13   13.62
   4  -3  19    0.45    7.48
   4  -3  19    5.94    5.87
   5  -3  19    6.02    6.15
   5  -3  19    6.50    7.96
   6  -3  19  253.66   18.66
   6  -3  19  241.90   15.88
   7  -3  19   63.77   10.48
   8  -3  19    8.24    7.72
   9  -3  19   21.93    9.16
 -13  -2  19   74.60   13.18
 -10  -2  19  241.53   15.90
  -9  -2  19   64.29    9.40
  -8  -2  19   79.23   10.03
  -7  -2  19   58.94    8.71
  -6  -2  19   20.35    6.21
  -5  -2  19  348.50   17.88
  -4  -2  19   81.38    9.47
  -3  -2  19    4.57    4.83
  -2  -2  19   54.32    8.01
  -1  -2  19   49.70    8.05
   0  -2  19   14.84    5.80
   1  -2  19  904.60   33.04
   2  -2  19    1.83    5.79
   3  -2  19   10.62    6.21
   4  -2  19  520.51   23.96
   5  -2  19   -2.39    5.91
   6  -2  19   -4.19    5.98
   7  -2  19    3.79    7.25
   8  -2  19   87.24   12.48
   9  -2  19    0.36    8.19
 -13  -1  19    1.88    7.91
  -9  -1  19    6.23    6.29
  -8  -1  19   63.80    9.39
  -7  -1  19   70.35    9.22
  -6  -1  19  330.06   17.64
  -5  -1  19   71.67    9.32
  -4  -1  19  278.41   15.72
  -3  -1  19   12.18    5.51
  -2  -1  19    8.82    5.66
  -1  -1  19  873.27   32.03
   0  -1  19    6.93    5.65
   1  -1  19    2.99    5.34
   2  -1  19  108.49   11.00
   3  -1  19    6.41    5.94
   4  -1  19    9.50    6.58
   5  -1  19   31.65    8.08
   6  -1  19   48.02   10.06
   7  -1  19    2.92    8.18
   8  -1  19   29.42    9.56
   9  -1  19    9.09    9.14
  10  -1  19   30.56   12.81
 -13   0  19   38.43   10.77
  -9   0  19    8.13    5.98
  -8   0  19   29.52    7.44
  -7   0  19   67.36    8.98
  -6   0  19  551.49   23.86
  -5   0  19  105.00   10.58
  -4   0  19   27.18    6.97
  -3   0  19  200.74   13.52
  -2   0  19    6.05    5.27
  -1   0  19    4.27    5.42
   0   0  19    9.93    5.53
   1   0  19   32.46    7.36
   2   0  19    8.67    6.30
   3   0  19  133.09   12.20
   4   0  19  124.00   12.95
   5   0  19    1.25    6.71
   6   0  19   44.11   10.80
   7   0  19   -5.36    7.86
   8   0  19   51.41   11.14
   9   0  19   27.89   11.41
 -13   1  19   12.42    9.32
  -9   1  19  113.43   11.26
  -8   1  19  196.08   13.99
  -7   1  19   27.01    6.94
  -6   1  19   60.71    8.93
  -5   1  19  234.42   14.72
  -4   1  19    4.61    5.38
  -3   1  19   14.02    6.05
  -2   1  19  129.71   11.54
  -1   1  19   32.59    7.56
   0   1  19    9.46    6.32
   1   1  19  292.54   17.48
   2   1  19   49.99    9.21
   3   1  19   57.93    9.91
   4   1  19   72.28   11.05
   5   1  19   16.23    8.15
   6   1  19    2.22    8.23
   7   1  19    4.27    8.53
   8   1  19  115.14   15.46
 -14   2  19   70.00   14.23
 -13   2  19    7.47    9.21
  -8   2  19   50.12    8.87
  -7   2  19   29.91    7.31
  -6   2  19   11.13    5.90
  -5   2  19    0.04    5.28
  -4   2  19  506.61   23.24
  -3   2  19   -1.46    5.10
  -2   2  19    9.04    5.80
  -1   2  19  295.53   17.59
   0   2  19   -5.47    5.44
   1   2  19   27.66    7.61
   2   2  19    9.35    7.00
   3   2  19   38.15    9.45
   4   2  19   38.18    9.88
   5   2  19    5.65    8.98
   6   2  19   86.58   13.97
 -13   3  19   66.81   12.01
  -8   3  19   15.70    6.51
  -7   3  19   54.84    9.23
  -6   3  19  236.59   15.46
  -5   3  19    3.72    5.82
  -4   3  19    4.45    5.56
  -3   3  19  124.84   12.27
  -2   3  19   57.95    9.55
  -1   3  19   36.60    8.29
   0   3  19   -6.42    4.97
   1   3  19   71.43   11.01
   2   3  19    8.22    7.79
   3   3  19    0.03    7.81
   4   3  19   67.16   12.19
   5   3  19   15.78    9.69
  -8   4  19  415.81   21.07
  -7   4  19   89.22   10.80
  -6   4  19    0.27    5.83
  -5   4  19   21.00    7.20
  -4   4  19  110.40   11.85
  -3   4  19   71.82   10.20
  -2   4  19   10.01    6.59
  -1   4  19   78.83   10.92
   0   4  19    7.45    6.72
   1   4  19   30.67    8.95
   2   4  19    9.48    7.82
   3   4  19   35.05   10.53
   4   4  19   -4.91    9.79
  -7   5  19    7.43    6.66
  -6   5  19   40.78    8.74
  -5   5  19    3.86    6.52
  -4   5  19   54.26    9.39
  -3   5  19   47.53    9.39
  -2   5  19   -5.72    6.34
  -1   5  19   52.23   10.48
   0   5  19    5.00    6.81
   1   5  19    2.85    5.47
   2   5  19    0.15    5.18
   3   5  19   60.11   13.26
  -7   6  19    3.01    7.02
  -6   6  19   32.85    8.33
  -5   6  19   23.62    7.98
  -4   6  19   52.90   10.60
  -3   6  19   13.98    7.06
  -2   6  19   44.07    9.95
  -1   6  19   57.83   11.06
   0   6  19   -1.71    4.51
   1   6  19   -5.44    4.57
  -6   7  19    7.05    7.42
  -5   7  19    1.04    7.03
  -4   7  19   64.32   11.14
  -3   7  19   14.25    8.31
  -2   7  19    2.28    5.64
  -1   7  19   -3.30    5.04
  -6   8  19   80.37   11.61
  -5   8  19   31.62   10.18
  -4   8  19   -1.66    7.30
  -3   8  19   56.14   12.34
  -2   8  19    8.55    8.76
  -5   9  19   35.01   11.09
  -4   9  19  101.23   14.58
   3 -18  20   30.29   11.14
   7 -18  20   27.69   14.53
   2 -17  20   43.06   11.34
   3 -17  20    1.03    7.89
   4 -17  20   88.51   12.68
   7 -17  20  273.37   24.99
   8 -17  20  126.63   18.79
   9 -17  20    4.17   11.00
   0 -16  20   32.59   11.17
   1 -16  20    5.84    8.25
   2 -16  20  181.22   17.20
   3 -16  20    2.91    7.46
   4 -16  20   12.10    8.08
   7 -16  20    1.87   10.08
   8 -16  20   10.20    9.17
   9 -16  20   -2.37    8.67
  10 -16  20   11.71   11.20
  -1 -15  20   11.93    8.91
   0 -15  20  285.32   20.76
   1 -15  20    7.72    7.55
   2 -15  20    7.97    6.89
   3 -15  20  121.91   13.69
   4 -15  20   12.43    8.17
   5 -15  20   20.77    8.11
   7 -15  20   94.92   15.54
   8 -15  20    4.79    9.05
   9 -15  20  280.76   23.24
  10 -15  20  111.69   17.34
  -3 -14  20    6.59    9.12
  -2 -14  20  213.82   18.57
  -1 -14  20    2.28    7.40
   0 -14  20   25.70    8.85
   1 -14  20   21.24    8.24
   2 -14  20    8.18    7.17
   3 -14  20   -0.24    6.54
   4 -14  20  346.56   20.40
   5 -14  20   51.85    9.62
   7 -14  20  327.59   24.76
   8 -14  20   45.67   11.41
   9 -14  20    3.19    8.02
  10 -14  20   -3.78    7.75
  11 -14  20   15.96    9.73
  -4 -13  20   96.07   14.56
  -3 -13  20    7.83    8.11
  -2 -13  20    9.11    7.66
  -1 -13  20    2.50    6.32
   0 -13  20   10.28    7.32
   1 -13  20    1.00    5.83
   2 -13  20  397.41   21.80
   3 -13  20    2.80    6.28
   4 -13  20   57.52    9.30
   5 -13  20  110.02   11.67
   6 -13  20   32.29    8.18
   7 -13  20   84.00   14.77
   8 -13  20   21.22    9.66
   9 -13  20  135.07   17.40
  10 -13  20   -6.15    6.93
  11 -13  20   10.84    7.90
  -5 -12  20    2.42    4.62
  -4 -12  20    4.68    4.13
  -3 -12  20  115.01   13.75
  -2 -12  20    6.33    6.69
  -1 -12  20    6.56    6.23
   0 -12  20  552.10   26.46
   1 -12  20    5.92    6.33
   2 -12  20   10.45    7.05
   3 -12  20  227.77   15.53
   4 -12  20   33.51    8.07
   5 -12  20    9.08    6.21
   6 -12  20   70.24   10.08
   7 -12  20   83.85   15.34
   8 -12  20    2.28    8.92
   9 -12  20   42.31   13.15
  10 -12  20   11.56    9.88
  11 -12  20    5.26    6.82
  12 -12  20    4.75    7.08
  -6 -11  20   -8.17    4.24
  -5 -11  20   -3.52    3.65
  -4 -11  20   18.37    7.44
  -3 -11  20    2.67    5.98
  -2 -11  20  414.99   22.68
  -1 -11  20   -1.37    5.46
   0 -11  20    7.52    6.34
   1 -11  20   88.23   11.15
   2 -11  20   35.75    8.28
   3 -11  20  104.87   11.26
   4 -11  20  130.95   12.19
   5 -11  20  146.72   12.56
   6 -11  20   30.06    8.10
   7 -11  20  104.07   16.70
   7 -11  20   85.94   10.51
   8 -11  20   23.69   11.65
   9 -11  20   69.36   14.94
  10 -11  20   19.65   11.38
  11 -11  20  -10.27    6.21
  12 -11  20   -6.56    7.02
  -7 -10  20    4.21    4.45
  -6 -10  20   -3.73    4.38
  -5 -10  20   18.15    6.87
  -4 -10  20  304.81   19.07
  -3 -10  20    4.74    5.64
  -2 -10  20   13.28    6.89
  -1 -10  20   88.96   10.77
   0 -10  20  154.68   12.88
   1 -10  20   45.73    8.38
   2 -10  20  291.71   16.99
   3 -10  20    8.36    5.83
   4 -10  20  199.53   14.06
   5 -10  20  154.95   12.69
   6 -10  20    6.37    6.35
   7 -10  20  270.01   22.10
   7 -10  20  294.12   17.07
   8 -10  20   22.64   11.38
   9 -10  20   68.34   13.93
  10 -10  20    1.46    9.58
  11 -10  20   -9.24    7.81
  12 -10  20    5.38    7.64
  -8  -9  20    9.11    5.26
  -7  -9  20   -0.01    4.66
  -6  -9  20  111.88   12.63
  -5  -9  20   58.63    9.82
  -4  -9  20   55.52    9.36
  -3  -9  20  230.17   15.81
  -2  -9  20   26.78    7.22
  -1  -9  20   60.90    9.27
   0  -9  20  449.13   21.55
   1  -9  20    5.00    5.31
   2  -9  20  112.32   11.11
   3  -9  20    6.16    5.38
   4  -9  20    8.61    5.78
   5  -9  20  311.68   17.59
   6  -9  20    7.15    6.40
   7  -9  20   42.93    8.75
   7  -9  20   45.64   12.54
   8  -9  20   11.93    9.86
   9  -9  20   18.19   11.00
  10  -9  20   55.50   13.67
  11  -9  20   -2.53    9.34
  12  -9  20   29.44   13.40
  -9  -8  20    3.43    7.59
  -8  -8  20    7.90    5.86
  -7  -8  20   70.56   10.70
  -6  -8  20   69.88   10.25
  -5  -8  20   88.15   10.94
  -4  -8  20   22.73    7.11
  -3  -8  20   89.35   10.57
  -2  -8  20  260.47   16.21
  -1  -8  20   -0.18    5.18
   0  -8  20  274.72   16.14
   1  -8  20    5.15    5.36
   2  -8  20  154.29   12.36
   3  -8  20    0.68    5.37
   4  -8  20    1.19    5.40
   5  -8  20   42.32    8.30
   6  -8  20   20.66   10.33
   6  -8  20   16.09    7.21
   7  -8  20    1.22    9.00
   7  -8  20    2.37    6.34
   8  -8  20    3.99    9.50
   8  -8  20   19.41    7.31
   9  -8  20   33.12   11.66
  10  -8  20   12.98   10.91
  11  -8  20   45.70   12.99
  12  -8  20   48.42   14.84
 -10  -7  20   31.17    9.30
  -9  -7  20    5.33    7.27
  -8  -7  20    2.68    5.21
  -7  -7  20  233.03   16.36
  -6  -7  20   16.44    6.59
  -5  -7  20    1.14    5.26
  -4  -7  20   98.95   10.95
  -3  -7  20   10.39    5.38
  -2  -7  20  115.92   10.79
  -1  -7  20   14.00    6.00
   0  -7  20  107.35   10.89
   1  -7  20   28.34    7.43
   2  -7  20    2.21    5.26
   3  -7  20   29.35    7.38
   4  -7  20   49.41    8.65
   5  -7  20   16.29    6.61
   6  -7  20    2.86    8.20
   6  -7  20   15.56    6.53
   7  -7  20  322.34   17.90
   7  -7  20  297.45   22.52
   8  -7  20    6.55    6.72
   8  -7  20    7.24    9.28
   9  -7  20   22.42   10.60
  10  -7  20   28.15   10.93
  11  -7  20   51.41   14.11
  12  -7  20   14.53   11.79
 -11  -6  20    1.44    7.60
 -10  -6  20   16.28    7.06
  -9  -6  20  207.14   15.61
  -8  -6  20   37.49    8.73
  -7  -6  20   37.99    8.54
  -6  -6  20   66.29    9.79
  -5  -6  20   98.44   10.75
  -4  -6  20  148.44   11.96
  -3  -6  20    7.88    5.06
  -2  -6  20  106.07   10.77
  -1  -6  20   37.22    7.50
   0  -6  20   -2.61    4.61
   1  -6  20   -1.76    4.92
   2  -6  20  140.62   11.63
   3  -6  20    6.77    5.64
   4  -6  20    6.70    5.65
   5  -6  20   81.34   10.12
   6  -6  20    5.96    6.40
   6  -6  20   15.08    8.89
   7  -6  20   33.66   11.59
   7  -6  20   16.02    7.48
   8  -6  20   42.54    9.21
   8  -6  20   33.66   11.44
   9  -6  20  169.31   19.03
  10  -6  20    7.07   10.11
  11  -6  20   26.16   11.22
 -10  -5  20  101.47   12.54
  -9  -5  20    4.03    5.92
  -8  -5  20   11.19    6.47
  -7  -5  20   81.16   10.30
  -6  -5  20   16.98    6.14
  -5  -5  20  120.94   11.09
  -4  -5  20    8.92    5.45
  -3  -5  20   -0.90    4.34
  -2  -5  20    4.20    4.65
  -1  -5  20   -0.10    4.98
   0  -5  20  343.16   18.06
   1  -5  20    1.65    5.15
   2  -5  20   64.22    9.22
   3  -5  20   82.64   10.03
   4  -5  20   13.40    6.44
   5  -5  20   17.17    9.65
   5  -5  20   17.95    7.18
   6  -5  20   -2.45    5.78
   6  -5  20   11.45    8.88
   7  -5  20  316.37   18.59
   7  -5  20  320.20   22.71
   8  -5  20    8.22    7.16
   8  -5  20    7.39    9.92
   9  -5  20   62.92   13.74
   9  -5  20   38.03    9.95
 -10  -4  20   -0.61    5.99
  -9  -4  20   90.17   10.93
  -8  -4  20    2.81    5.35
  -7  -4  20   84.62   10.28
  -6  -4  20    4.83    4.98
  -5  -4  20  263.09   15.81
  -4  -4  20    2.62    4.62
  -3  -4  20   25.58    6.96
  -2  -4  20  152.15   11.68
  -1  -4  20    4.07    4.99
   0  -4  20   26.99    7.08
   1  -4  20   20.19    6.53
   2  -4  20  247.70   15.45
   3  -4  20   65.90    9.40
   4  -4  20    7.66    6.49
   5  -4  20  184.69   16.98
   5  -4  20  191.30   14.11
   6  -4  20   50.37   11.45
   6  -4  20   35.46    8.78
   7  -4  20   17.36    7.79
   7  -4  20   16.02    9.47
   8  -4  20    2.82    7.33
   9  -4  20   16.05    8.87
 -10  -3  20    5.62    6.15
  -9  -3  20   36.43    8.18
  -8  -3  20   11.62    6.32
  -7  -3  20  231.67   15.16
  -6  -3  20    3.32    5.03
  -5  -3  20   47.14    8.24
  -4  -3  20   38.06    7.57
  -3  -3  20    1.49    5.07
  -2  -3  20   73.55    9.44
  -1  -3  20   21.66    6.48
   0  -3  20   53.72    8.62
   1  -3  20    7.33    5.98
   2  -3  20  190.31   13.88
   3  -3  20   63.42    9.60
   4  -3  20   -3.30    7.34
   4  -3  20    0.86    5.93
   5  -3  20    2.40    6.44
   6  -3  20   69.15   10.54
   7  -3  20    7.09    7.70
   8  -3  20   31.58    9.34
   9  -3  20  106.23   13.74
 -10  -2  20   86.97   11.00
  -9  -2  20   70.69   10.04
  -8  -2  20    4.80    6.54
  -7  -2  20   30.53    7.58
  -6  -2  20   26.19    6.74
  -5  -2  20   15.02    6.01
  -4  -2  20    2.36    5.10
  -3  -2  20   96.94   10.15
  -2  -2  20  220.15   14.37
  -1  -2  20   10.21    5.65
   0  -2  20  198.24   13.50
   1  -2  20    7.73    5.92
   2  -2  20   14.98    6.71
   3  -2  20   50.32    8.95
   4  -2  20   96.57   11.47
   5  -2  20    5.30    6.55
   6  -2  20    4.94    7.43
   7  -2  20  258.44   17.98
   8  -2  20    4.49    8.81
   9  -2  20    4.27    9.45
  -9  -1  20   48.85    9.16
  -8  -1  20    0.07    5.07
  -7  -1  20   -0.68    5.46
  -6  -1  20    4.85    5.48
  -5  -1  20   72.13    9.43
  -4  -1  20   19.50    6.61
  -3  -1  20   51.44    8.54
  -2  -1  20  185.08   13.29
  -1  -1  20    7.60    5.56
   0  -1  20  106.09   11.29
   1  -1  20   34.25    7.53
   2  -1  20  237.35   15.66
   3  -1  20   14.24    6.97
   4  -1  20   -6.92    5.68
   5  -1  20  211.04   15.84
   6  -1  20    4.34    7.78
   7  -1  20   16.02    9.57
   8  -1  20   11.47    9.31
   9  -1  20   26.25   11.22
  -9   0  20   37.47    8.31
  -8   0  20    5.25    5.89
  -7   0  20  278.49   16.74
  -6   0  20    8.91    5.62
  -5   0  20   36.77    7.85
  -4   0  20   20.81    6.50
  -3   0  20   44.83    8.06
  -2   0  20   16.78    6.61
  -1   0  20   49.14    8.99
   0   0  20  656.03   27.51
   1   0  20   10.11    6.90
   2   0  20   15.82    6.90
   3   0  20  138.66   12.91
   4   0  20    3.11    6.99
   5   0  20   -2.38    7.14
   6   0  20   85.47   12.93
   7   0  20   26.30   10.57
   8   0  20   10.52   10.35
  -9   1  20   30.17    7.92
  -8   1  20    2.00    5.19
  -7   1  20   22.20    7.28
  -6   1  20    1.34    5.18
  -5   1  20  149.86   12.15
  -4   1  20   -2.07    5.25
  -3   1  20   42.82    8.61
  -2   1  20  247.53   15.77
  -1   1  20   -1.78    5.63
   0   1  20    2.32    6.32
   1   1  20   65.19   10.10
   2   1  20   15.82    7.33
   3   1  20    4.78    6.99
   4   1  20  269.52   18.53
   5   1  20   38.40   10.18
   6   1  20   77.00   13.23
   7   1  20   58.91   13.51
  -8   2  20   49.19    8.95
  -7   2  20  293.57   17.03
  -6   2  20   35.05    8.06
  -5   2  20   10.01    6.76
  -4   2  20   90.62   10.87
  -3   2  20   13.19    6.51
  -2   2  20   14.75    6.84
  -1   2  20   58.27    9.97
   0   2  20   18.25    7.29
   1   2  20   -1.08    5.63
   2   2  20  313.94   19.70
   3   2  20   50.23   10.63
   4   2  20  192.44   16.65
   5   2  20  117.65   15.33
  -8   3  20   18.39    7.17
  -7   3  20    8.14    7.26
  -6   3  20   79.99   10.64
  -5   3  20   10.71    6.76
  -4   3  20   -1.71    5.20
  -3   3  20  130.85   12.86
  -2   3  20   15.85    6.79
  -1   3  20    5.15    6.48
   0   3  20  193.99   15.12
   1   3  20   13.98    7.49
   2   3  20   89.77   13.04
   3   3  20   65.57   12.58
   4   3  20   -0.68    8.67
  -8   4  20   -4.70    6.04
  -7   4  20    6.83    7.07
  -6   4  20    5.68    5.98
  -5   4  20  192.73   15.09
  -4   4  20    3.92    6.33
  -3   4  20    8.66    6.50
  -2   4  20  256.80   17.02
  -1   4  20   11.11    7.22
   0   4  20  160.34   14.36
   1   4  20   -4.66    5.28
   2   4  20   -6.57    4.60
   3   4  20   52.59   12.10
  -7   5  20  272.41   17.69
  -6   5  20   14.55    7.71
  -5   5  20   -0.31    6.21
  -4   5  20  208.38   15.60
  -3   5  20   61.74   10.18
  -2   5  20  119.32   13.68
  -1   5  20   19.56    7.91
   0   5  20   -3.06    4.55
   1   5  20    4.48    4.94
  -7   6  20   27.31    8.24
  -6   6  20   77.50   11.42
  -5   6  20   41.09    9.56
  -4   6  20  200.80   16.13
  -3   6  20   86.35   12.33
  -2   6  20   27.81    7.07
  -1   6  20    1.62    4.92
   0   6  20   -0.51    5.05
  -6   7  20   68.33   11.49
  -5   7  20  130.47   14.25
  -4   7  20   -5.03    6.46
  -3   7  20   38.83   10.59
  -2   7  20    2.62    6.10
  -6   8  20    4.80    7.32
  -5   8  20   87.89   13.50
  -4   8  20   68.90   13.13
   2 -17  21    7.87    9.79
   3 -17  21   47.63   11.10
   4 -17  21   -1.07    7.98
   7 -17  21   33.20   15.13
   1 -16  21   56.67   12.25
   2 -16  21   13.50    8.72
   3 -16  21   -9.70    7.24
   4 -16  21  143.10   14.88
   7 -16  21   15.23   10.33
   8 -16  21  165.70   20.78
   9 -16  21   -3.33   10.00
  -1 -15  21   71.15   13.57
   0 -15  21    2.68    7.10
   1 -15  21   28.21    9.89
   2 -15  21   23.75    9.19
   3 -15  21   -3.56    6.48
   4 -15  21   10.05    7.58
   5 -15  21    5.85    7.18
   7 -15  21    1.40    9.56
   8 -15  21    9.45    9.22
   9 -15  21   38.12   12.32
  10 -15  21    5.47   10.67
  -2 -14  21    5.83    8.92
  -1 -14  21   13.65    8.84
   0 -14  21   -0.94    6.40
   1 -14  21  190.90   16.40
   2 -14  21    7.02    7.45
   3 -14  21  115.16   13.24
   4 -14  21  123.49   13.14
   5 -14  21    1.09    6.81
   7 -14  21    1.94    8.16
   8 -14  21   27.82   10.66
   9 -14  21   13.07    9.60
  10 -14  21   79.01   14.94
  -3 -13  21   -3.58    7.25
  -2 -13  21   23.89    8.96
  -1 -13  21  212.12   17.40
   0 -13  21    2.57    6.30
   1 -13  21   63.00   10.75
   2 -13  21   61.87   10.80
   3 -13  21   32.38    8.72
   4 -13  21    3.52    7.11
   5 -13  21   97.45   11.95
   6 -13  21   58.26    9.96
   7 -13  21   21.27    9.86
   8 -13  21  334.21   25.13
   9 -13  21   -4.18    7.22
  10 -13  21    4.87    6.93
  11 -13  21    3.91    7.17
  -4 -12  21    2.86    4.23
  -3 -12  21    9.16    7.68
  -2 -12  21    6.40    6.77
  -1 -12  21   48.21    9.77
   0 -12  21   -2.60    6.64
   1 -12  21   84.82   11.49
   2 -12  21    9.03    6.69
   3 -12  21  421.57   22.06
   4 -12  21   57.67   10.12
   5 -12  21    1.46    6.87
   6 -12  21  368.55   20.11
   7 -12  21   17.32   10.32
   8 -12  21   51.27   14.03
   9 -12  21    4.75    9.95
  10 -12  21   -5.41    6.22
  11 -12  21   -2.07    7.35
  -5 -11  21    1.69    3.88
  -4 -11  21   -5.38    4.35
  -3 -11  21  117.17   13.36
  -2 -11  21   74.61   11.04
  -1 -11  21   61.76   10.53
   0 -11  21    4.78    5.96
   1 -11  21  262.56   17.03
   2 -11  21   84.41   10.87
   3 -11  21   18.29    7.14
   4 -11  21  168.01   13.67
   5 -11  21    5.26    6.34
   6 -11  21   70.64   10.35
   7 -11  21   11.73    7.56
   7 -11  21    4.74   11.24
   8 -11  21   70.74   15.21
   9 -11  21    6.10   10.92
  10 -11  21   -5.49    8.01
  11 -11  21   -5.74    7.11
  -7 -10  21   -2.58    4.23
  -6 -10  21   -1.10    4.10
  -5 -10  21    1.38    5.02
  -4 -10  21   96.55   11.95
  -3 -10  21   21.99    7.67
  -2 -10  21    1.65    5.93
  -1 -10  21  271.05   17.25
   0 -10  21   -0.91    5.22
   1 -10  21    5.96    6.15
   2 -10  21   12.63    6.49
   3 -10  21   53.78    9.29
   4 -10  21   79.03   10.35
   5 -10  21   45.76    9.18
   6 -10  21  101.79   11.41
   7 -10  21   47.91    9.21
   7 -10  21   28.46   11.87
   8 -10  21   65.14   14.22
   9 -10  21   96.93   16.31
  10 -10  21   70.51   14.82
  11 -10  21   -3.68    7.47
  -8  -9  21   -1.95    5.14
  -7  -9  21   -4.13    3.79
  -6  -9  21   29.51    7.65
  -5  -9  21   13.10    6.19
  -4  -9  21    2.13    5.66
  -3  -9  21  406.79   21.62
  -2  -9  21   95.55   11.26
  -1  -9  21    6.91    6.00
   0  -9  21    3.58    5.61
   1  -9  21  211.05   14.86
   2  -9  21   23.14    7.31
   3  -9  21  214.45   14.86
   4  -9  21   21.49    7.14
   5  -9  21   26.01    7.81
   6  -9  21   52.87    9.61
   7  -9  21   22.97    7.83
   7  -9  21   31.75   11.51
   8  -9  21  234.63   21.27
   9  -9  21   26.02   11.53
  10  -9  21    8.00   11.21
  11  -9  21   20.69   12.15
  -9  -8  21   10.54    7.78
  -8  -8  21  119.11   13.59
  -7  -8  21    0.52    5.23
  -6  -8  21   23.09    7.15
  -5  -8  21   69.45   10.15
  -4  -8  21   40.77    8.31
  -3  -8  21   28.88    7.78
  -2  -8  21    5.18    5.44
  -1  -8  21  185.50   13.67
   0  -8  21   15.95    6.60
   1  -8  21  369.61   19.40
   2  -8  21   63.56    9.63
   3  -8  21  320.60   18.22
   4  -8  21   18.65    7.32
   5  -8  21    6.98    6.66
   6  -8  21  198.42   19.14
   6  -8  21  203.73   14.74
   7  -8  21   37.87    9.16
   7  -8  21   58.70   13.84
   8  -8  21   11.07   10.52
   8  -8  21    8.41    7.73
   9  -8  21   11.31    9.80
  10  -8  21   13.46   11.01
  11  -8  21   26.28   12.04
  -9  -7  21    5.64    7.14
  -8  -7  21   -3.20    5.27
  -7  -7  21   -0.47    5.54
  -6  -7  21   45.33    9.20
  -5  -7  21    3.98    5.53
  -4  -7  21  146.87   12.55
  -3  -7  21   35.74    7.74
  -2  -7  21   29.31    7.45
  -1  -7  21  386.42   19.90
   0  -7  21    4.17    5.66
   1  -7  21  424.65   20.87
   2  -7  21    1.45    5.73
   3  -7  21    4.68    6.08
   4  -7  21   90.88   10.76
   5  -7  21   64.06    9.72
   6  -7  21   25.43    8.12
   6  -7  21   10.15   10.39
   7  -7  21  109.72   16.02
   7  -7  21  106.09   11.99
   8  -7  21    3.72    7.67
   8  -7  21   18.68   10.14
   9  -7  21   13.21   10.88
  10  -7  21  152.71   19.08
  11  -7  21   33.13   12.48
 -10  -6  21    3.26    7.24
  -9  -6  21   14.88    7.28
  -8  -6  21   11.56    6.66
  -7  -6  21    6.30    5.98
  -6  -6  21  322.95   18.60
  -5  -6  21    0.03    4.97
  -4  -6  21   77.98    9.99
  -3  -6  21  170.32   13.19
  -2  -6  21   65.10    9.32
  -1  -6  21  364.29   19.16
   0  -6  21   -1.93    5.27
   1  -6  21    4.53    6.01
   2  -6  21    6.51    6.04
   3  -6  21  106.58   11.50
   4  -6  21   48.17    8.80
   5  -6  21  167.85   16.78
   5  -6  21  162.73   13.25
   6  -6  21    8.52    6.72
   6  -6  21    6.13    8.95
   7  -6  21  112.70   16.29
   7  -6  21   97.20   12.00
   8  -6  21  295.43   18.72
   8  -6  21  312.84   23.11
   9  -6  21   17.72   10.49
  10  -6  21   17.88   10.83
 -10  -5  21    2.13    5.87
  -9  -5  21   -8.94    5.37
  -8  -5  21  283.65   17.66
  -7  -5  21   14.57    6.53
  -6  -5  21   49.75    8.75
  -5  -5  21   26.71    7.13
  -4  -5  21   20.45    6.62
  -3  -5  21  284.59   16.82
  -2  -5  21   -1.69    4.99
  -1  -5  21   11.66    6.24
   0  -5  21    7.19    5.52
   1  -5  21  133.86   11.96
   2  -5  21   54.09    9.23
   3  -5  21  459.08   22.11
   4  -5  21   91.12   11.01
   5  -5  21    6.79    9.28
   5  -5  21    5.34    6.61
   6  -5  21  210.72   15.26
   6  -5  21  203.38   18.91
   7  -5  21  117.44   12.89
   7  -5  21  117.47   15.94
   8  -5  21   14.93    8.36
   8  -5  21   16.02   10.59
 -10  -4  21   55.10    9.98
  -9  -4  21   52.89    9.56
  -8  -4  21   32.58    7.85
  -7  -4  21   20.99    6.91
  -6  -4  21   83.87   10.46
  -5  -4  21   16.80    6.49
  -4  -4  21   20.11    6.41
  -3  -4  21    4.31    5.49
  -2  -4  21    4.43    5.53
  -1  -4  21  133.96   11.63
   0  -4  21    7.39    5.68
   1  -4  21  640.38   26.98
   2  -4  21   -1.27    5.30
   3  -4  21   -4.94    5.81
   4  -4  21  184.48   14.16
   5  -4  21   29.25    8.02
   5  -4  21   20.01    9.63
   6  -4  21   -0.07    6.99
   7  -4  21   65.04   10.90
   8  -4  21   20.60    8.93
   9  -4  21   20.41    9.81
 -10  -3  21   15.63    7.53
  -9  -3  21   13.14    7.05
  -8  -3  21   71.66   10.28
  -7  -3  21   36.89    8.22
  -6  -3  21   41.13    8.50
  -5  -3  21    0.72    4.92
  -4  -3  21   89.08   10.50
  -3  -3  21   84.20   10.21
  -2  -3  21   50.59    8.68
  -1  -3  21  678.67   28.12
   0  -3  21    3.74    5.55
   1  -3  21    4.78    5.79
   2  -3  21  128.15   12.60
   3  -3  21    4.33    6.01
   4  -3  21    2.86    6.62
   5  -3  21  169.69   14.08
   6  -3  21   15.95    8.38
   7  -3  21   40.85   10.38
   8  -3  21  101.74   13.27
   9  -3  21   40.60   11.95
 -10  -2  21   10.57    6.94
  -9  -2  21    2.84    6.06
  -8  -2  21   57.55    9.48
  -7  -2  21   21.65    7.18
  -6  -2  21  149.68   12.53
  -5  -2  21   59.02    9.39
  -4  -2  21   49.14    8.75
  -3  -2  21  410.26   20.54
  -2  -2  21   -2.48    5.41
  -1  -2  21   10.24    6.49
   0  -2  21    6.94    5.95
   1  -2  21    3.98    5.81
   2  -2  21   58.57    9.69
   3  -2  21  263.60   17.09
   4  -2  21    3.29    6.90
   5  -2  21   68.74   10.75
   6  -2  21  270.34   18.60
   7  -2  21   15.15    8.73
   8  -2  21   42.28   11.42
   9  -2  21   -0.26   10.66
  -9  -1  21   70.17    9.99
  -8  -1  21  224.16   15.86
  -7  -1  21   48.21    9.08
  -6  -1  21   20.41    6.74
  -5  -1  21  149.80   12.54
  -4  -1  21   54.29    9.04
  -3  -1  21   -2.74    4.99
  -2  -1  21  130.97   11.63
  -1  -1  21   -3.42    5.22
   0  -1  21   -3.14    5.44
   1  -1  21  356.90   19.51
   2  -1  21   24.67    8.47
   3  -1  21  115.11   12.88
   4  -1  21   93.01   12.08
   5  -1  21   12.27    8.40
   6  -1  21  109.38   13.57
   7  -1  21    0.01    8.78
   8  -1  21   71.46   13.58
  -9   0  21   40.69    8.91
  -8   0  21   15.66    7.22
  -7   0  21   99.21   11.36
  -6   0  21    0.70    5.72
  -5   0  21    2.87    5.67
  -4   0  21  149.36   12.84
  -3   0  21    7.49    6.35
  -2   0  21   63.71    9.88
  -1   0  21  359.44   19.49
   0   0  21    3.42    6.06
   1   0  21   81.81   11.53
   2   0  21   26.25    8.58
   3   0  21   38.16    9.04
   4   0  21   15.79    8.26
   5   0  21  181.91   15.76
   6   0  21   17.62    9.67
   7   0  21    3.16   10.26
  -9   1  21   -3.20    5.84
  -8   1  21  -10.83    5.83
  -7   1  21   98.40   11.53
  -6   1  21  206.79   14.94
  -5   1  21   18.16    7.26
  -4   1  21    8.73    6.42
  -3   1  21  278.14   17.25
  -2   1  21   10.75    6.30
  -1   1  21   95.78   11.33
   0   1  21   -1.40    5.69
   1   1  21   18.87    7.40
   2   1  21    2.29    6.71
   3   1  21  102.42   13.14
   4   1  21   45.08   10.48
   5   1  21  183.34   16.74
  -8   2  21  293.06   17.88
  -7   2  21  138.33   12.59
  -6   2  21   11.38    6.84
  -5   2  21  176.75   14.14
  -4   2  21    4.32    6.02
  -3   2  21   97.37   11.46
  -2   2  21   17.87    7.45
  -1   2  21   14.21    7.04
   0   2  21   -1.94    5.75
   1   2  21  112.75   13.06
   2   2  21   55.17   11.29
   3   2  21  123.90   14.70
   4   2  21   15.20    9.99
  -8   3  21   22.92    8.40
  -7   3  21   50.27    9.78
  -6   3  21   25.92    7.71
  -5   3  21   62.22   10.03
  -4   3  21  112.57   12.37
  -3   3  21   43.58    8.86
  -2   3  21   10.06    6.71
  -1   3  21  111.12   12.54
   0   3  21   -1.18    6.65
   1   3  21    4.48    5.97
   2   3  21   33.42    9.78
   3   3  21   35.99   11.98
  -7   4  21   26.89    7.89
  -6   4  21  268.71   17.64
  -5   4  21    8.08    7.17
  -4   4  21   25.23    8.29
  -3   4  21   91.49   11.86
  -2   4  21   53.88    9.87
   0   4  21    2.04    4.39
   1   4  21   -1.54    4.60
  -7   5  21    0.60    6.51
  -6   5  21  101.87   12.51
  -5   5  21  140.47   13.79
  -4   5  21   48.38    9.87
  -3   5  21  124.19   13.69
  -2   5  21    5.34    5.68
  -1   5  21    6.87    5.18
   0   5  21    1.42    4.94
  -6   6  21   45.50    9.94
  -5   6  21  164.05   15.10
  -4   6  21   15.31    8.86
  -3   6  21   35.99   10.05
  -2   6  21    1.87    5.22
  -6   7  21   41.16   10.03
  -5   7  21    4.75    8.14
  -4   7  21   58.94   12.28
   3 -17  22    5.09    9.85
   4 -17  22    6.42    8.80
   1 -16  22   -0.59    8.98
   2 -16  22   15.12    9.22
   3 -16  22    2.45    7.93
   4 -16  22   79.65   12.94
   7 -16  22  220.75   24.63
   0 -15  22   25.39   10.07
   1 -15  22   11.61    8.32
   2 -15  22  196.08   17.10
   3 -15  22   43.15   10.44
   4 -15  22   42.28   10.58
   5 -15  22   50.12   10.49
   7 -15  22   72.90   15.68
   8 -15  22   16.54   10.74
  -1 -14  22   -2.13    7.38
   0 -14  22  262.10   19.48
   1 -14  22    3.62    7.23
   2 -14  22   28.59    9.23
   3 -14  22   71.20   11.28
   4 -14  22    8.00    7.89
   5 -14  22    6.62    7.97
   7 -14  22   50.12   12.73
   8 -14  22   -1.62    9.03
   9 -14  22  126.90   19.08
  -3 -13  22    6.95    8.14
  -2 -13  22  211.42   17.81
  -1 -13  22    4.32    6.78
   0 -13  22   16.91    8.18
   1 -13  22   44.26    9.91
   2 -13  22    8.61    6.77
   3 -13  22   47.09   10.14
   4 -13  22  206.02   16.06
   5 -13  22   29.11    8.85
   6 -13  22   67.16   11.07
   7 -13  22   74.43   15.45
   8 -13  22   -3.72    7.39
   9 -13  22    9.00    7.35
  10 -13  22   -5.65    7.29
  -4 -12  22   -1.51    4.20
  -3 -12  22   42.13   10.23
  -2 -12  22   31.83    9.32
  -1 -12  22   30.04    8.72
   0 -12  22   38.16    9.60
   1 -12  22    3.61    6.76
   2 -12  22  312.72   19.11
   3 -12  22   20.71    7.78
   4 -12  22  254.00   17.42
   5 -12  22  161.69   14.16
   6 -12  22   -2.41    7.14
   7 -12  22  241.36   22.68
   8 -12  22   -0.10    9.54
   9 -12  22    2.70    6.70
  10 -12  22   -1.69    7.38
  -5 -11  22    0.36    4.11
  -4 -11  22    3.85    4.02
  -3 -11  22   67.23   11.38
  -2 -11  22   -5.45    6.00
  -1 -11  22   13.05    7.37
   0 -11  22  304.67   18.89
   1 -11  22    9.29    6.89
   2 -11  22  154.02   13.76
   3 -11  22   23.69    7.62
   4 -11  22    3.00    6.69
   5 -11  22  224.03   15.99
   6 -11  22   20.12    8.64
   7 -11  22   33.38    9.29
   7 -11  22   19.23   12.08
   8 -11  22    4.16   10.57
   9 -11  22  -12.76    8.16
  10 -11  22   -3.23    7.58
  -6 -10  22    3.55    4.23
  -5 -10  22   -0.04    4.01
  -4 -10  22   -2.00    5.40
  -3 -10  22   34.67    8.86
  -2 -10  22  286.68   18.55
  -1 -10  22   18.39    7.09
   0 -10  22  262.59   17.28
   1 -10  22   39.52    8.80
   2 -10  22   42.64    9.30
   3 -10  22  126.29   12.75
   4 -10  22   58.40    9.78
   5 -10  22   23.99    8.06
   6 -10  22   51.33    9.65
   7 -10  22   37.42    9.62
   7 -10  22   29.37   11.88
   8 -10  22   45.43   13.50
  10 -10  22    6.56    7.99
  11 -10  22   -6.95   10.40
  -7  -9  22   -2.35    4.65
  -6  -9  22   -1.72    3.82
  -5  -9  22   -1.44    5.07
  -4  -9  22  175.33   14.51
  -3  -9  22   17.03    6.79
  -2  -9  22  151.71   13.27
  -1  -9  22   42.88    9.00
   0  -9  22   36.60    8.21
   1  -9  22   47.49    9.05
   2  -9  22  195.24   14.65
   3  -9  22    9.10    6.44
   4  -9  22  163.49   13.90
   5  -9  22   -4.84    6.08
   6  -9  22   23.14   10.90
   6  -9  22   28.68    8.61
   7  -9  22  438.97   28.84
   7  -9  22  451.01   23.04
   8  -9  22   97.99   16.57
   9  -9  22   14.83   11.47
  10  -9  22   14.50   10.93
  11  -9  22    6.28   12.68
  -8  -8  22   32.64    9.24
  -7  -8  22    0.22    3.78
  -6  -8  22   23.56    7.68
  -5  -8  22   34.05    8.15
  -4  -8  22  204.93   15.14
  -3  -8  22   22.35    7.01
  -2  -8  22   22.85    7.41
  -1  -8  22   41.28    8.73
   0  -8  22  142.17   12.47
   1  -8  22   13.04    7.03
   2  -8  22  485.28   23.18
   3  -8  22    4.48    6.61
   4  -8  22   -0.42    6.17
   5  -8  22  235.67   16.23
   6  -8  22    7.78   10.99
   6  -8  22   29.14    8.50
   7  -8  22   -0.46    9.05
   7  -8  22   -8.39    7.49
   8  -8  22   20.71    8.87
   8  -8  22   24.96   11.74
   9  -8  22   25.73   12.22
  10  -8  22   27.15   11.73
  11  -8  22    3.08   12.42
  -9  -7  22   64.09   11.67
  -8  -7  22   12.57    7.00
  -7  -7  22   33.80    8.47
  -6  -7  22   87.08   11.19
  -5  -7  22  131.37   12.09
  -4  -7  22    6.78    6.26
  -3  -7  22  114.89   11.81
  -2  -7  22  204.51   14.71
  -1  -7  22   12.92    6.55
   0  -7  22  601.12   26.48
   1  -7  22    6.74    6.08
   2  -7  22   -5.01    5.92
   3  -7  22  183.57   14.39
   4  -7  22   17.44    7.67
   5  -7  22   -5.38    6.32
   6  -7  22   70.29   10.79
   6  -7  22   71.79   14.45
   7  -7  22   47.58    9.48
   7  -7  22   55.33   13.64
   8  -7  22   46.98   12.94
   8  -7  22   59.05   11.03
   9  -7  22   49.85   13.79
  10  -7  22   85.90   15.86
  11  -7  22   34.24   14.33
 -10  -6  22   -6.40    6.94
  -9  -6  22   12.78    7.13
  -8  -6  22    4.34    5.60
  -7  -6  22   69.90   10.26
  -6  -6  22    1.92    5.93
  -5  -6  22  189.55   14.33
  -4  -6  22   64.01    9.81
  -3  -6  22    5.47    6.15
  -2  -6  22  437.17   21.79
  -1  -6  22    7.67    6.06
   0  -6  22   56.71    9.58
   1  -6  22   -3.38    5.68
   2  -6  22    2.64    6.12
   3  -6  22   15.73    7.34
   4  -6  22  319.05   18.66
   5  -6  22   26.67    8.50
   5  -6  22   17.26   10.01
   6  -6  22    3.52    9.45
   6  -6  22   -0.77    7.08
   7  -6  22  142.13   14.26
   7  -6  22  140.51   17.83
   8  -6  22    4.11    8.25
   8  -6  22   11.59   10.01
   9  -6  22   52.50   13.41
 -10  -5  22    7.27    7.28
  -9  -5  22   76.35   11.35
  -8  -5  22   40.95    8.98
  -7  -5  22  169.99   13.93
  -6  -5  22   42.55    8.80
  -5  -5  22   14.89    6.65
  -4  -5  22  124.55   12.17
  -3  -5  22    5.11    5.99
  -2  -5  22    6.89    5.99
  -1  -5  22   -3.45    5.45
   0  -5  22   79.24   10.38
   1  -5  22   40.92    8.95
   2  -5  22  524.16   24.38
   3  -5  22   37.34    8.91
   4  -5  22   29.14    8.71
   5  -5  22   85.64   13.68
   5  -5  22   67.33   10.49
   6  -5  22    8.79    9.81
   6  -5  22    4.52    7.16
   7  -5  22    4.06    9.71
   7  -5  22   -2.24    7.63
   8  -5  22    3.16    8.41
 -10  -4  22   90.41   11.69
  -9  -4  22  262.97   17.52
  -8  -4  22   86.38   11.58
  -7  -4  22   30.56    7.83
  -6  -4  22   41.00    8.38
  -5  -4  22    5.78    6.13
  -4  -4  22    5.93    5.69
  -3  -4  22  174.20   13.58
  -2  -4  22    5.61    5.68
  -1  -4  22   36.71    8.52
   0  -4  22  287.74   17.55
   1  -4  22   -1.59    5.82
   2  -4  22   19.07    7.37
   3  -4  22   48.15    9.64
   4  -4  22   11.84    7.21
   4  -4  22   10.98    9.70
   5  -4  22   -5.93    6.46
   6  -4  22   18.27    8.73
   7  -4  22  124.15   13.73
   8  -4  22   21.01    9.98
   9  -4  22   -5.82    9.11
 -10  -3  22    2.19    6.56
  -9  -3  22    0.86    6.43
  -8  -3  22   10.10    6.44
  -7  -3  22   10.70    6.71
  -6  -3  22   29.34    7.69
  -5  -3  22  230.07   15.47
  -4  -3  22   11.89    6.17
  -3  -3  22   10.06    6.30
  -2  -3  22  452.03   22.33
  -1  -3  22    0.57    5.16
   0  -3  22   22.90    7.66
   1  -3  22   66.68   10.18
   2  -3  22   31.40    8.48
   3  -3  22   62.18   10.28
   4  -3  22   64.48   10.75
   5  -3  22  135.16   14.15
   6  -3  22   12.60    7.47
   7  -3  22    5.40    8.89
   8  -3  22   12.38    9.63
   9  -3  22   64.86   14.07
  -9  -2  22    5.66    6.56
  -8  -2  22   34.37    8.14
  -7  -2  22  387.88   20.75
  -6  -2  22   18.22    7.02
  -5  -2  22   -0.71    5.04
  -4  -2  22  275.53   17.08
  -3  -2  22   36.87    8.50
  -2  -2  22   21.48    7.49
  -1  -2  22   61.59    9.73
   0  -2  22  150.59   13.04
   1  -2  22   29.19    8.42
   2  -2  22   75.35   11.04
   3  -2  22    6.98    7.49
   4  -2  22   32.52    8.94
   5  -2  22   -6.78    7.02
   6  -2  22    2.49    7.65
   7  -2  22   60.45   12.65
   8  -2  22   10.09   10.72
  -9  -1  22  276.15   17.97
  -8  -1  22   92.08   11.51
  -7  -1  22   -7.96    5.65
  -6  -1  22   73.34   10.18
  -5  -1  22   14.42    6.46
  -4  -1  22   23.77    7.16
  -3  -1  22   55.27    9.58
  -2  -1  22   31.04    8.37
  -1  -1  22   25.56    8.17
   0  -1  22   60.49    9.87
   1  -1  22    3.20    6.67
   2  -1  22   38.74    9.39
   3  -1  22   -0.11    7.09
   4  -1  22    2.68    7.35
   5  -1  22   41.13   10.33
   6  -1  22    6.58    8.99
   7  -1  22   16.09   10.86
  -9   0  22    7.91    7.21
  -8   0  22   12.85    6.95
  -7   0  22   54.46   10.04
  -6   0  22   12.31    6.73
  -5   0  22   66.05   10.06
  -4   0  22    7.95    6.06
  -3   0  22   42.58    8.96
  -2   0  22   75.83   10.84
  -1   0  22   12.71    6.67
   0   0  22   97.74   11.58
   1   0  22    0.49    6.77
   2   0  22  139.19   14.50
   3   0  22   21.78    8.39
   4   0  22    2.43    8.27
   5   0  22   22.52    9.98
  -8   1  22   48.92    9.35
  -7   1  22  122.55   12.68
  -6   1  22   -4.85    5.30
  -5   1  22    3.73    6.45
  -4   1  22   60.33    9.95
  -3   1  22    6.01    6.80
  -2   1  22   23.45    7.90
  -1   1  22    9.34    6.63
   0   1  22   63.01   10.44
   1   1  22    3.79    6.34
   2   1  22   -0.29    7.38
   3   1  22   24.25    9.64
   4   1  22    4.91    8.88
  -8   2  22    5.98    6.93
  -7   2  22    5.65    7.02
  -6   2  22   20.86    7.59
  -5   2  22  137.84   13.45
  -4   2  22   40.77    8.98
  -3   2  22   -1.30    5.90
  -2   2  22  130.87   13.92
  -1   2  22    2.78    6.25
   0   2  22    7.77    7.05
   1   2  22   -2.58    5.07
   2   2  22   74.56   12.64
   3   2  22    2.93    9.79
  -8   3  22   -1.01    6.73
  -7   3  22  102.85   12.41
  -6   3  22    6.65    6.89
  -5   3  22    7.28    6.35
  -4   3  22   -0.40    6.96
  -3   3  22    6.37    6.71
  -2   3  22   17.51    7.68
  -1   3  22   -7.08    5.07
   0   3  22   -1.64    4.86
   1   3  22   -8.64    4.38
  -7   4  22    4.30    6.63
  -6   4  22    5.43    7.32
  -5   4  22   55.34   10.33
  -4   4  22    5.93    6.84
  -3   4  22   27.56    8.08
  -2   4  22    1.63    4.82
  -1   4  22   -7.33    4.35
   0   4  22   -2.65    4.77
  -7   5  22   91.19   12.18
  -6   5  22    3.56    7.00
  -5   5  22   28.05    8.66
  -4   5  22   -2.78    6.24
  -3   5  22   17.82    8.93
  -2   5  22    2.98    4.99
  -6   6  22    8.04    8.07
  -5   6  22   43.64   10.88
  -4   6  22   69.70   12.76
  -6   7  22   14.52    9.70
   4 -17  23    7.17   10.53
   2 -16  23   13.44    9.86
   3 -16  23   94.71   14.02
   4 -16  23   11.54    8.61
   1 -15  23   97.94   14.22
   2 -15  23   -2.30    8.19
   3 -15  23   78.13   12.63
   4 -15  23   20.46    9.39
   5 -15  23   -8.43    7.47
   7 -15  23   36.06   13.40
  -1 -14  23   69.04   13.25
   0 -14  23   -0.55    7.66
   1 -14  23   58.45   11.44
   2 -14  23    6.84    7.31
   3 -14  23   10.11    8.07
   4 -14  23   27.87    9.37
   5 -14  23   16.66    8.55
   7 -14  23   17.61   11.24
   8 -14  23    8.09   10.01
  -2 -13  23    4.86    8.18
  -1 -13  23   48.74   11.49
   0 -13  23   -4.07    7.08
   1 -13  23   11.23    7.75
   2 -13  23   -2.09    6.47
   3 -13  23    2.70    6.68
   4 -13  23   79.46   11.85
   5 -13  23   34.90    9.56
   6 -13  23   34.56    9.56
   7 -13  23   -1.98    6.86
   8 -13  23    8.97    8.18
   9 -13  23   -0.95    7.72
  -3 -12  23   47.35   11.55
  -2 -12  23    5.46    7.39
  -1 -12  23   13.19    7.90
   0 -12  23    1.32    6.60
   1 -12  23  122.86   13.42
   2 -12  23    7.97    7.08
   3 -12  23   30.76    8.98
   4 -12  23   -1.10    6.89
   5 -12  23    8.66    7.94
   6 -12  23   98.71   12.51
   7 -12  23  -11.54    7.53
   8 -12  23   -4.38    6.67
   9 -12  23    2.71    7.59
  -4 -11  23    4.06    4.57
  -3 -11  23   16.65    7.51
  -2 -11  23    4.77    7.28
  -1 -11  23  106.28   12.49
   0 -11  23    1.23    6.57
   1 -11  23  307.68   19.29
   2 -11  23   22.22    8.13
   3 -11  23    8.36    7.32
   4 -11  23   68.75   11.15
   5 -11  23    6.03    7.24
   6 -11  23    3.85    7.68
   7 -11  23   -0.30   10.50
   8 -11  23    0.41    8.07
   9 -11  23   -6.00    7.25
  10 -11  23   16.87    8.35
  -5 -10  23   -1.45    3.97
  -4 -10  23   -1.68    4.00
  -3 -10  23    0.58    5.65
  -2 -10  23    6.29    6.56
  -1 -10  23  337.40   20.09
   0 -10  23   -7.65    5.71
   1 -10  23   34.45    8.79
   2 -10  23   49.69    9.68
   3 -10  23   -0.22    6.30
   4 -10  23   21.71    8.37
   5 -10  23   93.40   12.00
   6 -10  23   72.70   11.17
   7 -10  23   18.88    8.58
   7 -10  23    1.08    9.67
   8 -10  23   85.14   16.01
   9 -10  23   13.33    8.62
  10 -10  23   17.14   12.52
  -6  -9  23    4.48    4.37
  -5  -9  23   -1.90    3.81
  -4  -9  23   21.59    6.94
  -3  -9  23   11.37    6.96
  -2  -9  23   14.09    7.37
  -1  -9  23   15.77    6.91
   0  -9  23    5.36    6.28
   1  -9  23   45.37    9.55
   2  -9  23   20.64    8.15
   3  -9  23  127.53   13.10
   4  -9  23   20.28    8.24
   5  -9  23   -1.64    6.57
   6  -9  23  143.30   14.20
   6  -9  23  165.30   19.64
   7  -9  23    4.60   10.70
   7  -9  23    6.83    8.21
   8  -9  23    6.21   10.68
   9  -9  23   29.77   12.00
  10  -9  23  106.23   18.22
  -7  -8  23    5.90    4.73
  -6  -8  23    0.41    3.69
  -5  -8  23   10.92    6.19
  -4  -8  23   -2.65    5.72
  -3  -8  23   15.89    6.51
  -2  -8  23   40.47    9.35
  -1  -8  23   46.46    9.21
   0  -8  23    2.89    5.97
   1  -8  23   64.27   10.25
   2  -8  23   36.87    9.00
   3  -8  23    4.79    6.91
   4  -8  23  180.33   15.05
   5  -8  23   56.44   10.24
   6  -8  23   12.03    7.91
   6  -8  23    9.12   10.22
   7  -8  23   17.18    9.11
   7  -8  23   22.35   11.04
   8  -8  23  213.32   21.00
   9  -8  23   40.46   12.18
  10  -8  23    4.51   12.13
  -8  -7  23   83.53   12.23
  -7  -7  23    6.15    4.17
  -6  -7  23   22.35    7.51
  -5  -7  23    4.84    5.76
  -4  -7  23   65.68   10.08
  -3  -7  23   -8.62    4.85
  -2  -7  23   20.42    7.11
  -1  -7  23   65.94   10.34
   0  -7  23   -0.66    5.75
   1  -7  23   71.55   10.55
   2  -7  23   59.01    9.89
   3  -7  23  147.96   13.66
   4  -7  23    1.21    6.90
   5  -7  23    8.63    7.41
   6  -7  23  262.44   21.71
   6  -7  23  236.62   17.30
   7  -7  23    5.77   10.40
   7  -7  23    0.63    7.36
   8  -7  23   -9.11    9.43
   8  -7  23   -4.17    8.81
   9  -7  23   23.59   11.89
  10  -7  23  -17.96   10.65
  -9  -6  23    4.16    6.72
  -8  -6  23   -5.05    6.05
  -7  -6  23    5.96    5.88
  -6  -6  23  114.75   12.42
  -5  -6  23    7.31    6.98
  -4  -6  23   16.32    6.73
  -3  -6  23  148.85   12.88
  -2  -6  23   27.89    7.83
  -1  -6  23   51.17    9.29
   0  -6  23   -0.46    6.52
   1  -6  23  582.20   26.40
   2  -6  23    4.63    6.38
   3  -6  23    6.45    7.12
   4  -6  23  213.37   15.93
   5  -6  23   13.35   10.30
   5  -6  23   -0.09    7.25
   6  -6  23    0.42    9.38
   6  -6  23    0.02    7.78
   7  -6  23   11.79   10.72
   7  -6  23   16.86    8.76
   8  -6  23   20.49    9.30
   8  -6  23   33.64   11.16
 -10  -5  23   11.90    7.61
  -9  -5  23   22.30    8.41
  -8  -5  23  174.65   14.78
  -7  -5  23   10.71    6.66
  -6  -5  23    1.57    5.90
  -5  -5  23  105.29   12.06
  -4  -5  23   29.03    8.00
  -3  -5  23   11.25    6.20
  -2  -5  23   58.79    9.69
  -1  -5  23  585.88   26.57
   0  -5  23    3.97    6.48
   1  -5  23   11.45    7.15
   2  -5  23   80.07   11.34
   3  -5  23   11.67    7.16
   4  -5  23    2.15    6.71
   5  -5  23  138.87   17.42
   5  -5  23  136.31   14.13
   6  -5  23   30.86    9.72
   7  -5  23   -4.64    7.78
   8  -5  23  156.71   15.82
 -10  -4  23   48.79   10.73
  -9  -4  23   22.55    7.32
  -8  -4  23   38.86    9.06
  -7  -4  23    3.61    5.91
  -6  -4  23   79.68   11.06
  -5  -4  23   -0.80    5.25
  -4  -4  23  163.48   13.50
  -3  -4  23  106.00   11.80
  -2  -4  23    1.01    5.65
  -1  -4  23   19.33    7.22
   0  -4  23   -5.26    6.09
   1  -4  23    9.37    7.14
   2  -4  23   11.94    7.22
   3  -4  23  202.99   15.90
   4  -4  23   35.60    9.55
   5  -4  23   60.88   11.58
   6  -4  23  142.23   14.93
   7  -4  23  -12.83    7.03
   8  -4  23   61.40   12.91
   9  -4  23   -2.42   11.71
 -10  -3  23    8.29    6.77
  -9  -3  23   12.30    7.75
  -8  -3  23  150.77   13.72
  -7  -3  23    8.08    6.32
  -6  -3  23  122.52   12.90
  -5  -3  23   49.47    9.26
  -4  -3  23    8.12    6.20
  -3  -3  23   19.43    7.30
  -2  -3  23   80.66   11.04
  -1  -3  23    2.31    5.81
   0  -3  23    5.84    6.40
   1  -3  23  204.84   15.30
   2  -3  23   14.88    7.79
   3  -3  23   57.65   10.82
   4  -3  23   76.60   12.24
   5  -3  23   14.22    8.96
   6  -3  23   79.29   12.66
   7  -3  23    9.41    9.42
   8  -3  23   15.01   11.46
  -9  -2  23   11.19    6.72
  -8  -2  23   93.44   11.90
  -7  -2  23   -7.42    5.62
  -6  -2  23   19.17    7.25
  -5  -2  23   10.54    6.88
  -4  -2  23  206.15   14.98
  -3  -2  23    6.46    6.12
  -2  -2  23   17.00    7.39
  -1  -2  23  220.37   15.71
   0  -2  23    7.75    6.96
   1  -2  23    6.26    7.18
   2  -2  23   81.49   11.79
   3  -2  23   22.06    9.12
   4  -2  23   70.54   12.19
   5  -2  23   61.63   11.71
   6  -2  23   32.56   10.96
   7  -2  23   30.31   11.34
  -9  -1  23   24.34    8.03
  -8  -1  23   -4.19    6.05
  -7  -1  23   16.03    7.54
  -6  -1  23  264.23   17.29
  -5  -1  23    3.86    6.35
  -4  -1  23   12.89    6.62
  -3  -1  23  180.45   14.16
  -2  -1  23    7.88    6.71
  -1  -1  23    5.54    7.07
   0  -1  23    5.20    6.25
   1  -1  23    0.20    6.59
   2  -1  23   19.82    8.88
   3  -1  23   43.39   10.40
   4  -1  23   49.23   10.93
   5  -1  23   70.70   13.13
  -9   0  23   23.30    8.30
  -8   0  23  173.29   14.71
  -7   0  23    0.66    6.30
  -6   0  23    6.96    7.07
  -5   0  23  131.06   13.30
  -4   0  23   55.19    9.53
  -3   0  23   60.03   10.59
  -2   0  23   98.21   12.18
  -1   0  23   16.18    7.27
   0   0  23   -1.56    6.02
   1   0  23  176.24   15.79
   2   0  23   40.86    9.93
   3   0  23  135.46   15.10
   4   0  23    7.32    9.46
  -8   1  23    0.49    6.62
  -7   1  23   12.05    7.10
  -6   1  23   26.39    8.32
  -5   1  23   81.42   11.61
  -4   1  23   72.99   11.12
  -3   1  23    8.29    6.80
  -2   1  23   28.01    8.39
  -1   1  23  182.51   15.38
   0   1  23   -6.11    5.63
   1   1  23    7.28    4.50
   2   1  23   -0.12    7.83
   3   1  23    2.92    9.89
  -8   2  23   25.31    8.28
  -7   2  23    5.83    7.00
  -6   2  23  150.35   13.87
  -5   2  23   17.06    8.05
  -4   2  23   69.13   10.78
  -3   2  23   40.06    9.20
  -2   2  23    4.46    6.73
  -1   2  23    2.15    5.14
   0   2  23   -1.78    4.76
   1   2  23    4.84    5.03
  -7   3  23    4.78    6.85
  -6   3  23   78.18   11.48
  -5   3  23   53.20   10.54
  -4   3  23   38.87    9.18
  -3   3  23   44.82    8.05
  -2   3  23   -0.95    4.41
  -1   3  23   -3.77    4.21
   0   3  23    3.82    4.99
  -7   4  23    9.05    7.38
  -6   4  23   40.58    8.98
  -5   4  23   77.37   11.46
  -4   4  23    8.69    7.58
  -3   4  23   -2.48    4.55
  -2   4  23   -2.73    4.84
  -7   5  23   34.67    9.89
  -6   5  23    5.47    7.82
  -5   5  23    8.43    7.81
  -4   5  23   74.14   12.64
   3 -16  24   21.45   10.35
   4 -16  24   15.79   10.09
   2 -15  24    7.38    9.20
   3 -15  24   -0.59    7.76
   4 -15  24   34.47    9.95
   5 -15  24   93.79   13.25
   0 -14  24   30.01   10.69
   1 -14  24   14.60    9.08
   2 -14  24   84.67   12.99
   3 -14  24    3.99    8.01
   4 -14  24   33.67   10.17
   5 -14  24   52.12   11.13
  -1 -13  24   17.13    9.52
   0 -13  24   82.85   12.95
   1 -13  24    9.13    8.11
   2 -13  24   80.71   12.11
   3 -13  24   17.14    9.07
   4 -13  24   -3.00    6.99
   5 -13  24   93.70   12.93
   6 -13  24    8.60    8.64
   7 -13  24    0.91    8.28
  -2 -12  24   78.21   13.34
  -1 -12  24    2.86    7.27
   0 -12  24  162.32   15.02
   1 -12  24  -14.13    5.77
   2 -12  24   35.58    9.65
   3 -12  24   46.66   10.54
   4 -12  24  101.82   13.06
   5 -12  24   25.06    9.30
   6 -12  24   35.88   10.21
   7 -12  24   -2.64    7.62
   8 -12  24   -4.25    7.19
  -3 -11  24    8.99    8.23
  -2 -11  24   78.75   12.07
  -1 -11  24   -4.13    6.30
   0 -11  24  121.22   13.43
   1 -11  24    8.55    7.40
   2 -11  24   60.93   10.98
   3 -11  24   68.02   11.51
   4 -11  24  162.97   14.78
   5 -11  24   -6.68    7.53
   6 -11  24   -3.26    7.66
   7 -11  24    4.13    6.73
   8 -11  24   -3.04    7.54
   9 -11  24   -0.06    7.35
  -4 -10  24   -2.24    3.97
  -3 -10  24   -2.42    3.78
  -2 -10  24   42.51   10.03
  -1 -10  24    7.03    6.60
   0 -10  24   12.01    8.14
   1 -10  24    5.98    7.45
   2 -10  24  419.63   22.89
   3 -10  24    7.81    7.47
   4 -10  24    4.59    7.82
   5 -10  24  123.41   13.66
   6 -10  24    3.73    7.35
   7 -10  24    1.88    8.65
   7 -10  24    4.85    8.74
   8 -10  24   -3.90    8.80
   9 -10  24    2.79   11.82
  -5  -9  24    2.72    4.44
  -4  -9  24   -1.35    3.61
  -3  -9  24   -1.48    5.30
  -2  -9  24   61.74   10.69
  -1  -9  24   12.61    7.69
   0  -9  24  330.07   19.97
   1  -9  24    3.62    7.56
   2  -9  24   19.31    8.51
   3  -9  24  104.12   12.86
   4  -9  24   -5.08    6.75
   5  -9  24    0.14    7.63
   6  -9  24   91.62   16.45
   6  -9  24   55.37   10.95
   7  -9  24   27.27   12.33
   7  -9  24   16.84    9.30
   8  -9  24   33.34   12.45
   9  -9  24  257.96   24.31
  -6  -8  24   -4.68    4.18
  -5  -8  24   -3.04    3.52
  -4  -8  24    1.50    4.63
  -3  -8  24   42.06    8.97
  -2  -8  24  419.52   22.73
  -1  -8  24  -10.79    5.43
   0  -8  24   -9.55    5.91
   1  -8  24    3.03    6.79
   2  -8  24    0.58    6.85
   3  -8  24    5.13    7.25
   4  -8  24  263.86   18.08
   5  -8  24    5.71    7.71
   6  -8  24    7.56    8.47
   6  -8  24   39.84   13.08
   7  -8  24  160.44   15.62
   7  -8  24  196.89   21.46
   8  -8  24   87.19   15.90
   9  -8  24  119.45   19.01
  -7  -7  24    0.97    4.51
  -6  -7  24    4.92    4.25
  -5  -7  24    4.65    5.39
  -4  -7  24  106.14   12.02
  -3  -7  24    4.26    6.46
  -2  -7  24    9.27    6.51
  -1  -7  24    7.80    6.89
   0  -7  24   11.14    7.45
   1  -7  24   13.09    7.53
   2  -7  24  377.62   21.43
   3  -7  24   53.85   10.39
   4  -7  24  182.62   15.38
   5  -7  24  244.00   17.61
   6  -7  24   14.41   11.31
   6  -7  24    9.39    7.92
   7  -7  24   55.58   14.41
   7  -7  24   61.32   11.59
   8  -7  24    4.97   11.13
   8  -7  24    9.16    9.12
  -8  -6  24    3.69    6.72
  -7  -6  24   56.49   10.38
  -6  -6  24   12.14    6.08
  -5  -6  24   11.18    6.45
  -4  -6  24   11.68    6.57
  -3  -6  24  124.47   13.03
  -2  -6  24    4.82    5.80
  -1  -6  24    7.95    7.05
   0  -6  24  484.43   24.22
   1  -6  24   -2.35    6.40
   2  -6  24   82.55   11.73
   3  -6  24   56.85   10.76
   4  -6  24    1.05    7.90
   5  -6  24   41.26    9.82
   5  -6  24   47.34   13.36
   6  -6  24   37.95   12.92
   6  -6  24   54.25   10.92
   7  -6  24   61.50   12.20
   8  -6  24   -3.10    8.86
  -9  -5  24   -4.79    7.29
  -8  -5  24    8.55    7.12
  -7  -5  24   23.15    7.64
  -6  -5  24    5.78    6.07
  -5  -5  24  115.52   12.87
  -4  -5  24    4.60    6.05
  -3  -5  24    6.62    6.99
  -2  -5  24  337.11   19.71
  -1  -5  24   -0.13    6.09
   0  -5  24   85.01   11.74
   1  -5  24   21.07    8.51
   2  -5  24    0.37    6.53
   3  -5  24   20.93    8.49
   4  -5  24  112.74   13.54
   5  -5  24  165.03   15.77
   6  -5  24   38.84   11.01
   7  -5  24   52.26   11.90
   8  -5  24   27.40   10.92
  -9  -4  24    5.00    7.60
  -8  -4  24   50.59    9.49
  -7  -4  24  376.04   21.57
  -6  -4  24   -2.19    5.82
  -5  -4  24    0.07    6.30
  -4  -4  24  262.51   17.42
  -3  -4  24   55.63    9.65
  -2  -4  24   78.83   11.11
  -1  -4  24   24.12    7.97
   0  -4  24   21.80    8.70
   1  -4  24    5.19    7.09
   2  -4  24  232.72   17.37
   3  -4  24    4.61    7.57
   4  -4  24  141.15   14.53
   5  -4  24    7.50    8.57
   6  -4  24   -5.47    8.02
   7  -4  24  172.69   17.50
  -9  -3  24  170.67   14.99
  -8  -3  24   53.15    9.84
  -7  -3  24    2.41    6.99
  -6  -3  24   73.85   10.84
  -5  -3  24   15.26    7.19
  -4  -3  24  188.59   15.35
  -3  -3  24   52.91    9.83
  -2  -3  24   -3.97    5.94
  -1  -3  24   -1.34    6.26
   0  -3  24  250.64   17.78
   1  -3  24    6.59    7.48
   2  -3  24  124.60   13.60
   3  -3  24   25.89    9.04
   4  -3  24   -3.05    7.32
   5  -3  24   70.26   12.43
   6  -3  24   24.85   10.58
  -9  -2  24   18.12    7.76
  -8  -2  24    0.01    6.02
  -7  -2  24   12.50    7.14
  -6  -2  24   17.86    7.25
  -5  -2  24  225.03   16.13
  -4  -2  24   15.36    7.08
  -3  -2  24   22.26    7.59
  -2  -2  24  200.60   15.06
  -1  -2  24    9.68    6.72
   0  -2  24  289.32   19.27
   1  -2  24   49.27   10.44
   2  -2  24   18.46    8.40
   3  -2  24   58.21   11.55
   4  -2  24   11.00    8.50
   5  -2  24   43.17   11.69
  -9  -1  24    1.61    6.01
  -8  -1  24   12.54    7.24
  -7  -1  24  147.23   13.67
  -6  -1  24   -0.20    6.38
  -5  -1  24   43.57    9.32
  -4  -1  24   89.97   11.96
  -3  -1  24    5.03    6.20
  -2  -1  24  144.60   13.52
  -1  -1  24   55.47   10.12
   0  -1  24   -1.27    6.08
   1  -1  24   20.77    9.23
   2  -1  24   24.48    9.38
   3  -1  24   12.59    8.68
   4  -1  24  145.16   16.58
  -8   0  24   63.71   10.53
  -7   0  24   51.46   10.22
  -6   0  24   42.95    9.83
  -5   0  24  163.71   14.20
  -4   0  24  118.64   13.38
  -3   0  24   25.25    8.53
  -2   0  24    5.85    6.43
  -1   0  24   -0.47    5.28
   0   0  24    2.44    4.87
   1   0  24   10.47    7.54
   2   0  24  182.00   16.70
  -8   1  24   14.60    8.11
  -7   1  24   56.95   10.15
  -6   1  24   29.62    9.02
  -5   1  24    9.48    7.09
  -4   1  24   -4.62    5.58
  -3   1  24   14.31    7.11
  -2   1  24    0.26    4.65
  -1   1  24   -3.02    4.43
   0   1  24   -4.80    4.44
   1   1  24    3.77    4.70
  -8   2  24   15.00    7.46
  -7   2  24   72.54   11.17
  -6   2  24    6.39    6.79
  -5   2  24   79.93   11.17
  -4   2  24   12.67    6.24
  -3   2  24    1.67    4.81
  -2   2  24   -5.02    4.32
  -1   2  24    6.89    4.97
  -7   3  24  165.63   15.19
  -6   3  24   28.63    8.76
  -5   3  24   34.48    9.76
  -4   3  24  129.98   14.61
  -3   3  24    4.86    5.13
  -7   4  24   27.75   10.38
  -6   4  24   41.50   10.54
  -5   4  24   -3.42    7.93
   3 -15  25   23.64   10.55
   4 -15  25   28.05   10.60
   5 -15  25   55.27   12.42
   2 -14  25   17.98    9.67
   3 -14  25  108.08   14.32
   4 -14  25   13.11    9.25
   5 -14  25   -8.37    8.19
   0 -13  25    4.46    8.47
   1 -13  25  372.43   23.10
   2 -13  25   17.80    9.36
   3 -13  25   -5.49    7.51
   4 -13  25   80.02   12.68
   5 -13  25    4.62    8.17
   6 -13  25  -10.13    8.22
  -1 -12  25  375.52   23.35
   0 -12  25   -7.28    6.91
   1 -12  25    5.65    7.64
   2 -12  25    5.38    7.67
   3 -12  25   34.05    9.35
   4 -12  25    9.38    8.06
   5 -12  25   97.34   13.40
   6 -12  25   38.12    9.93
   7 -12  25   -5.87    7.26
  -2 -11  25   24.03    9.75
  -1 -11  25   -0.85    6.96
   0 -11  25   -0.13    7.29
   1 -11  25    7.78    7.69
   2 -11  25   15.19    8.69
   3 -11  25  341.55   21.05
   4 -11  25   26.06    9.34
   5 -11  25   53.00   11.09
   6 -11  25  145.35   15.26
   7 -11  25   -5.05    7.81
  -3 -10  25    2.58    4.52
  -2 -10  25    7.88    7.14
  -1 -10  25   -1.03    6.87
   0 -10  25  -12.26    6.43
   1 -10  25  469.41   24.78
   2 -10  25   20.24    8.46
   3 -10  25   62.95   11.29
   4 -10  25  196.95   16.28
   5 -10  25   10.67    8.64
   6 -10  25    0.72    7.49
   6 -10  25   43.08   10.63
   7 -10  25    4.31   10.21
   7 -10  25   15.06    9.45
   8 -10  25   32.61   14.87
  -4  -9  25   -2.73    3.74
  -3  -9  25   -1.84    3.72
  -2  -9  25   14.48    7.56
  -1  -9  25  431.49   23.57
   0  -9  25   -0.72    7.24
   1  -9  25   33.44    9.52
   2  -9  25   33.88    9.72
   3  -9  25   11.71    8.55
   4  -9  25   73.72   12.26
   5  -9  25   68.55   11.70
   6  -9  25   84.26   12.85
   6  -9  25  121.41   18.41
   7  -9  25    9.69   11.28
   7  -9  25   12.89    9.30
   8  -9  25   18.94   13.85
  -5  -8  25    1.67    4.00
  -4  -8  25    4.83    4.38
  -3  -8  25    4.74    4.60
  -2  -8  25   16.60    8.01
  -1  -8  25   19.16    7.95
   0  -8  25    2.44    6.45
   1  -8  25  142.28   14.66
   2  -8  25   11.38    7.85
   3  -8  25   59.01   11.14
   4  -8  25   51.04   10.48
   5  -8  25   37.72   10.36
   6  -8  25   20.06   12.01
   6  -8  25   29.14   10.66
   7  -8  25   -2.24    8.32
   7  -8  25    4.82   10.20
   8  -8  25   75.90   16.93
  -6  -7  25   -0.94    4.79
  -5  -7  25   -1.44    4.20
  -4  -7  25    6.76    4.34
  -3  -7  25   -4.61    5.15
  -2  -7  25    8.20    6.77
  -1  -7  25  134.44   13.96
   0  -7  25    8.12    7.58
   1  -7  25  103.51   13.16
   2  -7  25   -5.91    7.20
   3  -7  25   93.83   12.64
   4  -7  25   23.32    8.88
   5  -7  25   27.07   12.00
   5  -7  25   22.36   10.03
   6  -7  25   55.44   11.71
   6  -7  25   96.37   16.74
   7  -7  25   -8.49   10.07
   7  -7  25    5.41    9.65
   8  -7  25   83.70   14.41
  -7  -6  25    9.26    7.79
  -6  -6  25   -1.64    4.77
  -5  -6  25    3.55    4.22
  -4  -6  25    1.88    5.18
  -3  -6  25    0.38    6.11
  -2  -6  25   -1.79    6.14
  -1  -6  25  113.21   13.31
   0  -6  25    0.11    7.30
   1  -6  25  136.56   14.24
   2  -6  25   16.45    8.40
   3  -6  25    5.30    7.95
   4  -6  25   70.16   12.14
   5  -6  25   11.46    8.50
   5  -6  25   -4.44    9.88
   6  -6  25   52.37   11.35
   7  -6  25    7.74    9.27
   8  -6  25   36.33   12.55
  -7  -5  25    9.46    7.28
  -6  -5  25    3.05    4.43
  -5  -5  25   -1.76    4.68
  -4  -5  25   28.90    8.16
  -3  -5  25   34.21    8.82
  -2  -5  25   11.38    7.01
  -1  -5  25   95.98   12.53
   0  -5  25   -1.05    6.65
   1  -5  25  150.55   14.90
   2  -5  25   10.39    8.12
   3  -5  25   15.89    9.08
   4  -5  25   18.43    9.17
   5  -5  25   14.05    9.67
   6  -5  25    0.85    9.09
   7  -5  25    3.72    9.88
  -8  -4  25  128.97   14.28
  -7  -4  25   16.56    8.12
  -6  -4  25   16.13    5.83
  -5  -4  25   16.10    6.79
  -4  -4  25   10.53    6.83
  -3  -4  25   78.10   11.59
  -2  -4  25   19.87    7.31
  -1  -4  25  120.41   13.19
   0  -4  25   -3.62    6.94
   1  -4  25    3.02    7.78
   2  -4  25   13.15    8.72
   3  -4  25   14.28    8.38
   4  -4  25   -3.23    7.94
   5  -4  25   51.29   11.63
   6  -4  25   52.19   12.33
  -9  -3  25   16.41    8.26
  -8  -3  25   34.44    9.70
  -7  -3  25    8.83    7.43
  -6  -3  25   79.71   11.27
  -5  -3  25    8.03    6.67
  -4  -3  25    4.08    6.37
  -3  -3  25    0.37    6.20
  -2  -3  25    8.11    6.66
  -1  -3  25    2.90    6.04
   0  -3  25  -10.50    6.54
   1  -3  25  291.83   19.94
   2  -3  25   -8.84    7.18
   3  -3  25   66.99   12.45
   4  -3  25   16.41    9.86
   5  -3  25    9.38    9.97
  -9  -2  25    0.48    7.99
  -8  -2  25   27.36    9.05
  -7  -2  25    0.73    6.80
  -6  -2  25   12.87    6.97
  -5  -2  25   14.20    6.74
  -4  -2  25   32.59    8.13
  -3  -2  25    3.94    6.29
  -2  -2  25   -6.77    5.23
  -1  -2  25   -1.68    5.31
   0  -2  25    4.84    5.33
   1  -2  25   -8.91    7.26
   2  -2  25   20.69    9.70
   3  -2  25   67.58   12.75
  -9  -1  25    6.13    8.19
  -8  -1  25   31.30    9.63
  -7  -1  25    1.68    6.46
  -6  -1  25   60.08   10.13
  -5  -1  25    3.29    6.01
  -4  -1  25    6.18    5.48
  -3  -1  25   -0.94    5.13
  -2  -1  25   -0.35    5.11
  -1  -1  25   -1.01    3.89
   0  -1  25    1.09    4.41
   1  -1  25   70.78   13.16
   2  -1  25  -15.24    8.22
  -8   0  25   57.06   11.40
  -7   0  25   15.07    8.57
  -6   0  25   69.79   11.36
  -5   0  25   17.16    7.13
  -4   0  25    3.64    4.73
  -3   0  25   -2.44    4.26
  -2   0  25   -3.57    4.21
  -1   0  25    1.88    4.27
   0   0  25   -1.91    4.76
  -8   1  25   78.82   12.84
  -7   1  25   19.56    8.88
  -6   1  25   -1.22    7.48
  -5   1  25   16.42    8.25
  -4   1  25   -1.04    4.73
  -3   1  25    0.85    4.57
  -2   1  25   -3.49    4.80
  -1   1  25    3.02    5.00
  -8   2  25   40.47   10.77
  -7   2  25   -0.36    8.12
  -6   2  25   54.61   10.88
  -5   2  25    3.19    7.63
  -4   2  25   16.51    9.09
   4 -14  26    5.72    8.97
   5 -14  26    6.31   10.24
   2 -13  26   -0.44    9.06
   3 -13  26   41.82   11.29
   4 -13  26   55.31   11.72
   5 -13  26    2.12    8.84
   1 -12  26   -5.81    7.95
   2 -12  26   32.71   10.37
   3 -12  26   -5.42    8.21
   4 -12  26    7.51    8.22
   5 -12  26   42.15   10.64
   6 -12  26    6.92    9.55
  -1 -11  26   -4.13    8.39
   0 -11  26   10.25    8.35
   1 -11  26   -4.33    8.01
   2 -11  26    6.82    7.78
   3 -11  26   41.47   11.00
   4 -11  26   12.78    8.99
   5 -11  26    9.40    8.57
   6 -11  26   15.07    9.62
   6 -11  26   12.00    8.20
  -2 -10  26   24.78    9.55
  -1 -10  26    0.10    7.33
   0 -10  26  194.17   16.49
   1 -10  26   17.13    8.76
   2 -10  26   13.36    8.72
   3 -10  26   12.21    8.38
   4 -10  26   52.31   11.40
   5 -10  26   19.80    9.60
   6 -10  26    7.97   12.22
   6 -10  26    6.28    8.97
   7 -10  26  113.77   15.11
  -3  -9  26    0.36    4.41
  -2  -9  26   18.79    8.48
  -1  -9  26   17.39    7.98
   0  -9  26   19.46    8.73
   1  -9  26    0.33    7.47
   2  -9  26  117.69   14.05
   3  -9  26   17.52    9.52
   4  -9  26    5.05    7.83
   5  -9  26  131.37   15.07
   6  -9  26   10.11    9.23
   6  -9  26    9.34   12.04
   7  -9  26   59.70   16.86
   7  -9  26   59.41   12.89
  -4  -8  26    3.81    4.45
  -3  -8  26    1.18    4.61
  -2  -8  26    9.03    7.16
  -1  -8  26   -1.82    7.17
   0  -8  26  561.23   27.79
   1  -8  26    2.62    7.49
   2  -8  26  -13.93    6.75
   3  -8  26   43.03   10.84
   4  -8  26   25.26    9.27
   5  -8  26   10.66    9.92
   6  -8  26   36.14   11.28
   6  -8  26   40.48   13.18
   7  -8  26   14.27   10.97
   7  -8  26   27.21   13.93
  -4  -7  26    3.73    4.62
  -3  -7  26   -0.84    4.17
  -2  -7  26    1.66    4.25
  -1  -7  26    1.40    7.44
   0  -7  26   29.70    9.52
   1  -7  26   30.77    9.61
   2  -7  26   43.69   10.22
   3  -7  26   18.89    9.40
   4  -7  26   98.29   13.50
   5  -7  26   99.50   17.66
   5  -7  26  101.84   14.57
   6  -7  26   39.06   12.59
   6  -7  26   13.44    9.95
   7  -7  26   72.69   14.44
  -5  -6  26   -0.87    4.53
  -4  -6  26    0.80    4.06
  -3  -6  26    3.53    4.43
  -2  -6  26    2.73    4.23
  -1  -6  26   45.69   10.47
   0  -6  26   18.35    8.72
   1  -6  26   50.15   11.10
   2  -6  26  193.92   16.46
   3  -6  26   26.15    9.98
   4  -6  26   77.13   13.30
   5  -6  26    2.02    9.28
   6  -6  26   -2.74    9.93
  -6  -5  26   -0.61    4.64
  -5  -5  26    0.53    4.21
  -4  -5  26    5.34    4.46
  -3  -5  26    2.98    4.10
  -2  -5  26   -1.13    4.25
  -1  -5  26   16.74    6.79
   0  -5  26  348.89   21.51
   1  -5  26   12.06    8.26
   2  -5  26  208.42   17.56
   3  -5  26   19.08    9.51
   4  -5  26    2.31    9.15
   5  -5  26   99.62   15.24
  -6  -4  26   -0.64    5.65
  -5  -4  26   -4.67    4.43
  -4  -4  26   -3.16    4.56
  -3  -4  26   -1.70    3.95
  -2  -4  26    2.39    4.28
  -1  -4  26    3.04    4.27
   0  -4  26  171.68   15.75
   1  -4  26   -0.53    8.16
   2  -4  26    6.00    8.48
   3  -4  26   50.67   12.37
   4  -4  26   48.93   12.37
  -7  -3  26   98.36   13.09
  -6  -3  26    1.08    7.45
  -5  -3  26    4.19    5.01
  -4  -3  26   -9.90    3.98
  -3  -3  26    1.90    4.76
  -2  -3  26   -2.06    4.31
  -1  -3  26   -6.43    4.18
   0  -3  26   62.83   12.02
   1  -3  26    6.36    8.04
   2  -3  26   71.78   13.19
  -7  -2  26   57.37   11.44
  -6  -2  26   18.66    8.54
  -5  -2  26    3.23    4.57
  -4  -2  26   -3.57    4.62
  -3  -2  26    1.34    4.29
  -2  -2  26    1.02    4.54
  -1  -2  26   -3.68    4.58
   0  -2  26    4.80    5.11
   1  -2  26    5.92    9.15
  -7  -1  26    8.91    8.60
  -6  -1  26   16.79    9.07
  -5  -1  26   13.11    7.76
  -4  -1  26   -3.00    4.79
  -3  -1  26   -0.29    4.86
  -2  -1  26   -1.03    4.84
  -1  -1  26   -2.35    4.39
  -6   0  26    8.86    8.18
  -5   0  26   92.28   13.66
  -4   0  26   -4.13    4.76
   3 -12  27   23.49   11.13
   4 -12  27   48.47   12.34
   5 -12  27   24.65   11.35
   6 -12  27   13.94   12.05
   2 -11  27  -10.68    7.78
   3 -11  27    0.06    8.98
   4 -11  27   22.54   10.17
   5 -11  27   49.41   12.50
   6 -11  27   51.12   12.99
   0 -10  27    2.28    8.84
   1 -10  27    3.86    9.05
   2 -10  27   29.89   10.83
   3 -10  27  105.55   14.36
   4 -10  27    5.30    9.10
   5 -10  27   55.37   12.58
   6 -10  27   67.90   14.14
  -1  -9  27   -1.29    8.34
   0  -9  27    4.18    8.72
   1  -9  27  201.85   17.44
   2  -9  27   12.79    9.20
   3  -9  27   85.87   13.62
   4  -9  27   44.28   11.45
   5  -9  27   -1.33    9.17
   6  -9  27  163.99   18.26
  -2  -8  27   17.31    8.09
  -1  -8  27  216.28   18.07
   0  -8  27   -1.46    8.09
   1  -8  27  154.10   15.91
   2  -8  27   40.03   10.93
   3  -8  27   -0.07    8.78
   4  -8  27   74.85   13.33
   5  -8  27   42.00   12.15
   5  -8  27   12.78   13.20
   6  -8  27   33.12   14.33
  -2  -7  27    4.47    4.73
  -1  -7  27  141.89   15.69
   0  -7  27   -3.78    7.92
   1  -7  27   20.48    9.71
   2  -7  27    6.33    9.52
   3  -7  27   47.79   11.80
   4  -7  27   11.68   10.31
   5  -7  27   72.27   16.65
  -3  -6  27   -0.83    4.24
  -2  -6  27    0.32    4.44
  -1  -6  27    6.07    8.79
   0  -6  27   -9.34    7.77
   1  -6  27   60.76   12.32
   2  -6  27   21.22    9.87
   3  -6  27  262.09   20.52
  -3  -5  27   -2.84    4.25
  -2  -5  27   -1.25    4.83
  -1  -5  27    7.39    5.97
   0  -5  27    6.73    8.96
   1  -5  27  319.72   21.96
   2  -5  27    8.04    9.55
  -3  -4  27   -4.09    4.32
  -2  -4  27   -2.86    4.15
  -1  -4  27    1.65    4.72
   0  -4  27   -1.07    8.53
   0   0   0    0.00    0.00
;
_shelx_hkl_checksum              48400
loop_
_space_group_symop_operation_xyz
'x, y, z'
'-x, y, -z+1/2'
'x+1/2, y+1/2, z'
'-x+1/2, y+1/2, -z+1/2'
'-x, -y, -z'
'x, -y, z-1/2'
'-x+1/2, -y+1/2, -z'
'x+1/2, -y+1/2, z-1/2'
loop_
_atom_site_label
_atom_site_type_symbol
_atom_site_fract_x
_atom_site_fract_y
_atom_site_fract_z
_atom_site_U_iso_or_equiv
_atom_site_adp_type
_atom_site_occupancy
_atom_site_site_symmetry_order
_atom_site_calc_flag
_atom_site_refinement_flags_posn
_atom_site_refinement_flags_adp
_atom_site_refinement_flags_occupancy
_atom_site_disorder_assembly
_atom_site_disorder_group
Zn1 Zn 0.48880(2) 0.23237(3) 0.05801(2) 0.02359(13) Uani 1 1 d . . . . .
O1 O 0.48504(12) 0.3262(2) 0.13165(15) 0.0282(7) Uani 1 1 d D . . . .
H1A H 0.4562(12) 0.311(4) 0.135(2) 0.042 Uiso 1 1 d D U . . .
H1B H 0.5067(16) 0.333(4) 0.1723(12) 0.042 Uiso 1 1 d D U . . .
N1 N 0.53914(14) 0.1248(3) 0.11539(17) 0.0278(8) Uani 1 1 d . . . . .
N2 N 0.55216(14) 0.2811(3) 0.03720(18) 0.0288(8) Uani 1 1 d . . . . .
N3 N 0.43797(14) 0.3065(3) -0.02310(17) 0.0275(8) Uani 1 1 d . . . . .
N4 N 0.42486(14) 0.1462(3) 0.05503(17) 0.0278(8) Uani 1 1 d . . . . .
C1 C 0.52539(18) 0.0542(3) 0.1464(2) 0.0267(9) Uani 1 1 d . . . . .
C2 C 0.5653(2) -0.0213(3) 0.1686(2) 0.0341(11) Uani 1 1 d . . . . .
C3 C 0.6053(2) 0.0083(3) 0.1506(2) 0.0384(12) Uani 1 1 d . . . . .
C4 C 0.58995(19) 0.1019(3) 0.1187(2) 0.0347(11) Uani 1 1 d . . . . .
C5 C 0.6193(2) 0.1614(4) 0.0971(3) 0.0441(13) Uani 1 1 d . . . . .
H5A H 0.6551 0.1421 0.1068 0.053 Uiso 1 1 calc R U . . .
C6 C 0.6030(2) 0.2491(4) 0.0618(3) 0.0393(12) Uani 1 1 d . . . . .
C7 C 0.6363(2) 0.3130(4) 0.0422(3) 0.0493(14) Uani 1 1 d . . . . .
C8 C 0.60430(19) 0.3847(4) 0.0052(2) 0.0366(11) Uani 1 1 d . . . . .
C9 C 0.55164(17) 0.3624(3) 0.0006(2) 0.0287(10) Uani 1 1 d . . . . .
C10 C 0.50465(17) 0.4081(3) -0.0408(2) 0.0283(10) Uani 1 1 d . . . . .
H10A H 0.5090 0.4656 -0.0618 0.034 Uiso 1 1 calc R U . . .
C11 C 0.45238(17) 0.3799(3) -0.0552(2) 0.0270(9) Uani 1 1 d . . . . .
C12 C 0.40660(18) 0.4167(3) -0.1093(2) 0.0299(10) Uani 1 1 d . . . . .
C13 C 0.36368(18) 0.3638(3) -0.1106(2) 0.0325(10) Uani 1 1 d . . . . .
C14 C 0.38449(18) 0.2955(3) -0.0554(2) 0.0300(10) Uani 1 1 d . . . . .
C15 C 0.35424(19) 0.2261(3) -0.0381(2) 0.0344(11) Uani 1 1 d . . . . .
H15A H 0.3170 0.2267 -0.0644 0.041 Uiso 1 1 calc R U . . .
C16 C 0.37128(19) 0.1582(3) 0.0114(2) 0.0358(11) Uani 1 1 d . . . . .
C17 C 0.3385(2) 0.0914(4) 0.0303(2) 0.0443(13) Uani 1 1 d . . . . .
C18 C 0.37180(19) 0.0436(4) 0.0862(2) 0.0380(12) Uani 1 1 d . . . . .
C19 C 0.42501(18) 0.0808(3) 0.1000(2) 0.0297(10) Uani 1 1 d . . . . .
C20 C 0.47515(17) 0.0569(3) 0.1566(2) 0.0264(9) Uani 1 1 d . . . . .
C21 C 0.5586(2) -0.1172(3) 0.1963(2) 0.0375(11) Uani 1 1 d . . . . .
H21A H 0.5401 -0.1085 0.2272 0.045 Uiso 1 1 calc R U . . .
H21B H 0.5942 -0.1453 0.2220 0.045 Uiso 1 1 calc R U . . .
C22 C 0.5266(3) -0.1853(4) 0.1401(3) 0.0548(15) Uani 1 1 d . . . . .
H22A H 0.5207 -0.2459 0.1592 0.082 Uiso 1 1 calc R U . . .
H22B H 0.5464 -0.1980 0.1115 0.082 Uiso 1 1 calc R U . . .
H22C H 0.4921 -0.1560 0.1133 0.082 Uiso 1 1 calc R U . . .
C23 C 0.6561(2) -0.0438(4) 0.1605(3) 0.0514(15) Uani 1 1 d . . . . .
H23A H 0.6490 -0.1138 0.1565 0.062 Uiso 1 1 calc R U . . .
H23B H 0.6680 -0.0249 0.1246 0.062 Uiso 1 1 calc R U . . .
C24 C 0.6996(2) -0.0236(5) 0.2265(3) 0.0648(18) Uani 1 1 d . . . . .
H24A H 0.7326 -0.0540 0.2284 0.097 Uiso 1 1 calc R U . . .
H24B H 0.6898 -0.0496 0.2623 0.097 Uiso 1 1 calc R U . . .
H24C H 0.7049 0.0460 0.2323 0.097 Uiso 1 1 calc R U . . .
C25 C 0.6927(3) 0.2943(6) 0.0558(4) 0.0314(15) Uani 0.69 1 d . . P A 1
H25A H 0.7017 0.3190 0.0186 0.038 Uiso 0.69 1 calc R U P A 1
H25B H 0.6998 0.2244 0.0600 0.038 Uiso 0.69 1 calc R U P A 1
C26 C 0.7267(3) 0.3451(6) 0.1212(4) 0.0410(18) Uani 0.69 1 d . . P A 1
H26A H 0.7645 0.3306 0.1325 0.062 Uiso 0.69 1 calc R U P A 1
H26B H 0.7163 0.3226 0.1573 0.062 Uiso 0.69 1 calc R U P A 1
H26C H 0.7211 0.4147 0.1157 0.062 Uiso 0.69 1 calc R U P A 1
C25A C 0.7024(8) 0.3305(15) 0.0834(11) 0.032(4) Uiso 0.31 1 d . . P A 2
H25C H 0.7126 0.3985 0.0820 0.039 Uiso 0.31 1 calc R U P A 2
H25D H 0.7151 0.3087 0.1306 0.039 Uiso 0.31 1 calc R U P A 2
C26A C 0.7222(8) 0.2667(14) 0.0419(10) 0.052(5) Uiso 0.31 1 d . . P A 2
H26D H 0.7612 0.2695 0.0593 0.078 Uiso 0.31 1 calc R U P A 2
H26E H 0.7074 0.2888 -0.0047 0.078 Uiso 0.31 1 calc R U P A 2
H26F H 0.7108 0.2004 0.0441 0.078 Uiso 0.31 1 calc R U P A 2
C27 C 0.61853(19) 0.4656(4) -0.0308(2) 0.0412(12) Uani 1 1 d . . . . .
H27A H 0.6563 0.4838 -0.0060 0.049 Uiso 1 1 calc R U . . .
H27B H 0.5962 0.5223 -0.0320 0.049 Uiso 1 1 calc R U . . .
C28 C 0.6102(2) 0.4375(4) -0.1021(3) 0.0528(15) Uani 1 1 d . . . . .
H28A H 0.6196 0.4918 -0.1242 0.079 Uiso 1 1 calc R U . . .
H28B H 0.5727 0.4202 -0.1269 0.079 Uiso 1 1 calc R U . . .
H28C H 0.6330 0.3823 -0.1010 0.079 Uiso 1 1 calc R U . . .
C29 C 0.40819(19) 0.4924(3) -0.1577(2) 0.0339(11) Uani 1 1 d . . . . .
H29A H 0.4305 0.5468 -0.1325 0.041 Uiso 1 1 calc R U . . .
H29B H 0.3716 0.5170 -0.1827 0.041 Uiso 1 1 calc R U . . .
C30 C 0.4310(2) 0.4531(4) -0.2077(2) 0.0416(12) Uani 1 1 d . . . . .
H30A H 0.4311 0.5042 -0.2387 0.062 Uiso 1 1 calc R U . . .
H30B H 0.4089 0.3996 -0.2329 0.062 Uiso 1 1 calc R U . . .
H30C H 0.4676 0.4305 -0.1831 0.062 Uiso 1 1 calc R U . . .
C31 C 0.30724(18) 0.3711(4) -0.1605(2) 0.0379(11) Uani 1 1 d . . . . .
H31A H 0.2983 0.4396 -0.1717 0.046 Uiso 1 1 calc R U . . .
H31B H 0.2830 0.3461 -0.1401 0.046 Uiso 1 1 calc R U . . .
C32 C 0.2979(2) 0.3159(5) -0.2243(3) 0.0644(18) Uani 1 1 d . . . . .
H32A H 0.2604 0.3217 -0.2547 0.097 Uiso 1 1 calc R U . . .
H32B H 0.3067 0.2480 -0.2136 0.097 Uiso 1 1 calc R U . . .
H32C H 0.3206 0.3422 -0.2459 0.097 Uiso 1 1 calc R U . . .
C33A C 0.2762(3) 0.0886(7) -0.0011(5) 0.033(2) Uani 0.62 1 d . . P B 1
H33A H 0.2621 0.0841 0.0347 0.040 Uiso 0.62 1 calc R U P B 1
H33B H 0.2620 0.1479 -0.0271 0.040 Uiso 0.62 1 calc R U P B 1
C34A C 0.2589(3) 0.0008(6) -0.0468(4) 0.041(2) Uani 0.62 1 d . . P B 1
H34A H 0.2201 0.0015 -0.0709 0.062 Uiso 0.62 1 calc R U P B 1
H34B H 0.2695 -0.0579 -0.0198 0.062 Uiso 0.62 1 calc R U P B 1
H34C H 0.2761 0.0023 -0.0790 0.062 Uiso 0.62 1 calc R U P B 1
C33B C 0.2860(7) 0.0592(13) -0.0128(8) 0.036(5) Uiso 0.38 1 d . . P B 2
H33C H 0.2811 -0.0102 -0.0068 0.044 Uiso 0.38 1 calc R U P B 2
H33D H 0.2786 0.0722 -0.0605 0.044 Uiso 0.38 1 calc R U P B 2
C34B C 0.2521(6) 0.1201(10) 0.0121(7) 0.042(3) Uiso 0.38 1 d . . P B 2
H34D H 0.2143 0.1082 -0.0153 0.063 Uiso 0.38 1 calc R U P B 2
H34E H 0.2603 0.1881 0.0091 0.063 Uiso 0.38 1 calc R U P B 2
H34F H 0.2595 0.1037 0.0589 0.063 Uiso 0.38 1 calc R U P B 2
C35 C 0.3567(2) -0.0348(4) 0.1233(3) 0.0423(12) Uani 1 1 d . . . . .
H35A H 0.3173 -0.0371 0.1076 0.051 Uiso 1 1 calc R U . . .
H35B H 0.3712 -0.0190 0.1716 0.051 Uiso 1 1 calc R U . . .
C36 C 0.3766(3) -0.1329(4) 0.1142(3) 0.0587(16) Uani 1 1 d . . . . .
H36A H 0.3658 -0.1804 0.1398 0.088 Uiso 1 1 calc R U . . .
H36B H 0.4157 -0.1317 0.1302 0.088 Uiso 1 1 calc R U . . .
H36C H 0.3614 -0.1502 0.0666 0.088 Uiso 1 1 calc R U . . .
C37 C 0.47607(17) 0.0503(3) 0.2199(2) 0.0260(9) Uani 1 1 d . . . . .
H37A H 0.4429 0.0453 0.2246 0.031 Uiso 1 1 calc R U . . .
Sb1 Sb 0.35188(2) 0.28580(2) 0.19856(2) 0.03516(12) Uani 1 1 d . . . . .
F1 F 0.38179(12) 0.2943(2) 0.13405(16) 0.0530(8) Uani 1 1 d . . . . .
F2 F 0.28513(12) 0.2599(3) 0.13246(17) 0.0620(9) Uani 1 1 d . . . . .
F3 F 0.33676(13) 0.4173(2) 0.18877(15) 0.0532(8) Uani 1 1 d . . . . .
F4 F 0.3251(2) 0.2813(3) 0.26510(19) 0.0824(13) Uani 1 1 d . . . . .
F5 F 0.42011(15) 0.3119(3) 0.26342(19) 0.0831(13) Uani 1 1 d . . . . .
F6 F 0.36589(12) 0.1552(2) 0.20920(15) 0.0497(8) Uani 1 1 d . . . . .
loop_
_atom_site_aniso_label
_atom_site_aniso_U_11
_atom_site_aniso_U_22
_atom_site_aniso_U_33
_atom_site_aniso_U_23
_atom_site_aniso_U_13
_atom_site_aniso_U_12
Zn1 0.0275(3) 0.0243(3) 0.0207(3) 0.00171(19) 0.0113(2) -0.0024(2)
O1 0.0259(16) 0.0324(17) 0.0276(16) -0.0050(14) 0.0120(13) -0.0036(14)
N1 0.038(2) 0.0252(19) 0.0250(19) 0.0025(15) 0.0172(16) 0.0013(16)
N2 0.033(2) 0.031(2) 0.028(2) 0.0061(16) 0.0177(17) 0.0021(16)
N3 0.0282(19) 0.031(2) 0.0230(18) 0.0000(15) 0.0100(15) -0.0048(16)
N4 0.032(2) 0.0274(19) 0.0215(18) -0.0006(15) 0.0078(15) -0.0105(16)
C1 0.040(2) 0.023(2) 0.019(2) -0.0016(17) 0.0134(19) 0.0004(19)
C2 0.055(3) 0.026(2) 0.029(2) 0.0004(19) 0.025(2) 0.010(2)
C3 0.054(3) 0.037(3) 0.035(3) 0.005(2) 0.029(2) 0.018(2)
C4 0.045(3) 0.035(3) 0.035(3) 0.006(2) 0.028(2) 0.008(2)
C5 0.044(3) 0.055(3) 0.048(3) 0.020(3) 0.035(2) 0.022(3)
C6 0.042(3) 0.042(3) 0.050(3) 0.015(2) 0.035(2) 0.008(2)
C7 0.038(3) 0.064(4) 0.060(3) 0.028(3) 0.035(3) 0.015(3)
C8 0.039(3) 0.041(3) 0.037(3) 0.010(2) 0.023(2) 0.004(2)
C9 0.034(2) 0.030(2) 0.030(2) 0.0017(19) 0.0207(19) -0.0025(19)
C10 0.034(2) 0.027(2) 0.025(2) 0.0010(18) 0.0134(19) -0.0021(19)
C11 0.035(2) 0.027(2) 0.020(2) 0.0012(17) 0.0120(18) -0.0016(19)
C12 0.035(2) 0.030(2) 0.025(2) 0.0000(19) 0.0115(19) -0.0037(19)
C13 0.036(3) 0.033(2) 0.027(2) 0.0017(19) 0.010(2) 0.002(2)
C14 0.034(2) 0.032(2) 0.022(2) -0.0038(18) 0.0079(18) -0.0039(19)
C15 0.033(2) 0.041(3) 0.023(2) -0.001(2) 0.0038(19) -0.007(2)
C16 0.037(3) 0.040(3) 0.025(2) -0.002(2) 0.007(2) -0.015(2)
C17 0.041(3) 0.051(3) 0.035(3) 0.004(2) 0.008(2) -0.024(2)
C18 0.038(3) 0.041(3) 0.030(3) 0.001(2) 0.008(2) -0.019(2)
C19 0.038(2) 0.030(2) 0.022(2) -0.0047(18) 0.0133(19) -0.011(2)
C20 0.037(2) 0.018(2) 0.027(2) -0.0025(17) 0.0146(19) -0.0045(18)
C21 0.060(3) 0.026(2) 0.036(3) 0.005(2) 0.030(2) 0.010(2)
C22 0.081(4) 0.032(3) 0.060(4) -0.006(3) 0.036(3) -0.001(3)
C23 0.070(4) 0.043(3) 0.057(4) 0.019(3) 0.042(3) 0.031(3)
C24 0.037(3) 0.058(4) 0.103(5) -0.032(4) 0.030(3) -0.002(3)
C25 0.034(4) 0.026(4) 0.045(4) -0.002(4) 0.026(3) 0.000(3)
C26 0.027(4) 0.058(5) 0.041(4) 0.003(4) 0.017(4) -0.003(3)
C27 0.034(3) 0.050(3) 0.045(3) 0.016(2) 0.022(2) -0.002(2)
C28 0.062(4) 0.058(4) 0.053(3) 0.016(3) 0.039(3) -0.006(3)
C29 0.039(3) 0.032(2) 0.028(2) 0.007(2) 0.010(2) 0.006(2)
C30 0.054(3) 0.039(3) 0.037(3) 0.009(2) 0.022(2) 0.001(2)
C31 0.034(3) 0.038(3) 0.035(3) 0.008(2) 0.005(2) 0.001(2)
C32 0.056(4) 0.060(4) 0.050(3) -0.013(3) -0.010(3) 0.011(3)
C33A 0.025(4) 0.024(4) 0.055(6) 0.000(4) 0.019(4) -0.001(4)
C34A 0.025(4) 0.057(5) 0.043(5) -0.017(4) 0.014(3) -0.016(4)
C35 0.037(3) 0.045(3) 0.041(3) 0.004(2) 0.010(2) -0.020(2)
C36 0.078(4) 0.048(3) 0.054(4) 0.000(3) 0.030(3) -0.022(3)
C37 0.036(2) 0.018(2) 0.027(2) 0.0011(17) 0.0158(18) -0.0025(18)
Sb1 0.03473(19) 0.0408(2) 0.02908(19) -0.00449(13) 0.01142(14) -0.00651(14)
F1 0.0519(19) 0.059(2) 0.064(2) -0.0018(16) 0.0399(17) -0.0067(15)
F2 0.0307(16) 0.081(2) 0.062(2) -0.0013(18) 0.0042(14) -0.0181(16)
F3 0.066(2) 0.0447(18) 0.0551(19) 0.0021(15) 0.0310(16) 0.0037(15)
F4 0.147(4) 0.067(3) 0.063(2) -0.0009(18) 0.073(3) -0.002(2)
F5 0.063(2) 0.063(2) 0.072(2) 0.0047(19) -0.0298(19) -0.0156(19)
F6 0.0625(19) 0.0344(16) 0.0582(19) -0.0047(14) 0.0299(16) -0.0075(14)
loop_
_atom_type_symbol
_atom_type_description
_atom_type_scat_dispersion_real
_atom_type_scat_dispersion_imag
_atom_type_scat_source
C C 0.0033 0.0016 'International Tables Vol C Tables 4.2.6.8 and 6.1.1.4'
H H 0.0000 0.0000 'International Tables Vol C Tables 4.2.6.8 and 6.1.1.4'
N N 0.0061 0.0033 'International Tables Vol C Tables 4.2.6.8 and 6.1.1.4'
F F 0.0171 0.0103 'International Tables Vol C Tables 4.2.6.8 and 6.1.1.4'
Zn Zn 0.2839 1.4301 'International Tables Vol C Tables 4.2.6.8 and 6.1.1.4'
Sb Sb -0.5866 1.5461 'International Tables Vol C Tables 4.2.6.8 and 6.1.1.4'
O O 0.0106 0.0060 'International Tables Vol C Tables 4.2.6.8 and 6.1.1.4'
loop_
_geom_angle_atom_site_label_1
_geom_angle_atom_site_label_2
_geom_angle_atom_site_label_3
_geom_angle
_geom_angle_site_symmetry_1
_geom_angle_site_symmetry_3
N3 Zn1 N2 89.39(14) . .
N3 Zn1 N1 160.77(14) . .
N2 Zn1 N1 87.45(14) . .
N3 Zn1 N4 89.22(14) . .
N2 Zn1 N4 159.78(15) . .
N1 Zn1 N4 87.26(14) . .
N3 Zn1 O1 97.11(13) . .
N2 Zn1 O1 104.76(13) . .
N1 Zn1 O1 102.04(13) . .
N4 Zn1 O1 95.43(13) . .
Zn1 O1 H1A 104(4) . .
Zn1 O1 H1B 130(4) . .
H1A O1 H1B 103(5) . .
C1 N1 C4 106.0(4) . .
C1 N1 Zn1 125.9(3) . .
C4 N1 Zn1 127.1(3) . .
C6 N2 C9 106.2(4) . .
C6 N2 Zn1 128.4(3) . .
C9 N2 Zn1 125.0(3) . .
C14 N3 C11 106.4(3) . .
C14 N3 Zn1 128.2(3) . .
C11 N3 Zn1 125.4(3) . .
C19 N4 C16 106.3(4) . .
C19 N4 Zn1 127.0(3) . .
C16 N4 Zn1 125.8(3) . .
N1 C1 C2 112.5(4) . .
N1 C1 C20 121.4(4) . .
C2 C1 C20 126.1(4) . .
C3 C2 C1 105.4(4) . .
C3 C2 C21 128.3(4) . .
C1 C2 C21 125.7(4) . .
C2 C3 C4 107.2(4) . .
C2 C3 C23 127.6(5) . .
C4 C3 C23 125.2(5) . .
C5 C4 N1 123.4(4) . .
C5 C4 C3 127.8(5) . .
N1 C4 C3 108.8(4) . .
C4 C5 C6 127.5(5) . .
C4 C5 H5A 116.2 . .
C6 C5 H5A 116.2 . .
N2 C6 C5 123.8(4) . .
N2 C6 C7 110.1(4) . .
C5 C6 C7 125.9(5) . .
C8 C7 C6 107.1(4) . .
C8 C7 C25 128.8(5) . .
C6 C7 C25 123.9(5) . .
C8 C7 C25A 120.8(8) . .
C6 C7 C25A 126.4(7) . .
C7 C8 C9 106.0(4) . .
C7 C8 C27 128.3(4) . .
C9 C8 C27 125.4(4) . .
N2 C9 C10 123.1(4) . .
N2 C9 C8 110.6(4) . .
C10 C9 C8 125.9(4) . .
C11 C10 C9 128.0(4) . .
C11 C10 H10A 116.0 . .
C9 C10 H10A 116.0 . .
N3 C11 C10 124.4(4) . .
N3 C11 C12 110.6(4) . .
C10 C11 C12 124.8(4) . .
C13 C12 C11 106.7(4) . .
C13 C12 C29 128.2(4) . .
C11 C12 C29 124.8(4) . .
C12 C13 C14 106.1(4) . .
C12 C13 C31 127.1(4) . .
C14 C13 C31 126.7(4) . .
N3 C14 C15 124.1(4) . .
N3 C14 C13 110.2(4) . .
C15 C14 C13 125.7(4) . .
C16 C15 C14 128.8(4) . .
C16 C15 H15A 115.6 . .
C14 C15 H15A 115.6 . .
C15 C16 N4 123.8(4) . .
C15 C16 C17 127.2(4) . .
N4 C16 C17 109.0(4) . .
C18 C17 C33B 124.8(8) . .
C18 C17 C16 106.9(4) . .
C33B C17 C16 125.3(8) . .
C18 C17 C33A 127.3(5) . .
C16 C17 C33A 125.0(5) . .
C17 C18 C19 105.9(4) . .
C17 C18 C35 126.9(4) . .
C19 C18 C35 127.2(4) . .
N4 C19 C18 111.9(4) . .
N4 C19 C20 120.1(4) . .
C18 C19 C20 128.0(4) . .
C37 C20 C1 119.7(4) . .
C37 C20 C19 120.0(4) . .
C1 C20 C19 119.7(4) . .
C2 C21 C22 110.7(4) . .
C2 C21 H21A 109.5 . .
C22 C21 H21A 109.5 . .
C2 C21 H21B 109.5 . .
C22 C21 H21B 109.5 . .
H21A C21 H21B 108.1 . .
C21 C22 H22A 109.5 . .
C21 C22 H22B 109.5 . .
H22A C22 H22B 109.5 . .
C21 C22 H22C 109.5 . .
H22A C22 H22C 109.5 . .
H22B C22 H22C 109.5 . .
C24 C23 C3 113.0(4) . .
C24 C23 H23A 109.0 . .
C3 C23 H23A 109.0 . .
C24 C23 H23B 109.0 . .
C3 C23 H23B 109.0 . .
H23A C23 H23B 107.8 . .
C23 C24 H24A 109.5 . .
C23 C24 H24B 109.5 . .
H24A C24 H24B 109.5 . .
C23 C24 H24C 109.5 . .
H24A C24 H24C 109.5 . .
H24B C24 H24C 109.5 . .
C7 C25 C26 108.2(6) . .
C7 C25 H25A 110.1 . .
C26 C25 H25A 110.1 . .
C7 C25 H25B 110.1 . .
C26 C25 H25B 110.1 . .
H25A C25 H25B 108.4 . .
C25 C26 H26A 109.5 . .
C25 C26 H26B 109.5 . .
H26A C26 H26B 109.5 . .
C25 C26 H26C 109.5 . .
H26A C26 H26C 109.5 . .
H26B C26 H26C 109.5 . .
C26A C25A C7 98.8(16) . .
C26A C25A H25C 112.0 . .
C7 C25A H25C 112.0 . .
C26A C25A H25D 112.0 . .
C7 C25A H25D 112.0 . .
H25C C25A H25D 109.7 . .
C25A C26A H26D 109.5 . .
C25A C26A H26E 109.5 . .
H26D C26A H26E 109.5 . .
C25A C26A H26F 109.5 . .
H26D C26A H26F 109.5 . .
H26E C26A H26F 109.5 . .
C8 C27 C28 111.5(4) . .
C8 C27 H27A 109.3 . .
C28 C27 H27A 109.3 . .
C8 C27 H27B 109.3 . .
C28 C27 H27B 109.3 . .
H27A C27 H27B 108.0 . .
C27 C28 H28A 109.5 . .
C27 C28 H28B 109.5 . .
H28A C28 H28B 109.5 . .
C27 C28 H28C 109.5 . .
H28A C28 H28C 109.5 . .
H28B C28 H28C 109.5 . .
C12 C29 C30 111.8(4) . .
C12 C29 H29A 109.3 . .
C30 C29 H29A 109.3 . .
C12 C29 H29B 109.3 . .
C30 C29 H29B 109.3 . .
H29A C29 H29B 107.9 . .
C29 C30 H30A 109.5 . .
C29 C30 H30B 109.5 . .
H30A C30 H30B 109.5 . .
C29 C30 H30C 109.5 . .
H30A C30 H30C 109.5 . .
H30B C30 H30C 109.5 . .
C13 C31 C32 112.7(4) . .
C13 C31 H31A 109.0 . .
C32 C31 H31A 109.0 . .
C13 C31 H31B 109.0 . .
C32 C31 H31B 109.0 . .
H31A C31 H31B 107.8 . .
C31 C32 H32A 109.5 . .
C31 C32 H32B 109.5 . .
H32A C32 H32B 109.5 . .
C31 C32 H32C 109.5 . .
H32A C32 H32C 109.5 . .
H32B C32 H32C 109.5 . .
C34A C33A C17 108.1(8) . .
C34A C33A H33A 110.1 . .
C17 C33A H33A 110.1 . .
C34A C33A H33B 110.1 . .
C17 C33A H33B 110.1 . .
H33A C33A H33B 108.4 . .
C33A C34A H34A 109.5 . .
C33A C34A H34B 109.5 . .
H34A C34A H34B 109.5 . .
C33A C34A H34C 109.5 . .
H34A C34A H34C 109.5 . .
H34B C34A H34C 109.5 . .
C17 C33B C34B 100.6(12) . .
C17 C33B H33C 111.7 . .
C34B C33B H33C 111.7 . .
C17 C33B H33D 111.7 . .
C34B C33B H33D 111.7 . .
H33C C33B H33D 109.4 . .
C33B C34B H34D 109.5 . .
C33B C34B H34E 109.5 . .
H34D C34B H34E 109.5 . .
C33B C34B H34F 109.5 . .
H34D C34B H34F 109.5 . .
H34E C34B H34F 109.5 . .
C18 C35 C36 113.5(5) . .
C18 C35 H35A 108.9 . .
C36 C35 H35A 108.9 . .
C18 C35 H35B 108.9 . .
C36 C35 H35B 108.9 . .
H35A C35 H35B 107.7 . .
C35 C36 H36A 109.5 . .
C35 C36 H36B 109.5 . .
H36A C36 H36B 109.5 . .
C35 C36 H36C 109.5 . .
H36A C36 H36C 109.5 . .
H36B C36 H36C 109.5 . .
C20 C37 C37 124.5(5) . 2_655
C20 C37 H37A 117.8 . .
C37 C37 H37A 117.8 2_655 .
F4 Sb1 F6 89.66(15) . .
F4 Sb1 F2 91.84(19) . .
F6 Sb1 F2 89.85(15) . .
F4 Sb1 F3 89.19(15) . .
F6 Sb1 F3 178.79(14) . .
F2 Sb1 F3 89.82(15) . .
F4 Sb1 F1 177.10(17) . .
F6 Sb1 F1 91.55(13) . .
F2 Sb1 F1 90.80(15) . .
F3 Sb1 F1 89.62(13) . .
F4 Sb1 F5 89.8(2) . .
F6 Sb1 F5 90.05(15) . .
F2 Sb1 F5 178.35(18) . .
F3 Sb1 F5 90.32(15) . .
F1 Sb1 F5 87.55(18) . .
loop_
_geom_bond_atom_site_label_1
_geom_bond_atom_site_label_2
_geom_bond_distance
_geom_bond_site_symmetry_2
Zn1 N3 2.044(4) .
Zn1 N2 2.058(4) .
Zn1 N1 2.083(4) .
Zn1 N4 2.092(3) .
Zn1 O1 2.096(3) .
O1 H1A 0.843(19) .
O1 H1B 0.854(19) .
N1 C1 1.324(5) .
N1 C4 1.393(6) .
N2 C6 1.349(6) .
N2 C9 1.379(5) .
N3 C14 1.356(5) .
N3 C11 1.376(5) .
N4 C19 1.333(5) .
N4 C16 1.405(6) .
C1 C2 1.451(6) .
C1 C20 1.467(6) .
C2 C3 1.353(7) .
C2 C21 1.503(6) .
C3 C4 1.458(6) .
C3 C23 1.501(7) .
C4 C5 1.354(7) .
C5 C6 1.417(7) .
C5 H5A 0.9500 .
C6 C7 1.446(7) .
C7 C8 1.362(7) .
C7 C25 1.469(8) .
C7 C25A 1.69(2) .
C8 C9 1.431(6) .
C8 C27 1.504(6) .
C9 C10 1.397(6) .
C10 C11 1.389(6) .
C10 H10A 0.9500 .
C11 C12 1.432(6) .
C12 C13 1.370(6) .
C12 C29 1.500(6) .
C13 C14 1.460(6) .
C13 C31 1.499(6) .
C14 C15 1.410(6) .
C15 C16 1.370(6) .
C15 H15A 0.9500 .
C16 C17 1.453(6) .
C17 C18 1.370(7) .
C17 C33B 1.440(17) .
C17 C33A 1.562(10) .
C18 C19 1.455(6) .
C18 C35 1.505(6) .
C19 C20 1.474(6) .
C20 C37 1.368(6) .
C21 C22 1.522(7) .
C21 H21A 0.9900 .
C21 H21B 0.9900 .
C22 H22A 0.9800 .
C22 H22B 0.9800 .
C22 H22C 0.9800 .
C23 C24 1.486(8) .
C23 H23A 0.9900 .
C23 H23B 0.9900 .
C24 H24A 0.9800 .
C24 H24B 0.9800 .
C24 H24C 0.9800 .
C25 C26 1.531(10) .
C25 H25A 0.9900 .
C25 H25B 0.9900 .
C26 H26A 0.9800 .
C26 H26B 0.9800 .
C26 H26C 0.9800 .
C25A C26A 1.50(3) .
C25A H25C 0.9900 .
C25A H25D 0.9900 .
C26A H26D 0.9800 .
C26A H26E 0.9800 .
C26A H26F 0.9800 .
C27 C28 1.523(7) .
C27 H27A 0.9900 .
C27 H27B 0.9900 .
C28 H28A 0.9800 .
C28 H28B 0.9800 .
C28 H28C 0.9800 .
C29 C30 1.544(7) .
C29 H29A 0.9900 .
C29 H29B 0.9900 .
C30 H30A 0.9800 .
C30 H30B 0.9800 .
C30 H30C 0.9800 .
C31 C32 1.515(7) .
C31 H31A 0.9900 .
C31 H31B 0.9900 .
C32 H32A 0.9800 .
C32 H32B 0.9800 .
C32 H32C 0.9800 .
C33A C34A 1.528(12) .
C33A H33A 0.9900 .
C33A H33B 0.9900 .
C34A H34A 0.9800 .
C34A H34B 0.9800 .
C34A H34C 0.9800 .
C33B C34B 1.50(2) .
C33B H33C 0.9900 .
C33B H33D 0.9900 .
C34B H34D 0.9800 .
C34B H34E 0.9800 .
C34B H34F 0.9800 .
C35 C36 1.509(8) .
C35 H35A 0.9900 .
C35 H35B 0.9900 .
C36 H36A 0.9800 .
C36 H36B 0.9800 .
C36 H36C 0.9800 .
C37 C37 1.440(8) 2_655
C37 H37A 0.9500 .
Sb1 F4 1.852(3) .
Sb1 F6 1.853(3) .
Sb1 F2 1.859(3) .
Sb1 F3 1.870(3) .
Sb1 F1 1.875(3) .
Sb1 F5 1.877(3) .
loop_
_geom_hbond_atom_site_label_D
_geom_hbond_atom_site_label_H
_geom_hbond_atom_site_label_A
_geom_hbond_distance_DH
_geom_hbond_distance_HA
_geom_hbond_distance_DA
_geom_hbond_angle_DHA
_geom_hbond_site_symmetry_A
O1 H1A F1 0.843(19) 2.03(2) 2.864(4) 171(5) .
O1 H1B F5 0.854(19) 1.96(3) 2.703(4) 145(5) 2_655
loop_
_geom_torsion_atom_site_label_1
_geom_torsion_atom_site_label_2
_geom_torsion_atom_site_label_3
_geom_torsion_atom_site_label_4
_geom_torsion
_geom_torsion_site_symmetry_4
C4 N1 C1 C2 -3.1(5) .
Zn1 N1 C1 C2 166.2(3) .
C4 N1 C1 C20 176.1(4) .
Zn1 N1 C1 C20 -14.6(6) .
N1 C1 C2 C3 1.4(5) .
C20 C1 C2 C3 -177.7(4) .
N1 C1 C2 C21 -170.7(4) .
C20 C1 C2 C21 10.2(7) .
C1 C2 C3 C4 0.8(5) .
C21 C2 C3 C4 172.7(5) .
C1 C2 C3 C23 -178.7(5) .
C21 C2 C3 C23 -6.9(9) .
C1 N1 C4 C5 -174.3(5) .
Zn1 N1 C4 C5 16.5(7) .
C1 N1 C4 C3 3.5(5) .
Zn1 N1 C4 C3 -165.6(3) .
C2 C3 C4 C5 175.0(5) .
C23 C3 C4 C5 -5.4(9) .
C2 C3 C4 N1 -2.7(5) .
C23 C3 C4 N1 176.9(5) .
N1 C4 C5 C6 -7.5(9) .
C3 C4 C5 C6 175.1(5) .
C9 N2 C6 C5 -173.8(5) .
Zn1 N2 C6 C5 13.5(8) .
C9 N2 C6 C7 1.7(6) .
Zn1 N2 C6 C7 -171.0(4) .
C4 C5 C6 N2 -8.2(9) .
C4 C5 C6 C7 177.0(6) .
N2 C6 C7 C8 0.1(7) .
C5 C6 C7 C8 175.6(5) .
N2 C6 C7 C25 -174.5(6) .
C5 C6 C7 C25 0.9(10) .
N2 C6 C7 C25A 153.4(10) .
C5 C6 C7 C25A -31.2(13) .
C6 C7 C8 C9 -1.9(6) .
C25 C7 C8 C9 172.5(7) .
C25A C7 C8 C9 -156.9(9) .
C6 C7 C8 C27 -175.6(5) .
C25 C7 C8 C27 -1.3(11) .
C25A C7 C8 C27 29.4(12) .
C6 N2 C9 C10 170.2(4) .
Zn1 N2 C9 C10 -16.8(6) .
C6 N2 C9 C8 -2.9(5) .
Zn1 N2 C9 C8 170.1(3) .
C7 C8 C9 N2 3.0(6) .
C27 C8 C9 N2 177.0(4) .
C7 C8 C9 C10 -169.8(5) .
C27 C8 C9 C10 4.2(8) .
N2 C9 C10 C11 -3.4(7) .
C8 C9 C10 C11 168.6(5) .
C14 N3 C11 C10 -174.4(4) .
Zn1 N3 C11 C10 6.3(6) .
C14 N3 C11 C12 0.3(5) .
Zn1 N3 C11 C12 -179.0(3) .
C9 C10 C11 N3 9.1(7) .
C9 C10 C11 C12 -164.8(4) .
N3 C11 C12 C13 -0.8(5) .
C10 C11 C12 C13 173.9(4) .
N3 C11 C12 C29 -175.7(4) .
C10 C11 C12 C29 -1.1(7) .
C11 C12 C13 C14 1.0(5) .
C29 C12 C13 C14 175.7(4) .
C11 C12 C13 C31 -176.2(4) .
C29 C12 C13 C31 -1.5(8) .
C11 N3 C14 C15 179.2(4) .
Zn1 N3 C14 C15 -1.6(7) .
C11 N3 C14 C13 0.3(5) .
Zn1 N3 C14 C13 179.6(3) .
C12 C13 C14 N3 -0.8(5) .
C31 C13 C14 N3 176.4(4) .
C12 C13 C14 C15 -179.7(4) .
C31 C13 C14 C15 -2.4(8) .
N3 C14 C15 C16 -0.9(8) .
C13 C14 C15 C16 177.8(5) .
C14 C15 C16 N4 -0.3(8) .
C14 C15 C16 C17 176.1(5) .
C19 N4 C16 C15 173.8(5) .
Zn1 N4 C16 C15 3.7(7) .
C19 N4 C16 C17 -3.3(5) .
Zn1 N4 C16 C17 -173.3(3) .
C15 C16 C17 C18 -174.3(5) .
N4 C16 C17 C18 2.6(6) .
C15 C16 C17 C33B 24.4(12) .
N4 C16 C17 C33B -158.7(9) .
C15 C16 C17 C33A -3.1(10) .
N4 C16 C17 C33A 173.7(6) .
C33B C17 C18 C19 160.5(9) .
C16 C17 C18 C19 -1.0(6) .
C33A C17 C18 C19 -171.8(7) .
C33B C17 C18 C35 -16.8(12) .
C16 C17 C18 C35 -178.2(5) .
C33A C17 C18 C35 11.0(10) .
C16 N4 C19 C18 2.7(5) .
Zn1 N4 C19 C18 172.6(3) .
C16 N4 C19 C20 -175.4(4) .
Zn1 N4 C19 C20 -5.5(6) .
C17 C18 C19 N4 -1.1(6) .
C35 C18 C19 N4 176.1(5) .
C17 C18 C19 C20 176.8(5) .
C35 C18 C19 C20 -6.0(8) .
N1 C1 C20 C37 -123.0(4) .
C2 C1 C20 C37 56.0(6) .
N1 C1 C20 C19 48.0(6) .
C2 C1 C20 C19 -132.9(4) .
N4 C19 C20 C37 134.4(4) .
C18 C19 C20 C37 -43.3(7) .
N4 C19 C20 C1 -36.6(6) .
C18 C19 C20 C1 145.6(5) .
C3 C2 C21 C22 -91.1(6) .
C1 C2 C21 C22 79.2(6) .
C2 C3 C23 C24 -87.7(7) .
C4 C3 C23 C24 92.8(6) .
C8 C7 C25 C26 92.2(8) .
C6 C7 C25 C26 -94.3(8) .
C25A C7 C25 C26 10.5(15) .
C8 C7 C25A C26A -110.4(12) .
C6 C7 C25A C26A 99.6(13) .
C25 C7 C25A C26A 5.7(11) .
C7 C8 C27 C28 89.3(7) .
C9 C8 C27 C28 -83.3(6) .
C13 C12 C29 C30 -100.9(6) .
C11 C12 C29 C30 72.9(6) .
C12 C13 C31 C32 81.9(6) .
C14 C13 C31 C32 -94.7(6) .
C18 C17 C33A C34A -84.5(9) .
C33B C17 C33A C34A 8(2) .
C16 C17 C33A C34A 106.2(7) .
C18 C17 C33B C34B 100.0(12) .
C16 C17 C33B C34B -101.9(12) .
C33A C17 C33B C34B -4.5(15) .
C17 C18 C35 C36 108.5(6) .
C19 C18 C35 C36 -68.1(7) .
C1 C20 C37 C37 6.5(5) 2_655
C19 C20 C37 C37 -164.5(3) 2_655
