#------------------------------------------------------------------------------
#$Date: 2019-11-23 03:32:10 +0200 (Sat, 23 Nov 2019) $
#$Revision: 232009 $
#$URL: file:///home/coder/svn-repositories/cod/cif/4/34/68/4346841.cif $
#------------------------------------------------------------------------------
#
# This file is available in the Crystallography Open Database (COD),
# http://www.crystallography.net/
#
# All data on this site have been placed in the public domain by the
# contributors.
#
data_4346841
loop_
_publ_author_name
'Sil, Debangsu'
'Bhowmik, Susovan'
'Khan, Firoz Shah Tuglak'
'Rath, Sankar Prasad'
_publ_section_title
;
 Experimental and Theoretical Investigation of a Series of Novel
 Dimanganese(III) \m-Hydroxo Bisporphyrins: Magneto-Structural Correlation
 and Effect of Metal Spin on Porphyrin Core Deformation.
;
_journal_issue                   7
_journal_name_full               'Inorganic chemistry'
_journal_page_first              3239
_journal_page_last               3251
_journal_paper_doi               10.1021/acs.inorgchem.5b02226
_journal_volume                  55
_journal_year                    2016
_chemical_formula_sum            'C199 H231 B2 F8 Mn4 N16 O2'
_chemical_formula_weight         3272.36
_space_group_crystal_system      triclinic
_space_group_IT_number           2
_space_group_name_Hall           '-P 1'
_space_group_name_H-M_alt        'P -1'
_atom_sites_solution_hydrogens   mixed
_audit_creation_method           SHELXL-2014
_cell_angle_alpha                96.246(5)
_cell_angle_beta                 106.556(5)
_cell_angle_gamma                113.735(5)
_cell_formula_units_Z            1
_cell_length_a                   14.656(5)
_cell_length_b                   15.833(5)
_cell_length_c                   23.555(5)
_cell_measurement_reflns_used    999
_cell_measurement_temperature    100(2)
_cell_measurement_theta_max      27.5
_cell_measurement_theta_min      2.5
_cell_volume                     4638(2)
_computing_cell_refinement       'Bruker SAINT'
_computing_data_collection       'Bruker APEX'
_computing_data_reduction        'Bruker SAINT'
_computing_molecular_graphics    'SHELXL 5.1, XP (Sheldrick, 1994)'
_computing_publication_material  SHELXS-97
_computing_structure_refinement  'SHELXL-2014 (Sheldrick, 2014)'
_computing_structure_solution    'SHELXS-97 (Sheldrick, 2008)'
_diffrn_ambient_temperature      100(2)
_diffrn_measured_fraction_theta_full 0.982
_diffrn_measured_fraction_theta_max 0.982
_diffrn_measurement_device_type  'Bruker SMART APEX'
_diffrn_measurement_method       \w
_diffrn_radiation_type           MoK\a
_diffrn_radiation_wavelength     0.71069
_diffrn_reflns_av_R_equivalents  0.0481
_diffrn_reflns_av_unetI/netI     0.1028
_diffrn_reflns_Laue_measured_fraction_full 0.982
_diffrn_reflns_Laue_measured_fraction_max 0.982
_diffrn_reflns_limit_h_max       17
_diffrn_reflns_limit_h_min       -17
_diffrn_reflns_limit_k_max       16
_diffrn_reflns_limit_k_min       -18
_diffrn_reflns_limit_l_max       28
_diffrn_reflns_limit_l_min       -22
_diffrn_reflns_number            24076
_diffrn_reflns_point_group_measured_fraction_full 0.982
_diffrn_reflns_point_group_measured_fraction_max 0.982
_diffrn_reflns_theta_full        25.000
_diffrn_reflns_theta_max         25.000
_diffrn_reflns_theta_min         1.453
_diffrn_source                   'fine-focus sealed tube'
_exptl_absorpt_coefficient_mu    0.330
_exptl_absorpt_correction_T_max  0.970
_exptl_absorpt_correction_T_min  0.942
_exptl_absorpt_correction_type   multi-scan
_exptl_absorpt_process_details   'SADABS 2.05 (Sheldrick, 2002)'
_exptl_crystal_colour            'dark red'
_exptl_crystal_density_diffrn    1.172
_exptl_crystal_description       block
_exptl_crystal_F_000             1735
_exptl_crystal_size_max          0.180
_exptl_crystal_size_mid          0.150
_exptl_crystal_size_min          0.100
_refine_diff_density_max         1.683
_refine_diff_density_min         -0.472
_refine_diff_density_rms         0.138
_refine_ls_extinction_method     none
_refine_ls_goodness_of_fit_ref   1.039
_refine_ls_hydrogen_treatment    constr
_refine_ls_matrix_type           full
_refine_ls_number_parameters     1064
_refine_ls_number_reflns         16032
_refine_ls_number_restraints     0
_refine_ls_restrained_S_all      1.039
_refine_ls_R_factor_all          0.1238
_refine_ls_R_factor_gt           0.0881
_refine_ls_shift/su_max          0.000
_refine_ls_shift/su_mean         0.000
_refine_ls_structure_factor_coef Fsqd
_refine_ls_weighting_details
'w=1/[\s^2^(Fo^2^)+(0.1667P)^2^+2.6277P] where P=(Fo^2^+2Fc^2^)/3'
_refine_ls_weighting_scheme      calc
_refine_ls_wR_factor_gt          0.2363
_refine_ls_wR_factor_ref         0.2788
_reflns_Friedel_coverage         0.000
_reflns_number_gt                10782
_reflns_number_total             16032
_reflns_threshold_expression     'I > 2\s(I)'
_cod_data_source_file            ic5b02226_si_003.cif
_cod_data_source_block           8feba
_cod_database_code               4346841
_shelx_space_group_comment
;
The symmetry employed for this shelxl refinement is uniquely defined
by the following loop, which should always be used as a source of
symmetry information in preference to the above space-group names.
They are only intended as comments.
;
_shelx_estimated_absorpt_t_min   0.943
_shelx_estimated_absorpt_t_max   0.968
_shelxl_version_number           2014-3
_shelx_res_file
;
TITL 8febam in P -1
CELL  0.71069  14.6560  15.8330  23.5550   96.246  106.556  113.735
ZERR     1.00   0.0050   0.0050   0.0050    0.005    0.005    0.005
LATT   1
SFAC  C    H    N    O    F    MN   B
UNIT  199  231  16   2    8    4    2
omit -3 50
temp -173.0
omit -1 0 1
omit 1 0 1
omit 1 0 4
omit 1 -2 3
omit -2 2 0
omit 1 -1 1
omit 0 0 3
omit 0 0 1
omit -2 2 1
omit 2 0 5
omit -3 0 3
omit -2 0 2
omit -3 2 1
omit -2 0 4
omit -4 0 4
omit 1 -2 2
omit -2 3 1
omit -1 2 1
omit -2 2 7
omit 0 0 8
omit -7 1 5
omit -4 -15 10
size 0.18 0.15 0.10 ! red block
BOND $H
L.S.   20
acta 50
FMAP   2
plan 10
WGHT    0.166700    2.627700
FVAR       0.26180
MN1   6    0.159658    0.144159    0.821289    11.00000    0.02168    0.01960 =
         0.02574    0.00646    0.00686    0.01093
MN2   6    0.115116    0.033887    0.654583    11.00000    0.01725    0.01796 =
         0.02529    0.00739    0.00858    0.00906
O1    4    0.164591    0.075823    0.746075    11.00000    0.00978    0.01172 =
         0.00913    0.00221    0.00117    0.00623
N1    3    0.004414    0.102174    0.802013    11.00000    0.02563    0.02038 =
         0.02559    0.00508    0.00800    0.01479
N2    3    0.176128    0.267688    0.801921    11.00000    0.02797    0.02757 =
         0.02536    0.00917    0.00861    0.01617
N3    3    0.317323    0.202796    0.863373    11.00000    0.02522    0.02331 =
         0.03072    0.00910    0.00758    0.01440
N4    3    0.142098    0.032873    0.857169    11.00000    0.02615    0.02452 =
         0.02529    0.01027    0.00965    0.01591
N5    3    0.041093   -0.107119    0.645137    11.00000    0.02003    0.01950 =
         0.02613    0.00753    0.01022    0.00890
N6    3    0.243305    0.023869    0.646608    11.00000    0.01997    0.02444 =
         0.03037    0.01145    0.01160    0.01205
N7    3    0.179220    0.168368    0.645899    11.00000    0.01900    0.01976 =
         0.03119    0.00534    0.01075    0.00695
N8    3   -0.024511    0.035025    0.643847    11.00000    0.02103    0.01896 =
         0.02412    0.00817    0.00726    0.01070
C1    1   -0.071622    0.012497    0.797364    11.00000    0.02461    0.02386 =
         0.01976    0.00424    0.00805    0.01612
C2    1   -0.172941    0.013001    0.790300    11.00000    0.02547    0.02809 =
         0.01911    0.00477    0.00668    0.01493
C3    1   -0.157938    0.103763    0.788120    11.00000    0.02742    0.03135 =
         0.02710    0.00852    0.01113    0.02022
C4    1   -0.048096    0.157782    0.792713    11.00000    0.02758    0.02488 =
         0.02335    0.00545    0.00724    0.01508
C5    1   -0.005069    0.248623    0.784472    11.00000    0.02923    0.02880 =
         0.02873    0.00890    0.00683    0.01848
AFIX  43
H5A   2   -0.050292    0.278622    0.776308    11.00000   -1.20000
AFIX   0
C6    1    0.098930    0.299565    0.787166    11.00000    0.03614    0.02024 =
         0.02780    0.00721    0.01104    0.01728
C7    1    0.142980    0.392387    0.775770    11.00000    0.03854    0.02451 =
         0.03211    0.00897    0.01434    0.01759
C8    1    0.245957    0.415595    0.781975    11.00000    0.04064    0.02062 =
         0.03153    0.00959    0.01244    0.01297
C9    1    0.267360    0.339168    0.799336    11.00000    0.03163    0.02239 =
         0.02593    0.00409    0.01046    0.01098
C10   1    0.367322    0.340895    0.820059    11.00000    0.03140    0.02632 =
         0.03262    0.00891    0.01180    0.00836
AFIX  43
H10A  2    0.423193    0.387884    0.811436    11.00000   -1.20000
AFIX   0
C11   1    0.391872    0.280823    0.851705    11.00000    0.02603    0.02008 =
         0.03431    0.00091    0.00740    0.00605
C12   1    0.497920    0.293300    0.884350    11.00000    0.02537    0.03074 =
         0.04068    0.00452    0.00522    0.00734
C13   1    0.488880    0.227396    0.917475    11.00000    0.02910    0.02902 =
         0.03282    0.00097    0.00197    0.01331
C14   1    0.375397    0.169684    0.903293    11.00000    0.02672    0.02270 =
         0.03033   -0.00040    0.00461    0.01271
C15   1    0.330742    0.085859    0.919751    11.00000    0.02942    0.02908 =
         0.02801    0.00418    0.00533    0.01654
AFIX  43
H15A  2    0.377381    0.072168    0.950206    11.00000   -1.20000
AFIX   0
C16   1    0.223288    0.019518    0.895649    11.00000    0.02674    0.02877 =
         0.02218    0.00485    0.00569    0.01630
C17   1    0.180921   -0.076489    0.901343    11.00000    0.02956    0.02736 =
         0.02498    0.01117    0.01169    0.01698
C18   1    0.076484   -0.123549    0.863898    11.00000    0.03088    0.02258 =
         0.02793    0.00931    0.01520    0.01624
C19   1    0.051177   -0.054393    0.836097    11.00000    0.02402    0.02071 =
         0.02608    0.00856    0.00976    0.01344
C20   1   -0.050392   -0.066076    0.801212    11.00000    0.02440    0.02160 =
         0.02529    0.00908    0.01314    0.00803
C21   1   -0.268349   -0.061287    0.798685    11.00000    0.02866    0.03387 =
         0.03991    0.01563    0.01747    0.02216
AFIX  23
H21B  2   -0.292037   -0.123580    0.770708    11.00000   -1.20000
H21C  2   -0.327732   -0.043920    0.787565    11.00000   -1.20000
AFIX   0
C22   1   -0.243559   -0.070884    0.864371    11.00000    0.04723    0.04580 =
         0.04144    0.02265    0.02660    0.02639
AFIX 137
H22B  2   -0.309192   -0.115292    0.868855    11.00000   -1.50000
H22C  2   -0.214893   -0.008305    0.892489    11.00000   -1.50000
H22D  2   -0.190657   -0.095223    0.873993    11.00000   -1.50000
AFIX   0
C23   1   -0.233870    0.145735    0.784596    11.00000    0.02931    0.03083 =
         0.03892    0.01218    0.01282    0.01955
AFIX  23
H23A  2   -0.308080    0.093754    0.767520    11.00000   -1.20000
H23B  2   -0.225981    0.188062    0.756448    11.00000   -1.20000
AFIX   0
C24   1   -0.214251    0.202475    0.847012    11.00000    0.05114    0.04062 =
         0.05390    0.01266    0.02477    0.03252
AFIX 137
H24A  2   -0.262960    0.231376    0.842412    11.00000   -1.50000
H24B  2   -0.140173    0.252766    0.864660    11.00000   -1.50000
H24C  2   -0.226985    0.159830    0.874167    11.00000   -1.50000
AFIX   0
C25   1    0.084873    0.450738    0.763774    11.00000    0.05069    0.02972 =
         0.05407    0.02383    0.02114    0.02356
AFIX  23
H25A  2    0.011883    0.409952    0.733420    11.00000   -1.20000
H25B  2    0.122270    0.502001    0.746031    11.00000   -1.20000
AFIX   0
C26   1    0.077435    0.495598    0.822544    11.00000    0.06315    0.03083 =
         0.06986    0.01289    0.03008    0.03150
AFIX 137
H26A  2    0.035495    0.530583    0.812489    11.00000   -1.50000
H26B  2    0.149461    0.539603    0.851585    11.00000   -1.50000
H26C  2    0.042610    0.445182    0.840992    11.00000   -1.50000
AFIX   0
C27   1    0.328427    0.508135    0.778147    11.00000    0.04275    0.02785 =
         0.03929    0.01441    0.01789    0.01417
AFIX  23
H27A  2    0.294810    0.528630    0.743238    11.00000   -1.20000
H27B  2    0.386403    0.497582    0.770354    11.00000   -1.20000
AFIX   0
C28   1    0.376417    0.587594    0.837139    11.00000    0.05377    0.02855 =
         0.07477    0.00162    0.02929    0.00487
AFIX 137
H28A  2    0.426419    0.647114    0.831941    11.00000   -1.50000
H28B  2    0.414458    0.569655    0.871296    11.00000   -1.50000
H28C  2    0.318999    0.596717    0.845822    11.00000   -1.50000
AFIX   0
C29   1    0.597928    0.365898    0.878821    11.00000    0.02544    0.03894 =
         0.05373    0.01510    0.00793    0.00821
AFIX  23
H29A  2    0.598910    0.429181    0.884460    11.00000   -1.20000
H29B  2    0.661504    0.370895    0.911263    11.00000   -1.20000
AFIX   0
C30   1    0.602160    0.337940    0.818240    11.00000    0.04875    0.08311 =
         0.08659    0.02681    0.03011    0.02333
AFIX 137
H30A  2    0.671673    0.380801    0.817195    11.00000   -1.50000
H30B  2    0.545170    0.342192    0.786544    11.00000   -1.50000
H30C  2    0.592453    0.272231    0.810689    11.00000   -1.50000
AFIX   0
C31   1    0.575201    0.215047    0.961530    11.00000    0.02818    0.02823 =
         0.04739    0.00591    0.00512    0.01296
AFIX  23
H31A  2    0.639321    0.239310    0.950068    11.00000   -1.20000
H31B  2    0.551506    0.146205    0.958799    11.00000   -1.20000
AFIX   0
C32   1    0.604927    0.267357    1.027468    11.00000    0.05750    0.06057 =
         0.04726   -0.00002   -0.00199    0.03906
AFIX 137
H32A  2    0.665033    0.260705    1.054406    11.00000   -1.50000
H32B  2    0.543402    0.239829    1.040244    11.00000   -1.50000
H32C  2    0.625421    0.335105    1.030070    11.00000   -1.50000
AFIX   0
C33   1    0.244090   -0.115463    0.943176    11.00000    0.03127    0.03460 =
         0.03227    0.01402    0.00883    0.01998
AFIX  23
H33A  2    0.316523   -0.091313    0.941227    11.00000   -1.20000
H33B  2    0.208655   -0.185924    0.928805    11.00000   -1.20000
AFIX   0
C34   1    0.253722   -0.086549    1.010147    11.00000    0.05320    0.06744 =
         0.03291    0.02257    0.01578    0.04226
AFIX 137
H34A  2    0.295664   -0.112556    1.035874    11.00000   -1.50000
H34B  2    0.182220   -0.111911    1.012431    11.00000   -1.50000
H34C  2    0.289399   -0.016821    1.024661    11.00000   -1.50000
AFIX   0
C35   1    0.003152   -0.226216    0.858055    11.00000    0.02920    0.02658 =
         0.03984    0.01644    0.00875    0.01437
AFIX  23
H35A  2   -0.071105   -0.234979    0.846847    11.00000   -1.20000
H35B  2    0.023238   -0.240814    0.898251    11.00000   -1.20000
AFIX   0
C36   1    0.007464   -0.296656    0.809866    11.00000    0.04197    0.02381 =
         0.04805    0.00599    0.00743    0.01525
AFIX 137
H36A  2   -0.045143   -0.361656    0.805793    11.00000   -1.50000
H36B  2    0.079158   -0.292630    0.822682    11.00000   -1.50000
H36C  2   -0.008873   -0.280631    0.770373    11.00000   -1.50000
AFIX   0
C37   1   -0.137341   -0.165205    0.763171    11.00000    0.02657    0.02215 =
         0.03191    0.01122    0.01262    0.01260
AFIX  23
H37A  2   -0.189735   -0.189525    0.783535    11.00000   -1.20000
H37B  2   -0.104709   -0.208892    0.761442    11.00000   -1.20000
AFIX   0
C101  1   -0.052924   -0.157707    0.654901    11.00000    0.02585    0.02167 =
         0.01958    0.00909    0.00775    0.01301
C102  1   -0.076645   -0.258008    0.644792    11.00000    0.02313    0.02081 =
         0.02710    0.01158    0.00933    0.01082
C103  1    0.002141   -0.265852    0.628264    11.00000    0.02678    0.02331 =
         0.02466    0.00668    0.00502    0.01579
C104  1    0.076437   -0.171600    0.630712    11.00000    0.02261    0.02030 =
         0.02350    0.00892    0.00776    0.01385
C105  1    0.173306   -0.148895    0.623330    11.00000    0.02412    0.02215 =
         0.02843    0.00692    0.01003    0.01576
AFIX  43
H10C  2    0.186206   -0.200716    0.610600    11.00000   -1.20000
AFIX   0
C106  1    0.252775   -0.058454    0.632654    11.00000    0.02545    0.02888 =
         0.02420    0.00798    0.00910    0.01588
C107  1    0.357965   -0.035372    0.631841    11.00000    0.01996    0.03535 =
         0.02756    0.01497    0.00935    0.01513
C108  1    0.412918    0.061293    0.646652    11.00000    0.02766    0.03093 =
         0.02815    0.01402    0.01146    0.01499
C109  1    0.341491    0.098892    0.654230    11.00000    0.01606    0.02825 =
         0.02660    0.00900    0.00812    0.00977
C110  1    0.361251    0.192712    0.661015    11.00000    0.02012    0.02658 =
         0.02481    0.00346    0.00705    0.00633
AFIX  43
H11B  2    0.433255    0.239356    0.671815    11.00000   -1.20000
AFIX   0
C111  1    0.284348    0.224340    0.653321    11.00000    0.02415    0.02209 =
         0.03080    0.00870    0.01314    0.01006
C112  1    0.298913    0.317639    0.645992    11.00000    0.02646    0.02316 =
         0.03702    0.01258    0.01366    0.00941
C113  1    0.202069    0.317768    0.633631    11.00000    0.02821    0.01530 =
         0.02926    0.00854    0.00927    0.00628
C114  1    0.129105    0.224865    0.635473    11.00000    0.02335    0.02093 =
         0.02631    0.00896    0.00963    0.01249
C115  1    0.023795    0.196841    0.629299    11.00000    0.02777    0.01958 =
         0.02231    0.00901    0.00957    0.01559
AFIX  43
H11C  2   -0.002433    0.242110    0.621925    11.00000   -1.20000
AFIX   0
C116  1   -0.047472    0.109701    0.632736    11.00000    0.02686    0.02102 =
         0.01985    0.00353    0.00817    0.01421
C117  1   -0.154145    0.086171    0.627980    11.00000    0.02229    0.02225 =
         0.02398    0.00479    0.00671    0.01387
C118  1   -0.196331   -0.002280    0.639328    11.00000    0.02298    0.02170 =
         0.02625    0.00774    0.01228    0.01268
C119  1   -0.113685   -0.033193    0.650950    11.00000    0.01831    0.02076 =
         0.02234    0.00711    0.00747    0.00741
C120  1   -0.119906   -0.118721    0.664977    11.00000    0.01967    0.01901 =
         0.02289    0.00270    0.00410    0.01094
C121  1   -0.174868   -0.343046    0.643599    11.00000    0.03540    0.01725 =
         0.04084    0.01260    0.02159    0.01203
AFIX  23
H12B  2   -0.193324   -0.327325    0.679288    11.00000   -1.20000
H12C  2   -0.158802   -0.397727    0.647049    11.00000   -1.20000
AFIX   0
C122  1   -0.270602   -0.371528    0.584676    11.00000    0.02933    0.02527 =
         0.04105    0.00209    0.01072    0.00458
AFIX 137
H12D  2   -0.334384   -0.421957    0.587423    11.00000   -1.50000
H12E  2   -0.256055   -0.394960    0.549667    11.00000   -1.50000
H12F  2   -0.282659   -0.315904    0.579212    11.00000   -1.50000
AFIX   0
C123  1    0.011047   -0.355302    0.609597    11.00000    0.03378    0.02288 =
         0.03913    0.01389    0.01960    0.01582
AFIX  23
H12G  2    0.047512   -0.347083    0.579622    11.00000   -1.20000
H12H  2   -0.061671   -0.409014    0.589063    11.00000   -1.20000
AFIX   0
C124  1    0.072748   -0.380520    0.663860    11.00000    0.06316    0.03894 =
         0.04813    0.01988    0.02983    0.03636
AFIX 137
H12I  2    0.075948   -0.439200    0.649095    11.00000   -1.50000
H12J  2    0.036251   -0.390135    0.693335    11.00000   -1.50000
H12K  2    0.145456   -0.328334    0.683810    11.00000   -1.50000
AFIX   0
C125  1    0.397536   -0.106468    0.619487    11.00000    0.02507    0.03591 =
         0.03571    0.01196    0.01396    0.01818
AFIX  23
H12L  2    0.454985   -0.078532    0.602975    11.00000   -1.20000
H12M  2    0.338344   -0.163639    0.587841    11.00000   -1.20000
AFIX   0
C126  1    0.440249   -0.136612    0.676268    11.00000    0.03651    0.04122 =
         0.03798    0.00880    0.00932    0.02784
AFIX 137
H12N  2    0.467717   -0.180972    0.665970    11.00000   -1.50000
H12O  2    0.382537   -0.168095    0.691347    11.00000   -1.50000
H12P  2    0.498029   -0.080203    0.708091    11.00000   -1.50000
AFIX   0
C127  1    0.525551    0.121862    0.649691    11.00000    0.01576    0.03138 =
         0.04374    0.01303    0.00861    0.01201
AFIX  23
H12Q  2    0.567530    0.086084    0.659365    11.00000   -1.20000
H12R  2    0.559608    0.180476    0.683336    11.00000   -1.20000
AFIX   0
C128  1    0.529046    0.149801    0.590209    11.00000    0.03012    0.03966 =
         0.04707    0.01549    0.01905    0.01657
AFIX 137
H12S  2    0.602421    0.194970    0.596188    11.00000   -1.50000
H12T  2    0.482002    0.179713    0.578222    11.00000   -1.50000
H12U  2    0.504963    0.092701    0.557939    11.00000   -1.50000
AFIX   0
C129  1    0.403389    0.395599    0.649366    11.00000    0.02633    0.02355 =
         0.05248    0.01772    0.01614    0.00678
AFIX  23
H12V  2    0.462561    0.393336    0.681376    11.00000   -1.20000
H12W  2    0.404973    0.458149    0.661618    11.00000   -1.20000
AFIX   0
C130  1    0.421430    0.387493    0.588926    11.00000    0.04188    0.04732 =
         0.04957    0.01705    0.02302    0.00930
AFIX 137
H13A  2    0.488225    0.441934    0.592946    11.00000   -1.50000
H13B  2    0.361723    0.387223    0.556670    11.00000   -1.50000
H13C  2    0.425962    0.328100    0.578234    11.00000   -1.50000
AFIX   0
C131  1    0.171507    0.393831    0.618357    11.00000    0.02858    0.02521 =
         0.04611    0.01817    0.01434    0.01083
AFIX  23
H13D  2    0.237358    0.454717    0.629713    11.00000   -1.20000
H13E  2    0.130282    0.402117    0.643394    11.00000   -1.20000
AFIX   0
C132  1    0.105246    0.373373    0.551021    11.00000    0.04521    0.03711 =
         0.05256    0.02538    0.01743    0.01850
AFIX 137
H13F  2    0.086723    0.425435    0.544534    11.00000   -1.50000
H13G  2    0.039662    0.313302    0.539299    11.00000   -1.50000
H13H  2    0.146729    0.368222    0.525913    11.00000   -1.50000
AFIX   0
C133  1   -0.208350    0.147264    0.610949    11.00000    0.02311    0.02203 =
         0.03943    0.01327    0.01408    0.01354
AFIX  23
H13I  2   -0.155874    0.215181    0.629680    11.00000   -1.20000
H13J  2   -0.265882    0.132794    0.627930    11.00000   -1.20000
AFIX   0
C134  1   -0.256191    0.131884    0.541780    11.00000    0.04405    0.04317 =
         0.03712    0.01885    0.01518    0.02775
AFIX 137
H13K  2   -0.289695    0.173885    0.533099    11.00000   -1.50000
H13L  2   -0.310077    0.065255    0.523114    11.00000   -1.50000
H13M  2   -0.199511    0.146638    0.524725    11.00000   -1.50000
AFIX   0
C135  1   -0.314217   -0.056200    0.629175    11.00000    0.01907    0.03225 =
         0.03544    0.01408    0.00882    0.01562
AFIX  23
H13N  2   -0.348128   -0.013964    0.619801    11.00000   -1.20000
H13O  2   -0.321575   -0.073053    0.667447    11.00000   -1.20000
AFIX   0
C136  1   -0.373532   -0.147745    0.576836    11.00000    0.02328    0.03332 =
         0.04459    0.00867    0.00291    0.00867
AFIX 137
H13P  2   -0.450132   -0.176306    0.569707    11.00000   -1.50000
H13Q  2   -0.346014   -0.193078    0.587979    11.00000   -1.50000
H13R  2   -0.362266   -0.132219    0.539452    11.00000   -1.50000
AFIX   0
C137  1   -0.196685   -0.165759    0.696953    11.00000    0.02103    0.01837 =
         0.03015    0.00647    0.00922    0.01136
AFIX  23
H13S  2   -0.245968   -0.232496    0.673007    11.00000   -1.20000
H13T  2   -0.240076   -0.131682    0.698241    11.00000   -1.20000
AFIX   0
B1    7    0.778331    0.396167    0.716898    11.00000    0.05177    0.02188 =
         0.04634   -0.00015   -0.00085    0.01622
F1    5    0.843525    0.472846    0.701910    11.00000    0.08710    0.04753 =
         0.11638    0.04315   -0.00018    0.01238
F2    5    0.673463    0.370710    0.691236    11.00000    0.06760    0.07418 =
         0.07734   -0.01405    0.00523    0.03897
F3    5    0.799059    0.320707    0.700652    11.00000    0.09539    0.04292 =
         0.14004    0.01485    0.03001    0.03997
F4    5    0.815758    0.419184    0.779937    11.00000    0.07982    0.20480 =
         0.06432    0.01060    0.01807    0.04449
C1S   1   -0.297713    0.623842    0.840150    11.00000    0.07101    0.05797 =
         0.18553    0.05270    0.07420    0.02229
AFIX  43
H1SA  2   -0.262817    0.623309    0.880745    11.00000   -1.20000
AFIX   0
C2S   1   -0.288305    0.576525    0.793782    11.00000    0.09058    0.04200 =
         0.17892    0.02359    0.08934    0.01902
AFIX  43
H2SA  2   -0.248043    0.541884    0.801300    11.00000   -1.20000
AFIX   0
C3S   1   -0.336420    0.577844    0.735625    11.00000    0.05859    0.04832 =
         0.12380    0.01079    0.05063    0.00270
AFIX  43
H3SA  2   -0.327158    0.544009    0.703627    11.00000   -1.20000
AFIX   0
C4S   1   -0.395523    0.622894    0.720046    11.00000    0.05530    0.04949 =
         0.09064    0.00368    0.02779   -0.01130
AFIX  43
H4SA  2   -0.427982    0.621589    0.678609    11.00000   -1.20000
AFIX   0
C5S   1   -0.407932    0.676048    0.771936    11.00000    0.05443    0.04866 =
         0.16053    0.02910    0.05430   -0.00190
AFIX  43
H5S   2   -0.449045    0.709988    0.764882    11.00000   -1.20000
AFIX   0
C6S   1   -0.356201    0.673215    0.831010    11.00000    0.07121    0.06255 =
         0.08482    0.01214    0.04901    0.00695
AFIX  43
H6SA  2   -0.361793    0.705961    0.865130    11.00000   -1.20000
AFIX   0
C7S   1   -0.378808    0.384500    0.486580    11.00000    0.06681    0.03255 =
         0.11450    0.00130    0.04183    0.01383
AFIX  43
H7SA  2   -0.444052    0.387091    0.482143    11.00000   -1.20000
AFIX   0
C8S   1   -0.347461    0.379977    0.436054    11.00000    0.08303    0.03636 =
         0.07746    0.00572    0.01795    0.01448
AFIX  43
H8SA  2   -0.391863    0.378222    0.397195    11.00000   -1.20000
AFIX   0
C9S   1   -0.251334    0.378065    0.442918    11.00000    0.07129    0.03905 =
         0.08216    0.01453    0.04120    0.02300
AFIX  43
H9SA  2   -0.228239    0.376519    0.409178    11.00000   -1.20000
AFIX   0
C10S  1   -0.191403    0.378430    0.497930    11.00000    0.05949    0.04208 =
         0.09704    0.02046    0.03922    0.02247
AFIX  43
H10B  2   -0.125808    0.376437    0.502561    11.00000   -1.20000
AFIX   0
C11S  1   -0.222261    0.381639    0.548515    11.00000    0.07199    0.03838 =
         0.08916    0.01778    0.03476    0.02144
AFIX  43
H11A  2   -0.178619    0.381352    0.586965    11.00000   -1.20000
AFIX   0
C12S  1   -0.316602    0.385220    0.542033    11.00000    0.07318    0.03715 =
         0.08744    0.00995    0.04292    0.01855
AFIX  43
H12A  2   -0.338374    0.388194    0.576213    11.00000   -1.20000
AFIX   0
C13S  1   -0.087909    0.413029    0.982791    11.00000    0.09322    0.10276 =
         0.07685    0.00121    0.02410    0.00900
AFIX  43
H13U  2   -0.149779    0.353156    0.970235    11.00000   -1.20000
AFIX   0
C14S  1   -0.070190    0.465099    0.940935    11.00000    0.08639    0.10691 =
         0.06573   -0.00330    0.00849    0.02489
AFIX  43
H14B  2   -0.118715    0.440354    0.899683    11.00000   -1.20000
AFIX   0
C15S  1    0.019765    0.555451    0.958573    11.00000    0.11403    0.10793 =
         0.07427   -0.00001    0.04147    0.03935
AFIX  43
H15C  2    0.031814    0.592761    0.930024    11.00000   -1.20000
AFIX   6
PART   1
C16S  1    0.284396   -0.094638    0.786014    10.75000    0.03482    0.12350 =
         0.03963    0.01265    0.01258    0.03083
H16S  2    0.211405   -0.115027    0.767412    10.75000   -1.20000
C17S  1    0.356791   -0.002816    0.789336    10.75000    0.05928    0.10011 =
         0.03564    0.01776    0.01443    0.06359
H17S  2    0.332228    0.038256    0.772947    10.75000   -1.20000
C18S  1    0.465901    0.027651    0.817140    10.75000    0.04871    0.05075 =
         0.03128    0.01344    0.01504    0.03392
H18S  2    0.514348    0.089102    0.819355    10.75000   -1.20000
C19S  1    0.502610   -0.033717    0.841611    10.75000    0.04330    0.03890 =
         0.02236    0.00630    0.00768    0.02486
H19S  2    0.575603   -0.013339    0.860223    10.75000   -1.20000
C20S  1    0.430214   -0.125550    0.838291    10.75000    0.04434    0.03852 =
         0.04213    0.00954    0.01221    0.01445
H20S  2    0.454781   -0.166614    0.854679    10.75000   -1.20000
C21S  1    0.321108   -0.156019    0.810508    10.75000    0.04411    0.09478 =
         0.03851    0.00458    0.01383    0.00073
H21S  2    0.272671   -0.217445    0.808272    10.75000   -1.20000
PART   2
C22S  1    0.495736    0.004374    0.833375    10.25000    0.04182
H22S  2    0.566331    0.050841    0.845860    10.25000   -1.20000
C23S  1    0.472940   -0.085093    0.844308    10.25000    0.03557
H23S  2    0.528271   -0.098495    0.864103    10.25000   -1.20000
C24S  1    0.367424   -0.154529    0.825658    10.25000    0.03660
H24S  2    0.352181   -0.214399    0.832967    10.25000   -1.20000
C25S  1    0.284703   -0.134499    0.796073    10.25000    0.03435
H25S  2    0.214118   -0.180963    0.783589    10.25000   -1.20000
C26S  1    0.307499   -0.045029    0.785140    10.25000    0.02370
H26S  2    0.252157   -0.031627    0.765345    10.25000   -1.20000
C27S  1    0.413014    0.024416    0.803793    10.25000    0.04788
H27S  2    0.428269    0.084276    0.796480    10.25000   -1.20000
AFIX   6
PART  -1
C28S  1   -0.020626   -0.019147    0.502022    10.50000    0.05021    0.08767 =
         0.02761    0.00795    0.01572    0.02852
H28S  2   -0.084026   -0.066039    0.502359    10.50000   -1.20000
C29S  1   -0.013852    0.068329    0.493363    10.50000    0.07481    0.08415 =
         0.01615   -0.00020    0.00613    0.06129
H29S  2   -0.072723    0.079974    0.487918    10.50000   -1.20000
C30S  1    0.080916    0.138418    0.492870    10.50000    0.07488    0.04031 =
         0.02165    0.00889    0.01137    0.02950
H30S  2    0.085445    0.196945    0.487074    10.50000   -1.20000
C31S  1    0.168899    0.121018    0.501020    10.50000    0.05672    0.04048 =
         0.03207    0.00905    0.01463    0.02002
H31S  2    0.232312    0.167911    0.500681    10.50000   -1.20000
C32S  1    0.162136    0.033543    0.509667    10.50000    0.05071    0.05035 =
         0.02949    0.00038    0.01551    0.02774
H32S  2    0.220997    0.021910    0.515124    10.50000   -1.20000
C33S  1    0.067370   -0.036546    0.510182    10.50000    0.06464    0.05136 =
         0.01333    0.00509   -0.00208    0.03217
H33S  2    0.062828   -0.095071    0.515967    10.50000   -1.20000
AFIX   6
PART   0
C34S  1    0.936104    0.831707    1.011068    10.25000    0.04204
H34S  2    0.986101    0.883203    1.003222    10.25000   -1.20000
C35S  1    0.958074    0.757098    1.024712    10.25000    0.12439
H35S  2    1.022754    0.758685    1.025993    10.25000   -1.20000
C36S  1    0.883346    0.680143    1.036452    10.25000    0.06276
H36S  2    0.898044    0.630224    1.045573    10.25000   -1.20000
C37S  1    0.786662    0.677786    1.034540    10.25000    0.08653
H37S  2    0.736677    0.626293    1.042390    10.25000   -1.20000
C38S  1    0.764697    0.752395    1.020897    10.25000    0.06618
H38S  2    0.700011    0.750811    1.019616    10.25000   -1.20000
C39S  1    0.839422    0.829362    1.009156    10.25000    0.11788
H39S  2    0.824725    0.879273    1.000025    10.25000   -1.20000

AFIX   0
HKLF    4

REM  8febam in P -1
REM R1 =  0.0881 for   10782 Fo > 4sig(Fo)  and  0.1238 for all   16032 data
REM   1064 parameters refined using      0 restraints

END

WGHT      0.1668      2.6640

REM Highest difference peak  1.683,  deepest hole -0.472,  1-sigma level  0.138
Q1    1   0.7030  0.6442  1.0108  11.00000  0.05    1.68
Q2    1   0.6553  0.5677  1.0238  11.00000  0.05    1.66
Q3    1   0.8459  0.7064  1.0354  11.00000  0.05    1.56
Q4    1   0.5371  0.5067  1.0097  11.00000  0.05    1.43
Q5    1   0.9683  0.9432  1.0118  11.00000  0.05    1.28
Q6    1   0.9459  0.8755  1.0203  11.00000  0.05    1.24
Q7    1   0.8386  0.7908  1.0113  11.00000  0.05    1.17
Q8    1   0.6577  0.4530  0.9277  11.00000  0.05    0.94
Q9    1   0.7860  0.6128  1.0372  11.00000  0.05    0.85
Q10   1   0.0743  0.1167  0.7998  11.00000  0.05    0.74
;
_shelx_res_checksum              16082
_shelx_hkl_file
;
  -2   0   0  844.46   42.89
  -3   0   0    6.59    1.05
   3   0   0    5.37    2.39
  -3   0   0    3.92    1.02
   4   0   0  384.09   24.66
  -4   0   0  409.07   20.74
  -4   0   0  385.15   18.32
  -5   0   0  378.96   20.42
   5   0   0  400.42   24.77
  -5   0   0  373.76   18.22
   6   0   0  392.33   24.73
  -6   0   0  363.70   19.96
  -6   0   0  357.04   17.96
  -7   0   0   15.78    2.15
   7   0   0   10.69    3.84
  -7   0   0   10.84    2.08
  -8   0   0   12.50    2.14
  -8   0   0   11.22    2.40
   8   0   0    7.27    4.10
  -9   0   0   75.87    6.00
  -9   0   0   79.76    6.14
   9   0   0   83.96    9.63
 -10   0   0   -1.34    0.98
 -11   0   0   -2.24    1.06
 -12   0   0   73.06    7.39
 -13   0   0    0.05    1.57
 -14   0   0   13.77    3.60
 -15   0   0   -1.25    2.24
 -16   1   0   -2.31    2.10
 -15   1   0   23.92    4.57
 -14   1   0    8.63    2.65
 -13   1   0   18.90    3.68
 -12   1   0    0.49    1.84
 -11   1   0   12.76    2.89
 -10   1   0  256.35   14.69
  10  -1   0  273.58   21.12
  -9   1   0    4.70    1.46
   9  -1   0    6.15    4.79
  -9   1   0    5.54    1.74
   8  -1   0  237.31   18.32
  -8   1   0  247.47   13.59
  -8   1   0  222.45   12.71
   7  -1   0    5.34    3.32
  -7   1   0   13.38    1.78
  -7   1   0    9.90    2.00
  -6   1   0   42.93    3.25
  -6   1   0   38.83    3.38
  -5   1   0 1288.74   64.88
  -5   1   0 1264.36   56.59
   4  -1   0  170.61   12.09
  -4   1   0  169.11    8.43
  -4   1   0  164.96    9.07
   3  -1   0  249.48   16.07
  -3   1   0  245.35   11.40
  -3   1   0  238.48   12.68
  -2   1   0  682.28   29.21
   2  -1   0  643.80   39.61
  -1   1   0 3670.87  142.66
   1  -1   0 2872.92  189.45
   0  -1   0 2653.79  155.79
  -1  -1   0    8.18    1.06
  -2  -1   0   95.56    5.49
   2   1   0   87.94    6.12
  -3  -1   0 1120.62   57.89
   3   1   0 1148.67   66.83
  -4  -1   0   10.67    1.70
   4   1   0    9.02    2.36
  -5  -1   0  594.14   27.79
   5   1   0  615.09   36.85
  -5  -1   0  591.68   31.60
  -6  -1   0  444.95   23.98
   6   1   0  456.78   28.47
  -6  -1   0  425.31   21.29
   7   1   0   32.76    5.12
  -7  -1   0   26.13    3.40
  -7  -1   0   32.26    3.44
  -8  -1   0    6.74    1.92
   8   1   0   10.43    4.09
  -8  -1   0    1.85    1.51
  -9  -1   0    1.35    1.32
  -9  -1   0    2.72    1.51
 -10  -1   0    9.53    2.59
 -11  -1   0    5.33    2.20
 -12  -1   0    9.49    2.64
 -13  -1   0    6.25    2.36
 -14  -1   0   19.78    4.12
 -15  -1   0    7.47    3.14
 -16   2   0    1.80    2.31
 -15   2   0    1.63    2.51
 -14   2   0   15.65    3.66
 -13   2   0   18.49    3.92
 -12   2   0    4.24    2.22
 -11   2   0   22.94    3.66
  11  -2   0   19.01    6.46
  10  -2   0   -1.11    1.72
 -10   2   0    7.73    2.20
  -9   2   0   63.15    4.50
  -9   2   0   53.18    5.18
   8  -2   0    1.21    3.50
  -8   2   0    4.57    1.10
  -8   2   0    0.21    1.01
  -7   2   0   18.64    1.96
   7  -2   0   13.63    4.69
  -7   2   0   17.05    2.48
   6  -2   0    1.89    3.04
  -6   2   0    2.61    1.09
  -6   2   0    3.70    0.87
   5  -2   0 4119.51  243.47
  -5   2   0 4171.86  208.94
  -5   2   0 4179.45  180.64
  -4   2   0   78.10    4.52
   4  -2   0   82.49    7.92
   3  -2   0   14.65    3.56
  -3   2   0   12.97    1.34
   2  -2   0   58.10    5.27
  -2   2   0   60.34    2.91
   2  -2   0   47.22    3.29
   1  -2   0  307.30   17.17
   1  -2   0  355.17   20.54
   0  -2   0  612.07   37.62
   0  -2   0  643.24   32.56
   1   2   0  177.93    9.05
  -1  -2   0  171.58    9.82
   1   2   0  178.44   10.66
  -2  -2   0  763.44   39.48
   3   2   0  144.67    9.67
  -3  -2   0  157.24    9.03
   4   2   0   90.86    6.64
  -4  -2   0   84.75    5.96
   5   2   0  254.94   16.07
  -5  -2   0  233.58   14.12
  -6  -2   0   88.03    6.49
  -6  -2   0   85.22    6.01
   6   2   0   88.32    7.84
  -7  -2   0   27.52    3.51
   7   2   0   35.33    5.10
  -7  -2   0   36.20    4.04
  -8  -2   0   10.99    2.49
  -8  -2   0    7.87    2.25
  -9  -2   0    1.17    1.70
  -9  -2   0    4.08    1.86
 -10  -2   0   88.69    7.34
 -11  -2   0    9.17    3.07
 -12  -2   0    0.51    2.11
 -13  -2   0   28.73    5.24
 -14  -2   0    0.03    2.72
 -15  -2   0   -0.83    3.37
 -17   3   0    1.70    2.62
 -16   3   0   12.25    3.42
 -15   3   0    4.30    2.37
 -14   3   0   22.98    4.18
 -13   3   0   43.87    5.66
  12  -3   0    1.41    3.20
 -12   3   0    0.94    1.44
 -11   3   0    1.40    1.31
  11  -3   0   -0.46    5.58
 -10   3   0  618.18   29.35
  10  -3   0  586.23   41.32
  -9   3   0  160.80    9.11
  -9   3   0  148.65    9.15
   9  -3   0  143.18   14.49
  -8   3   0  319.03   16.32
   8  -3   0  294.00   23.54
  -8   3   0  342.47   17.39
  -7   3   0  105.10    6.62
   7  -3   0  121.17   11.49
  -7   3   0  109.63    6.41
   6  -3   0  804.81   50.42
  -6   3   0  796.66   36.21
   5  -3   0  265.29   18.91
  -5   3   0  259.79   12.64
   4  -3   0   83.97    8.47
  -4   3   0   79.86    4.52
   3  -3   0  207.44   11.62
  -3   3   0  215.91    9.97
   3  -3   0  216.93   15.44
   2  -3   0  201.47   13.74
  -2   3   0  191.97    9.04
   1  -3   0  466.21   24.36
   0  -3   0  428.20   25.90
   0  -3   0  417.70   22.36
  -1  -3   0    1.33    1.03
  -1  -3   0    0.71    1.53
  -2  -3   0   68.61    4.98
  -3  -3   0   46.42    3.97
  -4  -3   0    5.45    1.63
  -5  -3   0  104.34    7.37
   5   3   0  107.54    7.86
  -6  -3   0    6.60    1.91
  -6  -3   0   11.02    2.31
   6   3   0    8.42    2.56
  -7  -3   0   60.17    5.43
  -7  -3   0   66.25    5.44
  -8  -3   0   58.17    5.64
  -8  -3   0   53.57    5.31
  -9  -3   0   41.61    5.03
  -9  -3   0   48.06    5.49
 -10  -3   0   15.76    3.55
 -11  -3   0    0.40    2.06
 -12  -3   0   32.54    5.47
 -13  -3   0   59.45    7.68
 -14  -3   0   -1.26    2.51
 -17   4   0    8.31    3.20
 -16   4   0    9.17    3.52
 -15   4   0    4.92    2.37
 -14   4   0   -1.25    1.37
 -13   4   0   23.76    4.21
  13  -4   0   31.31    8.42
 -12   4   0    8.85    2.36
  12  -4   0   -0.66    5.42
 -11   4   0   27.51    3.96
  11  -4   0   36.93    8.61
  10  -4   0  470.46   33.62
 -10   4   0  453.78   22.92
  -9   4   0   91.61    6.44
   9  -4   0  104.47   11.72
  -8   4   0   -0.22    0.49
   8  -4   0    1.24    3.69
  -8   4   0   -0.32    0.89
   7  -4   0  204.31   16.86
  -7   4   0  202.93   10.69
  -6   4   0  150.66    8.12
   6  -4   0  155.70   13.31
   5  -4   0  285.73   20.19
  -5   4   0  271.01   13.22
  -4   4   0    5.33    1.10
   4  -4   0    5.77    3.43
   4  -4   0    4.09    1.27
  -3   4   0   18.61    1.68
   3  -4   0   25.44    4.73
   2  -4   0 1400.58   71.42
   1  -4   0 1680.82   92.80
   1  -4   0 1451.94   79.63
   0  -4   0 4256.40  221.07
   0  -4   0 4516.23  255.50
  -1  -4   0    0.57    0.95
  -1  -4   0    0.94    1.68
  -2  -4   0  461.95   24.35
   2   4   0  434.55   26.39
  -3  -4   0   10.26    2.16
  -4  -4   0   62.59    5.29
  -5  -4   0  103.45    7.59
  -6  -4   0   17.12    2.93
  -6  -4   0   16.68    3.13
  -7  -4   0   33.37    4.52
  -7  -4   0   48.88    5.00
  -8  -4   0  194.85   13.24
  -8  -4   0  208.76   12.31
  -9  -4   0  232.77   15.30
  -9  -4   0  235.18   14.12
 -10  -4   0   16.13    3.64
 -11  -4   0   10.17    3.44
 -12  -4   0   21.66    4.58
 -13  -4   0    0.01    2.88
 -14  -4   0   -1.04    3.49
 -17   5   0    1.32    2.38
 -16   5   0    7.74    2.66
 -15   5   0   29.18    4.57
 -14   5   0   27.67    4.43
 -13   5   0    4.56    2.09
  13  -5   0    3.34    5.62
  12  -5   0   93.88   13.29
 -12   5   0   85.78    6.78
 -11   5   0   26.66    3.71
  11  -5   0   23.30    8.32
  10  -5   0  309.78   25.23
 -10   5   0  309.67   16.24
   9  -5   0   33.81    7.60
  -9   5   0   25.06    3.20
  -8   5   0  336.50   16.45
   8  -5   0  320.29   24.76
   7  -5   0  381.44   28.06
  -7   5   0  405.80   19.03
   6  -5   0  318.72   22.76
  -6   5   0  302.53   14.83
  -5   5   0  538.29   24.27
   5  -5   0  514.56   28.20
   5  -5   0  554.62   35.35
  -4   5   0   10.65    1.40
   4  -5   0    5.56    1.45
   4  -5   0    9.13    3.98
   3  -5   0    1.37    1.07
   3  -5   0   -0.67    2.91
   2  -5   0  207.93   12.08
   1  -5   0  112.34    6.82
   1  -5   0   77.37    8.34
   0  -5   0  317.05   18.58
   0  -5   0  351.43   21.87
  -1  -5   0  247.91   14.20
  -1  -5   0  232.43   15.52
   2   5   0   52.31    4.00
  -2  -5   0   59.09    4.91
  -3  -5   0    0.56    1.16
  -4  -5   0  164.69   10.82
  -5  -5   0  154.26   10.51
  -6  -5   0   10.45    2.78
  -7  -5   0   28.51    4.36
  -7  -5   0   32.52    4.37
  -8  -5   0  226.98   15.13
  -8  -5   0  230.18   13.65
  -9  -5   0   52.01    6.29
  -9  -5   0   47.67    6.00
 -10  -5   0   24.90    4.57
 -10  -5   0   29.79    4.85
 -11  -5   0   30.22    5.24
 -12  -5   0   -3.56    2.12
 -13  -5   0   -0.42    2.90
 -18   6   0   -1.59    2.30
 -17   6   0    4.07    2.50
 -16   6   0   28.06    4.60
 -15   6   0   86.72    8.34
 -14   6   0   23.03    4.10
  14  -6   0    9.79    7.53
 -13   6   0    2.07    1.64
  13  -6   0   -3.98    5.31
 -12   6   0   41.79    4.97
  12  -6   0   39.36    9.92
 -11   6   0  158.40    9.46
  11  -6   0  124.56   15.75
 -10   6   0   49.80    4.69
  10  -6   0   42.09    9.31
   9  -6   0   68.73   10.13
  -9   6   0   47.46    4.38
   8  -6   0    9.78    5.34
  -8   6   0   10.72    1.94
   7  -6   0  547.25   39.45
  -7   6   0  618.30   27.33
   6  -6   0  367.14   20.88
  -6   6   0  403.01   17.99
   6  -6   0  365.90   27.12
   5  -6   0  141.63    8.97
  -5   6   0  142.96    7.49
   5  -6   0  158.44   13.50
   4  -6   0  261.58   16.33
   4  -6   0  345.64   21.94
   3  -6   0  209.14   12.32
   3  -6   0  203.88   15.93
   2  -6   0   -0.47    0.92
   2  -6   0    3.22    2.90
   1  -6   0  199.98   16.55
   1  -6   0  278.33   14.46
   0  -6   0   67.25    5.59
   0  -6   0   73.21    7.50
  -1  -6   0   91.02    6.84
  -1  -6   0   83.99    7.20
  -2  -6   0  208.77   12.89
   2   6   0  197.34   12.55
  -3  -6   0  314.46   18.69
  -4  -6   0   72.37    6.43
  -5  -6   0   10.83    2.84
  -6  -6   0  180.18   12.56
  -7  -6   0    1.34    1.83
  -7  -6   0    0.57    1.42
  -8  -6   0    3.20    2.08
  -8  -6   0    6.90    2.76
  -9  -6   0   23.24    4.54
  -9  -6   0   19.58    4.01
 -10  -6   0   20.61    4.32
 -10  -6   0   22.61    4.32
 -11  -6   0   16.15    4.18
 -12  -6   0    3.21    2.61
 -18   7   0   11.74    3.24
 -17   7   0    6.23    3.05
 -16   7   0   12.56    3.55
  15  -7   0  128.94   17.98
 -15   7   0  148.20   10.40
 -14   7   0    3.31    1.84
  14  -7   0    1.75    6.62
 -13   7   0   28.90    4.37
  13  -7   0   31.01    9.80
  12  -7   0   -4.93    5.54
 -12   7   0    3.69    1.60
  11  -7   0  161.07   18.04
 -11   7   0  184.73   10.67
 -10   7   0    7.13    1.98
  10  -7   0    2.25    5.62
  -9   7   0   -0.25    0.84
   9  -7   0   -4.84    4.21
  -8   7   0   24.49    2.79
   8  -7   0   16.12    6.18
  -7   7   0  376.08   18.25
   7  -7   0  389.89   28.44
   7  -7   0  385.60   21.45
  -6   7   0    8.93    1.55
   6  -7   0   10.95    2.25
   6  -7   0    7.59    4.67
   5  -7   0   51.27    7.70
   4  -7   0   20.96    5.35
   4  -7   0   23.81    3.04
   3  -7   0  275.11   16.11
   2  -7   0   96.47    9.23
   2  -7   0   71.16    6.09
   1  -7   0 1230.17   84.65
   1  -7   0 1598.85   73.70
   0  -7   0   11.77    2.64
   0  -7   0   13.23    3.69
  -1  -7   0  102.64    8.50
  -1  -7   0  108.48    8.06
  -2  -7   0   -0.55    1.25
   2   7   0    0.68    0.60
   2   7   0    0.23    0.91
  -3  -7   0  455.55   26.28
  -4  -7   0    8.23    2.85
  -5  -7   0   21.18    4.14
  -6  -7   0   18.86    4.04
  -6  -7   0   17.97    3.29
  -7  -7   0    2.67    2.14
  -7  -7   0    4.79    2.09
  -8  -7   0    7.94    2.44
  -8  -7   0    3.47    2.27
  -9  -7   0   28.37    4.65
  -9  -7   0   20.49    4.55
 -10  -7   0   13.51    3.60
 -10  -7   0   15.72    4.22
 -11  -7   0    8.88    3.34
 -12  -7   0    0.05    3.05
 -18   8   0   -5.77    1.96
 -17   8   0    0.95    2.24
 -16   8   0   30.98    5.03
  16  -8   0   56.75   13.07
 -15   8   0    9.29    2.74
  15  -8   0    1.17    7.19
  14  -8   0    1.78    6.36
 -14   8   0    5.13    2.08
  13  -8   0   65.66   12.95
 -13   8   0   83.02    6.62
  12  -8   0    3.64    6.26
 -12   8   0    5.02    2.04
  11  -8   0   -6.68    5.02
 -11   8   0    0.33    1.25
 -10   8   0    0.49    1.07
  10  -8   0   -1.08    5.04
   9  -8   0    8.10    6.16
  -9   8   0   12.80    2.24
   8  -8   0  206.79   12.84
   8  -8   0  196.34   18.16
  -8   8   0  205.13   10.77
   7  -8   0   18.80    2.95
   7  -8   0    8.58    5.16
  -7   8   0   14.28    2.03
   6  -8   0  129.56   12.61
   6  -8   0   91.70    7.20
   5  -8   0   75.56    9.80
   5  -8   0   76.20    6.26
   4  -8   0  610.60   38.38
   4  -8   0  541.09   31.09
   3  -8   0   64.44    5.71
   2  -8   0 1320.10   71.67
   2  -8   0 1013.10   60.43
   1  -8   0  336.87   25.95
   1  -8   0  436.92   22.68
   0  -8   0  254.73   15.75
   0  -8   0  248.44   18.12
  -1  -8   0  115.70    9.16
  -1  -8   0  111.38    8.72
  -2  -8   0  270.23   17.04
  -3  -8   0  157.76   11.42
  -4  -8   0   83.46    7.60
  -5  -8   0  106.13    9.03
  -6  -8   0   32.17    4.49
  -6  -8   0   34.32    5.38
  -7  -8   0   44.37    5.53
  -7  -8   0   43.29    6.21
  -8  -8   0   21.96    4.70
  -8  -8   0   24.19    4.58
  -9  -8   0    4.51    2.87
  -9  -8   0    3.98    2.51
 -10  -8   0   10.23    3.38
 -11  -8   0    1.21    2.74
  17  -9   0   11.70    8.66
  16  -9   0   46.10   12.39
 -16   9   0   54.09    6.47
 -15   9   0   -0.40    1.88
  15  -9   0    8.55    7.70
 -14   9   0   33.52    4.66
  14  -9   0   23.71    9.77
  13  -9   0   21.55    8.72
 -13   9   0   16.76    3.26
  12  -9   0   10.06    7.34
 -12   9   0    5.30    1.92
 -11   9   0   26.68    3.52
  11  -9   0   20.22    8.48
  10  -9   0    5.03    6.08
 -10   9   0    1.21    1.14
   9  -9   0   65.00   11.13
  -9   9   0   63.99    4.79
   8  -9   0   29.20    7.60
   8  -9   0   21.03    3.47
  -8   9   0   17.13    2.48
   7  -9   0  110.63   13.25
   7  -9   0  123.45    8.69
   6  -9   0  115.04    8.87
   6  -9   0  152.27   14.21
   5  -9   0   78.28   10.36
   5  -9   0   75.63    6.47
   4  -9   0   -0.78    1.08
   4  -9   0    3.18    4.32
   3  -9   0   86.16    7.11
   2  -9   0 1154.61   56.33
   2  -9   0  946.90   65.15
   1  -9   0    6.54    2.29
   1  -9   0    2.36    3.99
   0  -9   0  192.06   13.37
   0  -9   0  209.23   15.74
  -1  -9   0   20.15    3.96
  -2  -9   0  244.78   16.12
  -3  -9   0    1.71    1.85
  -4  -9   0  175.85   12.93
  -5  -9   0   21.92    4.57
  -6  -9   0   57.98    6.12
  -6  -9   0   54.80    7.10
  -7  -9   0   40.81    6.51
  -7  -9   0   52.75    6.04
  -8  -9   0    9.13    2.53
  -8  -9   0    2.87    2.25
  -9  -9   0    1.09    2.05
  -9  -9   0   -2.91    1.67
 -10  -9   0    8.53    3.52
 -11  -9   0   -0.76    3.53
  17 -10   0    4.79    8.18
  16 -10   0   13.45    8.54
  15 -10   0   -4.77    6.24
  14 -10   0    4.19    7.29
  13 -10   0    4.74    6.33
  12 -10   0   -0.41    6.35
  11 -10   0    1.90    6.00
  10 -10   0  167.35   19.08
 -10  10   0  196.68   10.68
  -9  10   0  135.38    8.03
   9 -10   0  129.71   15.53
   8 -10   0   86.71   12.08
   8 -10   0   81.07    6.99
   6 -10   0  185.96   12.52
   6 -10   0  182.14   17.61
   5 -10   0   38.21    8.19
   5 -10   0   37.63    4.66
   4 -10   0   90.58    7.68
   3 -10   0   56.08    8.60
   3 -10   0   22.30    4.03
   2 -10   0   39.63    5.10
   2 -10   0   33.83    7.65
   1 -10   0    5.18    4.27
   1 -10   0    1.61    2.10
   0 -10   0   40.56    5.59
  -1 -10   0  266.72   17.48
  -2 -10   0   46.26    6.19
  -3 -10   0   45.95    6.29
  -4 -10   0    1.64    1.97
  -5 -10   0   46.15    6.72
  -6 -10   0   48.06    5.61
  -6 -10   0   29.81    5.75
  -7 -10   0    1.08    1.85
  -7 -10   0   -0.01    1.85
  -8 -10   0    3.33    2.66
  -8 -10   0    5.17    2.45
  -9 -10   0    0.27    2.23
  -9 -10   0    1.97    2.44
 -10 -10   0    4.16    3.69
  18 -11   0   19.32   12.72
  17 -11   0   -3.43    7.82
  16 -11   0    3.00    7.60
  15 -11   0   -0.51    6.39
  14 -11   0    5.64    7.00
  13 -11   0    4.11    7.50
  12 -11   0   75.28   13.50
  11 -11   0  295.43   26.51
  10 -11   0  194.67   19.90
   9 -11   0   -6.48    4.35
   8 -11   0  137.27   10.19
   8 -11   0  140.83   15.88
   7 -11   0  349.16   27.41
   7 -11   0  329.39   20.49
   6 -11   0  101.83   12.91
   6 -11   0   82.50    7.71
   5 -11   0   41.81    5.27
   4 -11   0    7.95    2.79
   4 -11   0   14.72    7.04
   3 -11   0  334.88   20.86
   2 -11   0   20.65    6.98
   2 -11   0   20.39    4.16
   1 -11   0   93.18    8.54
   1 -11   0   87.21   10.39
   0 -11   0  143.02   11.46
  -1 -11   0    9.98    3.21
  -2 -11   0    0.97    1.91
  -3 -11   0   17.26    4.49
  -4 -11   0   -0.38    1.79
  -5 -11   0   24.19    5.10
  -5 -11   0   19.98    3.87
  -6 -11   0   53.38    6.13
  -6 -11   0   48.08    7.23
  -7 -11   0   11.31    2.84
  -7 -11   0   13.27    4.30
  -8 -11   0    0.05    2.06
  -8 -11   0    5.43    3.08
  -9 -11   0    5.80    3.00
  -9 -11   0   -1.50    2.19
  18 -12   0   26.10   13.36
  17 -12   0   -4.04    8.78
  16 -12   0   -0.43    7.42
  15 -12   0   -1.19    7.14
  14 -12   0    5.40    7.49
  13 -12   0   17.19    9.28
  12 -12   0  153.48   18.93
  11 -12   0  153.29   18.41
  10 -12   0    6.78    6.58
   9 -12   0   56.57   11.20
   8 -12   0  727.53   50.93
   7 -12   0  131.82   15.53
   7 -12   0  112.70    9.69
   6 -12   0   62.76    7.01
   6 -12   0   71.13   11.56
   5 -12   0  222.92   15.28
   4 -12   0   26.80    4.90
   4 -12   0   44.08    9.49
   3 -12   0   21.73    4.61
   3 -12   0   17.65    7.25
   2 -12   0   47.82    6.37
   2 -12   0   28.34    7.67
   1 -12   0    3.72    2.82
   0 -12   0   54.33    7.29
  -1 -12   0    4.54    2.53
  -2 -12   0    8.01    3.39
  -3 -12   0   11.51    3.86
  -4 -12   0    2.07    2.20
  -5 -12   0   24.34    5.63
  -6 -12   0   13.93    4.28
  -7 -12   0   -0.79    2.21
  -8 -12   0    5.35    3.32
  18 -13   0   11.16   12.11
  17 -13   0    6.10    9.38
  16 -13   0    1.17    8.40
  15 -13   0    7.08    8.43
  14 -13   0    9.71    8.66
  13 -13   0   -0.30    6.93
  12 -13   0  104.80   16.05
  11 -13   0    4.89    6.55
  10 -13   0    7.94    6.40
   9 -13   0   62.27   12.04
   8 -13   0  327.34   28.15
   8 -13   0  339.82   21.25
   7 -13   0   15.91    4.25
   7 -13   0   27.59    8.75
   6 -13   0   66.83    7.57
   5 -13   0  157.67   12.30
   4 -13   0   -4.25    6.19
   4 -13   0    0.87    2.19
   3 -13   0  125.93   14.48
   3 -13   0  136.14   11.31
   2 -13   0  161.53   12.97
   1 -13   0    1.33    2.37
   0 -13   0    6.13    3.61
  -1 -13   0    5.19    3.02
  -2 -13   0   15.99    4.67
  -3 -13   0   27.12    5.92
  -4 -13   0    6.58    3.40
  -5 -13   0    2.80    2.77
  -6 -13   0   -0.17    2.90
  -7 -13   0    9.01    3.77
  17 -14   0    4.56    8.27
  16 -14   0    0.60    7.01
  15 -14   0   13.41    9.82
  14 -14   0   -1.45    5.90
  13 -14   0   11.17    8.21
  12 -14   0   81.08   14.55
  11 -14   0   41.20   11.07
  10 -14   0   18.71    8.02
   9 -14   0   60.44   12.05
   8 -14   0  101.11   14.68
   8 -14   0   89.65    8.91
   7 -14   0    5.75    6.14
   7 -14   0    3.32    2.36
   6 -14   0   -2.73    5.03
   6 -14   0    1.82    2.33
   5 -14   0   59.89   10.71
   5 -14   0   21.81    4.91
   4 -14   0   12.49    6.41
   4 -14   0    8.26    3.36
   3 -14   0    2.35    2.69
   2 -14   0    5.64    3.65
   1 -14   0   19.31    5.19
   0 -14   0   10.37    3.98
  -1 -14   0   30.30    6.13
  -2 -14   0   25.60    5.88
  -3 -14   0    4.02    2.93
  -4 -14   0   17.24    5.08
  -5 -14   0   -0.53    2.59
  -6 -14   0   14.02    4.57
  16 -15   0    2.22    6.14
  15 -15   0    3.79    8.41
  14 -15   0    8.11    8.66
  13 -15   0   61.94   14.03
  12 -15   0   -1.33    5.43
  11 -15   0    1.18    6.39
  10 -15   0   42.16   11.39
   9 -15   0    6.28    6.83
   8 -15   0   61.92   12.47
   8 -15   0   46.08    6.80
   7 -15   0    6.11    6.89
   7 -15   0    3.95    2.93
   6 -15   0   10.28    4.00
   6 -15   0   16.09    7.65
   5 -15   0  107.38   10.33
   4 -15   0   11.68    4.46
   3 -15   0   17.38    4.92
   2 -15   0   25.18    5.96
   1 -15   0    1.23    2.86
   0 -15   0   14.34    5.08
  -1 -15   0   56.75    8.77
  -2 -15   0   31.70    6.83
  -3 -15   0   -2.99    2.30
  -4 -15   0    6.94    4.08
  16 -16   0    0.89    7.02
  15 -16   0    0.13    5.72
  14 -16   0   65.95   15.24
  13 -16   0   40.46   12.03
  12 -16   0    3.35    6.65
  11 -16   0   16.98    8.52
  10 -16   0   -1.35    5.57
   9 -16   0    8.95    8.07
   8 -16   0    3.01    3.02
   8 -16   0    4.13    7.11
   7 -16   0   -7.36    4.59
   7 -16   0    0.75    2.32
   6 -16   0    4.83    6.34
   6 -16   0    9.40    4.13
   5 -16   0    3.92    3.15
   4 -16   0   55.68    8.03
   3 -16   0  119.36   11.88
   2 -16   0    0.06    3.10
   1 -16   0    2.66    3.40
   0 -16   0   34.31    7.24
  -1 -16   0   -0.78    3.42
  -2 -16   0    3.50    3.36
  -3 -16   0    8.06    3.86
  15 -17   0   32.19   11.51
  14 -17   0   24.98    9.82
  13 -17   0   20.86    8.93
  12 -17   0   23.00    9.40
  11 -17   0   17.10    8.65
  10 -17   0    6.63    6.38
   9 -17   0    2.72    6.74
   8 -17   0    3.13    3.19
   8 -17   0   -2.33    5.01
   7 -17   0    7.56    6.67
   7 -17   0   -1.71    2.22
   6 -17   0    5.29    3.06
   5 -17   0    9.43    3.94
   4 -17   0  121.00   11.89
   3 -17   0    6.77    3.77
   2 -17   0   11.49    4.85
   1 -17   0    9.82    4.77
   0 -17   0    0.67    2.56
  -1 -17   0    0.21    3.71
  14 -18   0   -1.43    6.49
  13 -18   0    2.36    7.41
  12 -18   0   18.42    7.95
  11 -18   0    3.85    6.08
  10 -18   0   10.78    6.95
   9 -18   0    9.47    7.33
   8 -18   0   24.18    9.03
   8 -18   0   15.02    5.45
   7 -18   0   13.41    4.40
   6 -18   0    2.35    3.10
   5 -18   0   20.05    5.84
   4 -18   0    2.77    3.43
   3 -18   0   -0.34    3.54
   2 -18   0    1.57    3.13
   1 -18   0    0.84    3.51
  13 -19   0   34.29   11.55
  12 -19   0   13.45    7.85
  11 -19   0   -5.53    5.58
  10 -19   0    2.01    6.27
   9 -19   0    8.01    7.34
   8 -19   0   13.91    5.08
   7 -19   0    1.54    3.23
   6 -19   0   13.02    5.62
   5 -19   0   35.15    7.98
   4 -19   0    7.51    3.99
   3 -19   0    0.39    3.44
  12 -20   0    5.55    6.97
  11 -20   0   -2.14    5.98
  10 -20   0    1.65    5.64
   7 -20   0    1.21    4.02
   6 -20   0   51.51    9.81
   5 -20   0   34.63    8.71
   4 -20   1    6.58    4.83
   5 -20   1   38.45    8.61
   6 -20   1    1.35    3.26
   7 -20   1   21.25    6.52
  10 -20   1    6.17    7.11
  11 -20   1    3.50    6.45
  12 -20   1   14.42    7.69
   2 -19   1    1.80    3.95
   3 -19   1   -1.10    3.00
   4 -19   1    2.41    3.75
   5 -19   1    0.73    3.25
   6 -19   1   19.61    5.66
   7 -19   1    0.29    2.77
   9 -19   1   28.75    9.15
  10 -19   1    6.23    6.88
  11 -19   1    4.00    6.72
  12 -19   1    3.68    6.58
  13 -19   1    9.36    7.33
   0 -18   1    1.73    4.01
   1 -18   1   -0.55    3.01
   2 -18   1   -3.70    3.11
   3 -18   1   -2.12    2.66
   4 -18   1   18.82    5.84
   5 -18   1   34.69    7.05
   6 -18   1    6.13    3.75
   7 -18   1    9.43    4.16
   8 -18   1    4.78    5.53
   9 -18   1   24.40    9.25
  10 -18   1    0.77    5.36
  11 -18   1    6.83    7.66
  12 -18   1   12.96    8.27
  13 -18   1   17.69    9.05
  14 -18   1   15.64    8.46
  -1 -17   1   -0.70    2.91
   0 -17   1    0.02    3.14
   1 -17   1    4.45    4.18
   2 -17   1    4.52    3.82
   3 -17   1    0.73    2.91
   4 -17   1   -1.29    2.13
   5 -17   1    9.28    3.98
   6 -17   1    1.37    2.81
   7 -17   1   47.12   11.19
   7 -17   1   38.61    7.22
   8 -17   1   25.28    9.03
   8 -17   1   17.87    5.32
   9 -17   1   11.42    7.78
  10 -17   1   31.74   10.41
  11 -17   1   11.92    7.48
  12 -17   1   19.83    9.12
  13 -17   1   32.58   10.89
  14 -17   1   16.24    8.77
  15 -17   1    0.80    6.88
  -3 -16   1   17.52    4.87
  -2 -16   1   22.12    5.99
  -1 -16   1    5.15    4.21
   0 -16   1   80.75   10.37
   1 -16   1   -1.65    2.32
   2 -16   1   85.27   10.25
   3 -16   1    1.20    2.88
   4 -16   1   16.11    4.85
   5 -16   1   19.55    5.12
   6 -16   1   21.26    8.01
   6 -16   1   16.73    4.82
   7 -16   1   12.33    4.29
   7 -16   1   26.76    9.22
   8 -16   1    9.98    7.41
   8 -16   1   10.84    4.13
   9 -16   1   -3.68    5.28
  10 -16   1   11.36    7.91
  11 -16   1    4.30    6.30
  12 -16   1   65.49   14.03
  13 -16   1   91.66   16.60
  14 -16   1   -5.27    5.61
  15 -16   1   -3.84    5.37
  16 -16   1    3.74    7.69
  -4 -15   1    7.91    4.08
  -3 -15   1   22.04    5.25
  -2 -15   1   -2.69    2.50
  -1 -15   1    2.37    3.01
   0 -15   1    3.98    3.09
   1 -15   1    6.06    3.75
   2 -15   1    1.98    2.43
   3 -15   1    0.59    2.78
   4 -15   1   77.76    9.08
   5 -15   1   45.06    6.80
   6 -15   1   -3.51    6.25
   6 -15   1    2.33    2.53
   7 -15   1   71.89    8.34
   8 -15   1  119.25   10.88
   8 -15   1  139.57   17.40
   9 -15   1   65.84   12.73
  10 -15   1   15.77    7.59
  11 -15   1   26.73    9.71
  12 -15   1  100.43   16.33
  13 -15   1   26.62   10.55
  14 -15   1   12.17    9.19
  15 -15   1    1.39    8.10
  16 -15   1   -4.24    5.89
  -6 -14   1    3.66    2.94
  -5 -14   1   35.94    6.97
  -4 -14   1    1.18    2.64
  -3 -14   1   -1.45    2.07
  -2 -14   1    1.51    2.29
  -1 -14   1   -2.14    2.39
   0 -14   1   24.47    5.73
   1 -14   1    3.56    2.86
   2 -14   1    0.85    2.51
   3 -14   1   -0.04    2.05
   4 -14   1   91.29    9.45
   5 -14   1    2.69    2.75
   5 -14   1    2.43    6.61
   6 -14   1   11.96    3.78
   6 -14   1   22.05    7.64
   7 -14   1  105.18    9.65
   7 -14   1  108.00   14.71
   8 -14   1   19.03    8.22
   8 -14   1   23.64    4.77
   9 -14   1    8.78    6.65
  10 -14   1   13.78    7.83
  11 -14   1   52.00   11.86
  12 -14   1   53.61   12.36
  13 -14   1   -3.06    6.11
  14 -14   1   56.21   13.70
  15 -14   1   31.71   11.70
  16 -14   1    2.90    6.37
  17 -14   1    2.32    7.98
  -7 -13   1    8.74    3.42
  -6 -13   1   17.84    4.73
  -5 -13   1    2.28    2.50
  -4 -13   1    7.53    3.52
  -3 -13   1   12.43    4.10
  -2 -13   1   35.93    6.34
  -1 -13   1   35.70    6.39
   0 -13   1   22.80    5.21
   1 -13   1   18.10    4.78
   2 -13   1   44.31    6.48
   3 -13   1   -5.94    5.40
   3 -13   1    2.93    2.41
   4 -13   1  106.12    9.55
   5 -13   1   99.03    9.09
   6 -13   1   10.64    3.36
   6 -13   1    5.12    6.68
   7 -13   1   30.18    9.11
   7 -13   1   29.15    4.90
   8 -13   1   81.55   13.09
   9 -13   1   31.73    9.75
  11 -13   1   33.93   10.10
  12 -13   1   -1.39    6.23
  13 -13   1    3.69    7.25
  14 -13   1   17.16   10.08
  15 -13   1   20.81   10.05
  16 -13   1   17.57   10.47
  17 -13   1   17.55   11.69
  -8 -12   1    4.73    3.36
  -8 -12   1   -2.20    2.22
  -7 -12   1    5.01    2.44
  -7 -12   1    2.08    2.60
  -6 -12   1    6.67    2.49
  -6 -12   1    5.10    2.70
  -5 -12   1    5.07    2.62
  -4 -12   1   21.83    4.95
  -3 -12   1    7.25    3.20
  -2 -12   1   37.50    6.10
  -1 -12   1   60.66    7.56
   0 -12   1   64.15    7.64
   1 -12   1   25.74    5.10
   2 -12   1  514.35   37.93
   2 -12   1  592.47   32.65
   3 -12   1  229.51   15.76
   4 -12   1    9.20    3.13
   4 -12   1    5.96    6.30
   5 -12   1    5.42    2.50
   5 -12   1   14.25    7.57
   6 -12   1   36.97    5.01
   6 -12   1   29.21    8.68
   7 -12   1   76.21    7.18
   7 -12   1   74.65   12.25
   8 -12   1   52.49    5.87
   8 -12   1   53.48   10.81
   9 -12   1    6.04    6.71
  10 -12   1   -0.51    5.96
  11 -12   1   -6.30    4.70
  12 -12   1   11.87    7.90
  13 -12   1    6.15    7.52
  14 -12   1   11.43    8.66
  15 -12   1    0.31    7.07
  16 -12   1    9.83    9.51
  17 -12   1    8.45    9.37
  18 -12   1    8.75   11.09
  -9 -11   1   -1.46    2.24
  -9 -11   1    4.23    2.62
  -8 -11   1   20.75    4.24
  -8 -11   1   18.96    4.97
  -7 -11   1   -0.02    2.32
  -7 -11   1    2.82    2.09
  -6 -11   1  104.37    8.11
  -6 -11   1   96.90    9.67
  -5 -11   1    8.82    3.34
  -4 -11   1   21.22    4.83
  -2 -11   1   79.53    8.37
  -1 -11   1    7.15    3.06
   0 -11   1   96.34    8.70
   1 -11   1  310.43   19.10
   1 -11   1  278.18   22.30
   2 -11   1  435.71   24.41
   2 -11   1  361.24   28.57
   3 -11   1   15.89    3.61
   3 -11   1   20.04    6.77
   4 -11   1    7.52    2.70
   4 -11   1   13.25    6.52
   5 -11   1  130.14   10.47
   5 -11   1  190.85   16.52
   6 -11   1  216.08   20.03
   6 -11   1  229.21   14.73
   7 -11   1   72.00   11.50
   8 -11   1   19.01    7.32
   8 -11   1   23.51    3.79
   9 -11   1   29.60    8.95
  10 -11   1    3.40    6.10
  11 -11   1   77.56   13.39
  12 -11   1   15.48    8.34
  13 -11   1   -2.93    6.91
  14 -11   1   18.35    8.67
  15 -11   1   -0.87    7.68
  16 -11   1    9.92    8.99
  17 -11   1    4.36    7.86
  18 -11   1   -3.24    9.80
 -10 -10   1    2.19    2.92
 -10 -10   1   -1.32    2.18
  -9 -10   1    8.31    3.12
  -9 -10   1    4.91    2.74
  -8 -10   1    2.74    3.05
  -8 -10   1    1.12    1.86
  -7 -10   1   44.89    5.68
  -7 -10   1   22.95    5.27
  -6 -10   1   27.72    5.31
  -5 -10   1   36.99    5.91
  -4 -10   1   45.11    6.42
  -3 -10   1   11.20    3.10
  -2 -10   1  203.56   14.26
  -1 -10   1   -1.78    1.48
   0 -10   1   60.51    6.63
   1 -10   1  281.74   23.17
   1 -10   1  365.52   20.28
   2 -10   1  177.67   11.56
   2 -10   1  132.06   14.24
   3 -10   1   20.71    6.53
   4 -10   1    4.69    1.98
   4 -10   1    5.64    5.01
   5 -10   1  195.61   16.72
   5 -10   1  147.88   10.92
   6 -10   1  166.38   11.23
   6 -10   1  156.91   16.10
   7 -10   1   11.94    2.81
   7 -10   1   12.98    6.28
   8 -10   1    9.86    2.56
   8 -10   1   11.65    6.40
  -9  10  -1   30.70    3.66
   9 -10   1   42.86    9.19
 -10  10  -1   28.50    3.55
  10 -10   1   17.03    8.22
  11 -10   1   33.21   10.15
 -11  10  -1   39.60    4.44
 -12  10  -1    9.87    2.45
  12 -10   1    7.21    7.30
 -13  10  -1    5.18    1.87
  13 -10   1    2.67    5.92
  14 -10   1    8.69    7.75
  15 -10   1    2.43    7.03
  16 -10   1   37.38   11.97
  17 -10   1   -2.96    7.58
 -11  -9   1   -3.32    2.95
 -10  -9   1   -1.60    2.57
 -10  -9   1    3.38    2.81
  -9  -9   1    1.00    2.25
  -9  -9   1    0.41    1.76
  -8  -9   1   11.61    3.60
  -8  -9   1   13.01    3.23
  -7  -9   1   90.14    8.64
  -7  -9   1   85.45    7.32
  -6  -9   1   38.06    5.91
  -5  -9   1   30.92    5.24
  -4  -9   1    7.23    2.86
  -3  -9   1  419.04   25.06
  -2  -9   1   67.01    6.93
  -1  -9   1   11.55    3.30
   0  -9   1   12.41    2.99
   0  -9   1   11.68    4.39
   1  -9   1  213.18   17.53
   1  -9   1  241.71   14.79
   2  -9   1  180.70   12.08
   2  -9   1  185.12   15.45
   3  -9   1   19.09    3.34
   3  -9   1   43.10    6.93
   4  -9   1  147.87   10.15
   5  -9   1  291.29   23.45
   5  -9   1  316.57   18.09
   6  -9   1    2.29    1.36
   6  -9   1    6.66    5.19
   7  -9   1    7.00    5.44
   7  -9   1    5.59    2.04
   8  -9   1   26.27    7.88
   8  -9   1   43.27    4.48
  -8   9  -1   40.83    3.78
  -9   9  -1  246.86   12.94
   9  -9   1  225.38   21.79
 -10   9  -1   81.91    5.90
  10  -9   1   73.83   12.53
  11  -9   1   32.94    9.79
 -11   9  -1   28.51    3.92
  12  -9   1   29.47   10.12
 -12   9  -1   25.81    3.88
 -13   9  -1   28.20    4.16
  13  -9   1   32.26   10.30
 -14   9  -1   49.42    5.78
  14  -9   1   51.94   12.56
 -15   9  -1   25.65    4.31
  15  -9   1   39.32   11.97
  16  -9   1   62.00   13.68
 -16   9  -1   60.25    6.87
  17  -9   1   -6.30    7.38
 -17   9  -1    8.48    3.10
 -11  -8   1   40.72    6.53
 -10  -8   1    2.85    2.44
 -10  -8   1    6.25    2.66
  -9  -8   1    0.27    1.93
  -9  -8   1    1.93    2.03
  -8  -8   1   71.76    7.94
  -8  -8   1   59.11    6.82
  -7  -8   1   24.36    4.91
  -7  -8   1   39.67    5.15
  -6  -8   1   11.08    3.28
  -5  -8   1    1.41    1.98
  -4  -8   1   87.23    7.84
  -3  -8   1  303.02   18.88
  -2  -8   1   17.10    3.69
  -1  -8   1  115.25    9.49
  -1  -8   1  102.41    8.35
   0  -8   1  332.16   19.18
   0  -8   1  310.25   22.04
   1  -8   1   35.72    4.27
   1  -8   1   40.97    6.18
   2  -8   1    0.42    1.22
   2  -8   1    4.57    3.75
   3  -8   1   62.11    5.45
   4  -8   1  202.57   17.57
   4  -8   1  225.43   13.33
   5  -8   1   38.84    7.38
   6  -8   1   43.64    8.47
   6  -8   1   68.29    5.34
  -7   8  -1   30.43    3.09
   7  -8   1   19.33    6.42
   7  -8   1   34.38    3.68
   8  -8   1    2.67    1.45
  -8   8  -1    1.53    1.16
   8  -8   1    1.17    4.93
  -9   8  -1   -0.03    1.09
   9  -8   1   -2.95    5.08
 -10   8  -1    2.94    1.44
  10  -8   1    0.22    6.36
 -11   8  -1   68.58    5.63
  11  -8   1   65.49   12.09
  12  -8   1   -0.75    5.94
 -12   8  -1    4.08    1.88
  13  -8   1  -11.44    4.90
 -13   8  -1    3.41    1.92
 -14   8  -1  199.80   12.69
  14  -8   1  191.17   21.47
  15  -8   1  104.05   15.99
 -15   8  -1   76.46    7.83
  16  -8   1    3.70    6.75
 -16   8  -1    5.04    2.45
 -17   8  -1   31.50    5.37
 -18   8  -1   26.00    4.62
 -12  -7   1    1.01    2.92
 -11  -7   1   36.08    6.03
 -10  -7   1    2.38    2.22
 -10  -7   1   -0.25    1.87
  -9  -7   1   13.77    3.80
  -9  -7   1   14.00    3.54
  -8  -7   1   40.53    5.56
  -8  -7   1   43.43    6.18
  -7  -7   1   54.05    6.54
  -6  -7   1   80.03    7.39
  -5  -7   1   66.16    6.34
  -4  -7   1   96.62    7.86
  -3  -7   1    2.44    1.72
  -2  -7   1    0.85    1.38
  -1  -7   1    8.02    2.31
  -1  -7   1   11.86    3.18
   0  -7   1   38.86    4.52
   0  -7   1   50.54    6.07
   1  -7   1   17.59    2.82
   1  -7   1   12.24    3.94
   2  -7   1   20.50    4.42
   2  -7   1   12.84    2.49
   3  -7   1   35.34    3.72
   4  -7   1  356.53   19.71
   4  -7   1  348.63   25.14
   5  -7   1    6.13    1.77
   5  -7   1    4.72    3.83
   6  -7   1  216.10   12.52
  -6   7  -1  215.62   10.88
   6  -7   1  197.17   17.57
  -7   7  -1    1.47    1.04
   7  -7   1    1.30    1.35
   7  -7   1    3.42    4.37
  -8   7  -1   94.50    6.16
   8  -7   1  101.68   12.13
   9  -7   1   24.24    7.29
  -9   7  -1   16.91    2.66
  10  -7   1  200.00   19.03
 -10   7  -1  183.67   10.89
  11  -7   1  211.02   20.92
 -11   7  -1  205.77   12.08
 -12   7  -1   48.47    5.41
  12  -7   1   51.87   11.03
  13  -7   1   71.22   12.91
 -13   7  -1   68.34    6.79
  14  -7   1  199.81   21.34
 -14   7  -1  183.79   12.36
 -15   7  -1   27.46    4.55
  15  -7   1   14.17    8.85
 -16   7  -1    3.94    2.32
 -17   7  -1   23.30    4.54
 -18   7  -1   -2.84    2.05
 -13  -6   1   -2.20    3.01
 -12  -6   1   12.68    4.07
 -11  -6   1   12.11    3.59
 -10  -6   1   11.82    3.53
 -10  -6   1   16.91    3.88
  -9  -6   1  155.61   12.06
  -9  -6   1  164.08   11.11
  -8  -6   1    2.14    2.26
  -8  -6   1    5.84    2.47
  -7  -6   1   14.13    3.31
  -6  -6   1   20.04    3.73
  -5  -6   1    3.96    2.11
  -4  -6   1  236.08   14.79
  -3  -6   1   71.50    6.10
  -2  -6   1   54.54    5.03
  -1  -6   1    1.59    2.13
  -1  -6   1    0.11    1.07
   0  -6   1  201.75   15.43
   0  -6   1  245.86   13.58
   1  -6   1    2.63    2.66
   1  -6   1    5.57    1.73
   2  -6   1   93.29    6.55
   3  -6   1  341.65   24.33
   3  -6   1  365.47   19.60
   4  -6   1  783.66   49.54
   5  -6   1   31.62    3.11
  -5   6  -1   27.59    2.60
   5  -6   1   36.11    6.13
   6  -6   1   28.18    6.21
  -6   6  -1   24.95    2.57
   6  -6   1   27.45    2.89
   7  -6   1    6.97    4.86
  -7   6  -1    4.64    1.33
  -8   6  -1  260.93   13.37
   8  -6   1  248.12   20.91
  -9   6  -1  174.86   10.38
   9  -6   1  203.68   17.98
  10  -6   1  130.98   14.65
 -10   6  -1  122.28    8.04
  11  -6   1   34.36    9.91
 -11   6  -1   36.81    4.38
  12  -6   1   24.99    8.99
 -12   6  -1   29.04    4.13
 -13   6  -1   43.36    5.28
  13  -6   1   39.08   10.27
  14  -6   1  208.07   21.77
 -14   6  -1  210.53   13.25
 -15   6  -1    1.19    1.92
 -16   6  -1   10.75    3.08
 -17   6  -1    4.13    2.65
 -13  -5   1    4.63    3.13
 -12  -5   1    4.21    2.53
 -11  -5   1    4.45    2.44
 -10  -5   1   37.54    5.38
 -10  -5   1   28.66    4.97
  -9  -5   1  130.36   10.39
  -9  -5   1  150.96   10.13
  -8  -5   1   27.55    4.50
  -8  -5   1   30.59    4.62
  -7  -5   1    7.33    2.44
  -6  -5   1   50.09    5.37
  -5  -5   1    0.21    1.41
  -4  -5   1  245.91   14.97
  -3  -5   1   65.44    5.49
  -2  -5   1   -0.25    0.99
  -1  -5   1    2.57    2.15
  -1  -5   1    4.87    1.59
   0  -5   1  868.82   58.33
   0  -5   1 1091.84   50.98
   1  -5   1 1486.97   77.30
   1  -5   1 1533.97   89.88
   2  -5   1   80.04    5.52
   4  -5   1  287.64   19.98
  -4   5  -1  265.70   13.00
   4  -5   1  272.68   15.01
   5  -5   1   20.55    2.24
   5  -5   1   20.57    5.00
  -5   5  -1   17.48    2.04
   6  -5   1   63.29    8.48
  -6   5  -1   67.04    4.45
   7  -5   1  233.00   18.92
  -7   5  -1  228.09   11.89
   8  -5   1   63.51    8.99
  -8   5  -1   50.67    4.28
   9  -5   1   17.78    6.58
  -9   5  -1   12.77    2.35
  10  -5   1   35.77    8.43
 -10   5  -1   21.35    3.36
  11  -5   1   15.52    7.30
 -11   5  -1   19.78    3.20
 -12   5  -1    3.41    1.72
  12  -5   1   -7.67    4.85
 -13   5  -1   11.30    2.78
  13  -5   1    4.67    6.64
 -14   5  -1   12.04    2.95
 -15   5  -1    3.27    2.39
 -16   5  -1   57.08    7.22
 -17   5  -1    5.38    2.72
 -14  -4   1   -0.52    3.35
 -13  -4   1    2.43    3.03
 -12  -4   1   12.69    3.73
 -11  -4   1   52.34    6.56
 -10  -4   1   90.16    7.53
 -10  -4   1   73.22    7.10
  -9  -4   1  139.83   10.68
  -9  -4   1  159.35   10.33
  -8  -4   1    5.60    2.30
  -8  -4   1    0.58    1.48
  -7  -4   1    0.61    1.44
  -6  -4   1   13.69    2.81
  -5  -4   1    8.32    2.20
  -4  -4   1   18.48    2.88
  -3  -4   1    2.29    1.35
  -2  -4   1  290.05   16.37
  -1  -4   1  374.02   21.04
  -1  -4   1  299.96   18.34
   0  -4   1 1990.92   92.53
   0  -4   1 1645.08  106.54
   1  -4   1   15.78    2.05
   1  -4   1   32.36    4.39
   2  -4   1  110.54    9.37
   2  -4   1  101.11    6.34
   3  -4   1    0.94    0.85
   3  -4   1    0.79    3.03
  -3   4  -1    1.73    0.79
   4  -4   1 1134.88   68.00
   4  -4   1 1111.56   56.87
  -4   4  -1 1107.23   49.32
  -5   4  -1  547.81   24.69
   5  -4   1  522.70   34.86
   6  -4   1   55.97    7.56
  -6   4  -1   56.32    4.04
   7  -4   1  322.31   23.59
  -7   4  -1  316.24   16.55
  -7   4  -1  316.38   15.77
  -8   4  -1  271.90   14.64
  -8   4  -1  286.95   15.13
   8  -4   1  311.25   22.75
   9  -4   1    3.07    4.57
  -9   4  -1    2.39    1.43
  10  -4   1   35.48    8.32
 -10   4  -1   30.81    3.99
 -11   4  -1   73.60    6.08
  11  -4   1   87.54   12.20
  12  -4   1   11.62    7.21
 -12   4  -1   22.06    3.77
 -13   4  -1    0.70    1.76
 -14   4  -1   23.21    4.10
 -15   4  -1    2.06    2.15
 -16   4  -1    1.80    2.37
 -17   4  -1    4.35    2.69
 -14  -3   1    0.51    2.60
 -13  -3   1   12.69    4.13
 -12  -3   1   52.33    6.65
 -11  -3   1   36.39    5.50
 -10  -3   1   21.76    4.00
 -10  -3   1   29.59    4.31
  -9  -3   1  402.54   20.52
  -9  -3   1  366.24   22.34
  -8  -3   1    3.06    1.77
  -8  -3   1   -0.02    1.42
  -7  -3   1   28.37    3.83
  -6  -3   1   48.57    4.60
  -5  -3   1  353.13   19.91
  -4  -3   1   85.75    6.16
  -3  -3   1  784.05   41.00
  -2  -3   1    1.12    0.95
  -1  -3   1 1239.09   66.25
  -1  -3   1 1357.49   76.26
   0  -3   1  804.39   37.18
   0  -3   1  636.16   42.74
   1  -3   1 1453.92   73.69
  -2   3  -1   43.67    2.75
   2  -3   1   41.57    4.88
   3  -3   1   87.86    8.28
   3  -3   1   86.62    5.08
  -3   3  -1   84.32    4.63
   4  -3   1  232.90   16.28
  -4   3  -1  221.78   10.92
  -5   3  -1   24.52    2.41
   5  -3   1   20.49    4.35
  -6   3  -1   87.62    5.76
   6  -3   1  100.30    9.63
  -6   3  -1   98.82    5.44
   7  -3   1  505.05   35.51
  -7   3  -1  533.34   25.36
  -7   3  -1  559.57   27.76
  -8   3  -1   52.10    4.45
   8  -3   1   54.85    8.43
  -8   3  -1   58.62    3.79
  -9   3  -1   13.31    2.57
   9  -3   1   12.21    5.60
  10  -3   1  103.32   12.40
 -10   3  -1   90.83    6.85
  11  -3   1   56.88   10.10
 -11   3  -1   55.13    5.76
 -12   3  -1  115.08    8.37
  12  -3   1  101.95   13.07
 -13   3  -1  176.72   11.79
 -14   3  -1    9.63    2.81
 -15   3  -1    5.81    2.59
 -16   3  -1   11.35    3.13
 -15  -2   1    8.83    3.16
 -14  -2   1   18.53    4.00
 -13  -2   1    9.37    3.18
 -12  -2   1    2.65    2.24
 -11  -2   1    3.12    2.22
 -10  -2   1    2.23    1.85
 -10  -2   1    1.17    1.55
  -9  -2   1    8.57    2.50
  -9  -2   1   13.27    2.83
  -8  -2   1  104.15    7.38
  -8  -2   1  101.95    7.62
  -7  -2   1    9.85    2.30
   7   2  -1    8.19    3.05
  -7  -2   1   10.21    2.30
   6   2  -1  258.11   16.53
  -6  -2   1  240.28   14.52
  -5  -2   1  217.03   12.81
   5   2  -1  219.49   14.23
  -4  -2   1  468.44   25.95
   4   2  -1  501.49   29.22
  -3  -2   1  425.92   22.72
  -2  -2   1  191.60   10.75
  -1  -2   1   56.11    3.78
   0  -2   1   87.89    4.72
   0  -2   1   69.04    5.43
   2  -2   1   72.27    6.09
  -2   2  -1   72.31    3.79
   2  -2   1   71.09    3.98
   3  -2   1  961.80   58.52
  -3   2  -1  984.52   42.96
  -4   2  -1   41.17    3.01
  -4   2  -1   42.44    2.56
   4  -2   1   45.20    5.40
  -5   2  -1    6.90    0.95
   5  -2   1    5.66    3.01
  -5   2  -1    7.73    1.56
  -6   2  -1  460.64   23.83
   6  -2   1  457.62   30.19
  -6   2  -1  458.97   21.75
   7  -2   1  502.98   35.10
  -7   2  -1  546.60   27.94
  -7   2  -1  553.42   25.52
  -8   2  -1  162.08   10.10
   8  -2   1  193.22   15.92
  -8   2  -1  189.44   10.41
  -9   2  -1    7.91    2.06
   9  -2   1    2.74    2.96
 -10   2  -1   23.61    3.57
  11  -2   1   -5.03    4.71
 -11   2  -1   -0.28    0.99
 -12   2  -1   88.68    7.31
 -13   2  -1    2.56    1.69
 -14   2  -1    2.41    2.22
 -15   2  -1   40.57    6.06
 -16   2  -1   14.21    4.13
 -15  -1   1   12.22    3.50
 -14  -1   1    3.58    2.45
 -13  -1   1   -0.03    1.82
 -12  -1   1   19.66    3.78
 -11  -1   1   20.46    3.79
 -10  -1   1    1.65    1.60
 -10  -1   1    1.68    1.43
  -9  -1   1   37.03    4.43
  -9  -1   1   29.47    3.85
  -8  -1   1   48.51    5.05
   8   1  -1   60.60    7.00
  -8  -1   1   71.03    5.32
  -7  -1   1  127.74    8.17
  -7  -1   1  118.75    7.62
   7   1  -1  118.46   10.07
  -6  -1   1   25.04    2.82
   6   1  -1   22.44    4.07
  -5  -1   1  445.92   24.18
   5   1  -1  459.46   28.19
   4   1  -1  730.11   43.13
  -4  -1   1  708.93   37.36
   3   1  -1 1033.89   61.62
  -3  -1   1 1058.71   53.54
  -2  -1   1   64.16    4.30
   2   1  -1   71.89    4.78
  -1  -1   1 1518.68   76.79
   0  -1   1 1925.58  112.54
   1  -1   1  575.74   33.43
  -1   1  -1  547.45   24.66
  -2   1  -1   25.42    1.86
   2  -1   1   20.66    2.92
   3  -1   1  163.63   12.10
  -3   1  -1  167.76    8.29
  -3   1  -1  171.88    8.90
  -4   1  -1   27.96    2.04
   4  -1   1   22.52    3.86
  -4   1  -1   26.65    2.42
  -5   1  -1  590.23   30.34
  -5   1  -1  584.40   27.02
  -6   1  -1  244.05   12.66
  -6   1  -1  250.67   13.56
  -7   1  -1   72.92    5.18
  -7   1  -1   68.85    4.80
   8  -1   1   23.73    5.76
  -8   1  -1   31.50    3.05
  -8   1  -1   30.45    3.75
   9  -1   1   47.26    7.86
  -9   1  -1   36.64    4.36
 -10   1  -1    2.65    1.46
  10  -1   1    3.53    5.08
 -11   1  -1    3.09    1.85
 -12   1  -1   -0.60    1.46
 -13   1  -1   38.76    5.51
 -14   1  -1   62.49    7.45
 -15   1  -1   14.76    3.87
 -16   1  -1    6.32    2.55
 -16   0   1    3.58    2.66
 -15   0   1    1.67    1.88
 -14   0   1    6.40    2.55
 -13   0   1    2.67    2.05
 -12   0   1    7.48    2.50
 -11   0   1    1.55    1.58
 -10   0   1    0.94    1.19
 -10   0   1    1.56    1.27
  -9   0   1  180.79   10.71
   9   0  -1  184.41   14.85
  -9   0   1  177.03   11.23
  -8   0   1   33.64    3.44
   8   0  -1   26.71    5.29
  -8   0   1   35.23    3.91
   7   0  -1   25.26    4.70
  -7   0   1   27.77    3.27
  -7   0   1   26.67    2.87
  -6   0   1  177.39   10.24
   6   0  -1  170.88   13.09
  -6   0   1  169.33    9.37
  -5   0   1  196.43   11.21
   5   0  -1  202.21   14.10
   4   0  -1    2.61    2.38
  -4   0   1    4.18    1.03
   3   0  -1  680.75   39.47
  -3   0   1  632.85   33.61
   1   0  -1    0.04    0.12
   0   0  -1   -5.40    0.14
   0   0  -1   -5.70    0.17
   0   0   1   -5.89    0.15
  -1   0  -1   67.48    3.75
  -1   0  -1   66.39    3.39
  -2   0  -1   97.71    5.07
  -2   0  -1   99.69    5.51
  -3   0  -1 1078.82   48.36
  -3   0  -1 1112.66   55.69
   4   0   1   67.15    6.49
  -4   0  -1   75.00    4.61
  -4   0  -1   66.82    4.37
  -5   0  -1  193.61   10.73
  -5   0  -1  183.76    9.87
   5   0   1  187.45   13.62
   6   0   1   91.10    9.10
  -6   0  -1  112.43    6.87
  -6   0  -1  110.75    6.65
  -7   0  -1   47.60    4.02
   7   0   1   54.82    6.55
  -7   0  -1   51.37    4.28
   8   0   1   23.01    5.52
  -8   0  -1   18.50    3.06
  -8   0  -1   19.24    2.67
  -9   0  -1    1.80    1.17
  -9   0  -1   -1.07    1.05
   9   0   1    2.39    4.26
 -10   0  -1   29.09    4.41
 -11   0  -1   38.37    5.12
 -12   0  -1   95.72    7.89
 -13   0  -1  107.71    8.81
 -14   0  -1   70.39    8.09
 -15   0  -1   -0.11    2.12
 -16   1   1   -4.06    2.05
 -15   1   1    5.84    2.58
 -14   1   1    8.44    2.92
 -13   1   1   30.69    4.69
 -12   1   1    0.65    1.35
 -11   1   1   12.57    2.69
 -10   1   1   71.75    5.93
  10  -1  -1   76.59    9.69
   9  -1  -1   15.24    5.14
  -9   1   1    6.25    2.04
  -9   1   1    8.66    1.85
   8  -1  -1   75.21    8.69
  -8   1   1   81.14    5.56
  -8   1   1   69.28    5.25
  -7   1   1  110.27    6.48
   7  -1  -1   76.01    8.77
  -7   1   1   98.67    6.25
  -6   1   1  903.04   45.89
  -6   1   1  879.68   40.28
  -5   1   1 1133.51   49.89
  -5   1   1 1111.77   57.18
   4  -1  -1  364.68   23.50
  -4   1   1  373.62   16.91
  -4   1   1  358.49   19.11
   3  -1  -1 2586.96  151.38
   2  -1  -1 1044.18   61.76
   1  -1  -1  434.10   24.74
   1  -1  -1  535.12   29.14
   1   1   1   43.64    3.18
  -1  -1  -1   45.59    2.92
  -1  -1  -1   38.01    2.40
   2   1   1 2267.71  131.76
  -2  -1  -1 2235.08  114.04
  -2  -1  -1 2277.17   98.35
   3   1   1  461.92   28.28
  -3  -1  -1  466.20   21.32
  -3  -1  -1  466.53   24.41
  -4  -1  -1   88.03    5.55
   4   1   1   78.62    6.83
  -4  -1  -1   85.53    5.18
  -5  -1  -1    9.88    1.69
  -5  -1  -1    8.16    1.79
   5   1   1   11.71    2.83
  -6  -1  -1   93.91    6.27
  -6  -1  -1   83.00    5.85
   6   1   1   91.89    8.19
  -7  -1  -1    2.28    1.35
  -7  -1  -1    0.83    1.04
   7   1   1    0.46    2.64
  -8  -1  -1   -0.04    1.24
  -8  -1  -1    1.79    1.41
   8   1   1    1.42    3.86
  -9  -1  -1  105.52    7.69
  -9  -1  -1  104.18    7.66
 -10  -1  -1    1.01    1.49
 -11  -1  -1    9.88    2.74
 -12  -1  -1  102.44    8.40
 -13  -1  -1   27.99    4.66
 -14  -1  -1    3.62    2.25
 -15  -1  -1   18.61    4.33
 -17   2   1   -0.57    2.24
 -16   2   1    5.55    2.56
 -15   2   1   13.80    3.26
 -14   2   1   78.78    7.90
 -13   2   1  167.06   11.39
 -12   2   1    1.89    1.74
 -11   2   1   10.16    2.29
  11  -2  -1    4.36    5.48
  -9   2   1   68.05    4.87
  -9   2   1   58.31    5.01
  -8   2   1  334.42   16.98
  -8   2   1  343.47   18.44
   8  -2  -1  337.43   24.22
   7  -2  -1  758.51   47.41
  -7   2   1  741.71   34.19
  -7   2   1  738.84   38.57
   6  -2  -1  362.15   24.45
  -6   2   1  349.89   17.07
  -6   2   1  362.55   18.99
  -5   2   1    3.13    1.04
   5  -2  -1   -2.86    2.99
  -4   2   1   11.89    1.41
   4  -2  -1   13.09    3.88
  -3   2   1   57.95    3.14
   3  -2  -1   56.13    6.22
  -2   2   1  342.15   15.30
   2  -2  -1  352.43   21.88
   1  -2  -1    5.80    1.10
   1  -2  -1    9.22    2.12
   0  -2  -1  269.20   14.94
   0  -2  -1  290.82   17.32
   1   2   1  741.67   44.04
  -1  -2  -1  759.87   38.69
   2   2   1    0.83    1.13
  -2  -2  -1    0.79    0.91
  -3  -2  -1   -0.55    0.62
   3   2   1    0.41    1.33
  -3  -2  -1    0.07    0.83
   4   2   1  134.61    9.45
  -4  -2  -1  132.09    8.33
  -4  -2  -1  134.02    7.50
   5   2   1   25.47    3.69
  -5  -2  -1   28.60    3.19
  -5  -2  -1   36.42    3.40
  -6  -2  -1  221.84   13.20
  -6  -2  -1  214.55   11.91
   6   2   1  224.85   15.33
   7   2   1   89.44    8.73
  -7  -2  -1   96.74    6.97
  -7  -2  -1   91.71    6.53
  -8  -2  -1  255.66   14.38
  -8  -2  -1  259.73   15.57
  -9  -2  -1    7.59    2.26
  -9  -2  -1    8.29    2.52
 -10  -2  -1    1.75    1.98
 -11  -2  -1   35.73    5.54
 -12  -2  -1   33.85    5.53
 -13  -2  -1    3.75    3.11
 -14  -2  -1   -3.23    2.15
 -17   3   1    4.65    2.68
 -16   3   1    1.01    2.25
 -15   3   1   83.51    8.45
 -14   3   1   78.45    7.78
 -13   3   1   70.11    7.02
 -12   3   1   -0.27    1.48
  12  -3  -1   -1.85    2.81
  11  -3  -1  127.23   13.89
 -11   3   1  127.40    8.56
  10  -3  -1  148.44   14.70
 -10   3   1  142.07    9.05
  -9   3   1   38.87    4.16
  -9   3   1   43.26    3.39
   9  -3  -1   49.92    8.03
   8  -3  -1  321.65   22.89
  -8   3   1  297.87   16.40
  -8   3   1  297.44   15.28
   7  -3  -1  922.15   57.79
  -7   3   1  917.74   41.59
  -6   3   1  707.00   31.89
   6  -3  -1  698.59   44.75
   5  -3  -1   95.43    9.47
  -5   3   1  101.06    5.52
   4  -3  -1   29.41    4.91
  -4   3   1   28.06    2.08
   3  -3  -1 1415.20   83.12
  -3   3   1 1370.27   60.57
   2  -3  -1  275.18   15.11
   2  -3  -1  276.81   18.48
   1  -3  -1  364.10   19.43
   0  -3  -1  242.20   14.10
   0  -3  -1  269.11   16.62
   1   3   1   45.11    2.87
  -1  -3  -1   45.15    3.71
   1   3   1   40.03    3.35
  -2  -3  -1 1015.78   56.39
   2   3   1 1168.97   64.25
  -3  -3  -1  278.06   16.36
   3   3   1  303.20   17.99
  -4  -3  -1   94.93    6.89
  -4  -3  -1  106.98    6.28
   4   3   1  102.08    7.45
  -5  -3  -1  110.50    7.89
  -5  -3  -1  123.39    7.35
   5   3   1  116.69    8.67
  -6  -3  -1    6.73    2.02
  -6  -3  -1   10.23    2.35
   6   3   1    5.07    2.74
  -7  -3  -1  248.13   13.68
  -7  -3  -1  243.66   15.04
  -8  -3  -1   42.86    4.97
  -8  -3  -1   42.82    4.99
  -9  -3  -1   -0.08    1.56
  -9  -3  -1   -0.56    1.68
 -10  -3  -1    4.79    2.39
 -11  -3  -1   74.71    7.93
 -12  -3  -1   26.97    5.00
 -13  -3  -1    5.26    3.12
 -14  -3  -1   -1.11    2.81
 -17   4   1    2.41    2.33
 -16   4   1   12.09    3.59
 -15   4   1  120.73    9.56
 -14   4   1   57.73    6.51
  13  -4  -1   16.18    6.79
 -13   4   1    7.71    2.41
 -12   4   1    1.19    1.37
  12  -4  -1    6.52    6.07
  11  -4  -1  194.55   18.76
 -11   4   1  209.83   11.97
  10  -4  -1    4.25    5.38
 -10   4   1    2.27    1.43
  -9   4   1   23.53    2.27
   9  -4  -1   18.50    6.27
  -9   4   1   26.27    3.25
   8  -4  -1  154.91   14.91
  -8   4   1  175.14    9.37
   7  -4  -1    5.58    4.34
  -7   4   1    8.66    1.73
  -6   4   1  447.40   20.21
   6  -4  -1  414.62   29.33
   5  -4  -1   49.26    4.26
   5  -4  -1   52.08    6.88
  -5   4   1   48.78    3.23
   4  -4  -1  288.95   21.18
  -4   4   1  320.09   14.15
   3  -4  -1   13.70    2.09
   3  -4  -1    7.75    3.57
  -3   4   1   10.65    1.11
   2  -4  -1  172.73   10.54
   2  -4  -1  195.62   13.79
   1  -4  -1  843.55   47.35
   1  -4  -1  993.83   55.66
   0  -4  -1 1086.26   60.42
   0  -4  -1  930.57   52.02
  -1  -4  -1    2.32    1.35
   1   4   1    3.65    0.91
   1   4   1    4.51    1.18
   2   4   1    4.07    1.17
  -2  -4  -1    6.10    1.82
  -3  -4  -1  162.97   10.10
   3   4   1  151.63   10.06
   4   4   1   -0.38    1.31
  -4  -4  -1    0.08    1.16
  -5  -4  -1    0.16    1.33
  -5  -4  -1    1.27    1.15
  -6  -4  -1  110.27    8.35
  -6  -4  -1  112.46    7.49
  -7  -4  -1  148.32    9.59
  -7  -4  -1  154.32   10.83
  -8  -4  -1   73.65    6.51
  -8  -4  -1   90.49    7.64
  -9  -4  -1    1.35    1.90
  -9  -4  -1    0.13    1.87
 -10  -4  -1  129.92    9.82
 -11  -4  -1   64.15    7.41
 -12  -4  -1    8.20    3.22
 -13  -4  -1   -3.08    2.26
 -18   5   1    2.06    2.45
 -17   5   1   -0.77    2.33
 -16   5   1   19.12    4.07
 -15   5   1   15.01    3.37
  14  -5  -1    9.51    6.44
 -14   5   1    7.32    2.33
 -13   5   1    1.60    1.56
  13  -5  -1    5.24    5.88
  12  -5  -1   13.75    7.09
 -12   5   1   21.24    3.46
  11  -5  -1   42.32    8.96
 -11   5   1   40.49    4.48
 -10   5   1    6.01    1.90
  10  -5  -1   13.56    6.62
   9  -5  -1   43.45    8.09
  -9   5   1   41.57    3.99
   8  -5  -1    0.48    3.87
  -8   5   1    0.96    1.01
  -7   5   1  449.40   20.29
   7  -5  -1  399.36   29.78
  -6   5   1   55.39    3.76
   6  -5  -1   56.13    7.83
   6  -5  -1   64.26    5.02
  -5   5   1   24.49    2.13
   5  -5  -1   21.56    2.85
   5  -5  -1   27.94    5.39
   4  -5  -1   62.26    7.59
  -4   5   1   62.67    3.55
   3  -5  -1  738.29   38.59
   3  -5  -1  727.66   45.92
   2  -5  -1  231.55   13.47
   1  -5  -1   19.68    4.17
   1  -5  -1   23.87    2.87
   0  -5  -1  221.55   14.69
   0  -5  -1  192.23   12.30
  -1  -5  -1  187.31   11.35
   1   5   1  185.46   11.52
   1   5   1  172.39    9.68
   2   5   1  344.92   21.93
  -2  -5  -1  393.07   20.84
   3   5   1   -0.02    0.99
  -3  -5  -1   -0.32    1.09
  -4  -5  -1   46.78    5.09
  -5  -5  -1   46.54    5.27
  -5  -5  -1   45.39    4.48
  -6  -5  -1  140.08   10.17
  -6  -5  -1  132.18    8.73
  -7  -5  -1    2.44    1.79
  -7  -5  -1    1.44    1.52
  -8  -5  -1    3.40    2.05
  -8  -5  -1    4.90    2.41
  -9  -5  -1   85.42    8.04
  -9  -5  -1   99.89    7.93
 -10  -5  -1   43.88    6.04
 -11  -5  -1   -0.05    1.78
 -12  -5  -1   12.58    3.94
 -13  -5  -1    2.04    3.04
 -18   6   1    7.43    3.07
 -17   6   1   26.89    4.84
 -16   6   1   13.75    3.42
 -15   6   1   -0.61    1.58
  14  -6  -1    6.58    6.41
 -14   6   1    4.76    2.18
  13  -6  -1    8.31    6.76
 -13   6   1   17.01    3.18
  12  -6  -1   89.99   13.52
 -12   6   1  111.98    7.64
 -11   6   1   84.83    6.42
  11  -6  -1  110.12   13.48
 -10   6   1    1.47    1.21
  10  -6  -1    2.29    5.03
  -9   6   1   96.66    6.24
   9  -6  -1   90.75   11.65
  -8   6   1    3.50    1.30
   8  -6  -1    3.36    3.99
   7  -6  -1  355.55   19.66
  -7   6   1  344.05   16.55
   7  -6  -1  331.30   25.44
   6  -6  -1  147.35   14.12
   6  -6  -1  156.41   10.03
  -6   6   1  162.77    8.11
   5  -6  -1    5.31    3.93
  -5   6   1    9.43    1.31
   4  -6  -1  504.12   27.51
   4  -6  -1  510.02   33.66
   3  -6  -1    1.96    3.33
   3  -6  -1    2.44    1.38
   2  -6  -1    2.42    1.39
   2  -6  -1    4.07    3.18
   1  -6  -1   65.66    7.70
   1  -6  -1   86.72    6.26
   0  -6  -1   14.25    3.48
   0  -6  -1    8.53    2.22
  -1  -6  -1   27.08    3.68
   2   6   1  215.16   13.48
  -2  -6  -1  208.34   13.41
  -3  -6  -1  122.13    8.96
  -4  -6  -1  124.66    9.27
  -5  -6  -1   65.99    6.35
  -5  -6  -1   69.04    5.50
  -6  -6  -1  302.50   15.77
  -6  -6  -1  266.72   17.74
  -7  -6  -1    6.74    2.58
  -7  -6  -1    9.81    2.55
  -8  -6  -1   36.12    5.52
  -8  -6  -1   38.47    5.28
  -9  -6  -1   53.48    6.49
  -9  -6  -1   62.50    7.24
 -10  -6  -1   -2.99    1.49
 -11  -6  -1   19.34    4.63
 -12  -6  -1    0.03    2.42
 -18   7   1    5.19    3.37
 -17   7   1   25.80    4.66
 -16   7   1    4.05    2.14
  15  -7  -1    3.94    7.19
 -15   7   1    4.91    2.07
 -14   7   1   38.26    5.19
  13  -7  -1    8.70    6.69
 -13   7   1   12.18    3.14
  12  -7  -1   12.56    7.91
 -12   7   1   20.33    3.30
  11  -7  -1    2.51    6.11
 -11   7   1    2.53    1.31
 -10   7   1   -0.77    0.95
  10  -7  -1    2.58    5.35
  -9   7   1    0.93    1.02
   9  -7  -1    1.90    4.94
  -8   7   1    7.91    1.61
   8  -7  -1    2.38    3.97
   7  -7  -1    0.40    1.55
  -7   7   1    1.55    0.82
   7  -7  -1    1.31    4.03
  -6   7   1  127.92    6.60
   6  -7  -1  107.20   12.17
   5  -7  -1    1.45    3.41
   5  -7  -1    4.78    1.86
   4  -7  -1   13.95    4.83
   4  -7  -1   10.12    2.37
   3  -7  -1    8.94    4.05
   3  -7  -1    3.16    1.54
   2  -7  -1   46.69    4.82
   2  -7  -1   51.30    6.91
   1  -7  -1   16.84    3.03
   1  -7  -1   10.96    4.12
   0  -7  -1  214.10   15.82
   0  -7  -1  226.12   13.96
  -1  -7  -1  289.98   17.61
  -2  -7  -1    9.07    2.64
   2   7   1    9.32    1.80
  -3  -7  -1    3.03    2.09
  -4  -7  -1  174.96   12.23
  -5  -7  -1   66.68    6.73
  -5  -7  -1   78.77    6.02
  -6  -7  -1   33.53    5.14
  -6  -7  -1   35.91    4.66
  -7  -7  -1    6.21    2.42
  -7  -7  -1   10.29    3.16
  -8  -7  -1   69.10    7.93
  -8  -7  -1   84.80    7.74
  -9  -7  -1    1.81    2.10
  -9  -7  -1    4.35    1.99
 -10  -7  -1    3.00    2.61
 -11  -7  -1    3.26    2.85
 -12  -7  -1    8.42    4.36
 -18   8   1   14.83    3.55
 -17   8   1   75.88    8.07
  16  -8  -1    6.99    7.51
 -16   8   1    7.90    2.68
  15  -8  -1   15.55    8.73
 -15   8   1   13.39    3.30
  14  -8  -1   22.22    9.83
 -14   8   1   11.34    2.90
 -13   8   1   13.81    2.95
  13  -8  -1   16.80    8.59
  12  -8  -1   -1.14    5.98
 -12   8   1    4.38    1.80
 -11   8   1   19.84    3.20
  11  -8  -1   18.53    7.56
 -10   8   1   26.89    3.34
  10  -8  -1   32.14    8.67
  -9   8   1   -0.04    0.88
   9  -8  -1    1.15    5.10
  -8   8   1    4.40    1.07
   8  -8  -1    1.99    4.33
   8  -8  -1   -0.33    1.50
   7  -8  -1  103.38    7.59
   7  -8  -1  102.47   11.87
  -7   8   1   89.40    5.49
   6  -8  -1    6.26    4.89
   6  -8  -1    0.47    1.15
   5  -8  -1   19.89    6.03
   5  -8  -1   33.68    4.07
   4  -8  -1   19.55    5.58
   4  -8  -1   13.62    2.83
   3  -8  -1 1288.12   67.49
   2  -8  -1    2.31    1.71
   2  -8  -1    4.82    4.04
   1  -8  -1  156.67   14.28
   1  -8  -1  193.47   12.13
   0  -8  -1   14.60    3.90
   0  -8  -1   16.14    3.34
  -1  -8  -1   25.13    4.18
   1   8   1   27.39    3.01
   1   8   1   30.21    2.50
  -2  -8  -1    2.09    2.06
  -3  -8  -1   97.15    8.33
  -4  -8  -1    2.48    1.93
  -5  -8  -1    0.58    1.37
  -5  -8  -1    1.55    2.03
  -6  -8  -1   10.35    2.63
  -6  -8  -1    8.09    2.98
  -7  -8  -1   12.09    3.45
  -7  -8  -1   24.64    4.35
  -8  -8  -1   11.87    3.17
  -8  -8  -1    4.68    2.37
  -9  -8  -1   -0.78    1.91
  -9  -8  -1   -0.63    1.89
 -10  -8  -1    5.96    2.90
 -11  -8  -1    3.86    3.49
  17  -9  -1   11.46    8.83
  16  -9  -1    3.42    6.82
  15  -9  -1   10.95    8.79
 -15   9   1    8.99    2.99
 -14   9   1    2.19    2.09
  14  -9  -1    2.39    7.05
 -13   9   1   54.91    5.54
  13  -9  -1   44.04   11.32
 -12   9   1   15.80    2.97
  12  -9  -1    9.55    7.25
 -11   9   1   31.75    3.60
  11  -9  -1   31.40    9.76
  10  -9  -1  143.89   16.62
 -10   9   1  148.40    8.63
  -9   9   1   14.72    2.26
   9  -9  -1   15.04    3.37
   9  -9  -1    0.10    5.45
   8  -9  -1  147.24   10.65
  -8   9   1  160.29    8.42
   8  -9  -1  148.97   15.87
   6  -9  -1   22.02    6.71
   6  -9  -1   27.16    3.99
   5  -9  -1  228.56   18.85
   5  -9  -1  210.36   14.02
   4  -9  -1  716.89   39.14
   3  -9  -1   39.74    7.31
   3  -9  -1   21.29    3.76
   2  -9  -1   24.37    6.09
   2  -9  -1   19.27    3.68
   1  -9  -1  267.83   16.18
   1  -9  -1  227.06   18.68
   0  -9  -1  319.43   19.68
   0  -9  -1  315.86   21.91
  -1  -9  -1    1.18    1.79
  -2  -9  -1   54.79    6.42
  -3  -9  -1   40.12    5.65
  -4  -9  -1   74.11    7.88
  -5  -9  -1   43.25    6.39
  -5  -9  -1   60.35    5.79
  -6  -9  -1   17.24    3.40
  -6  -9  -1   10.48    3.34
  -7  -9  -1   15.50    4.22
  -7  -9  -1   11.31    3.20
  -8  -9  -1    1.63    2.10
  -8  -9  -1   -2.30    1.98
  -9  -9  -1    6.85    2.92
  -9  -9  -1    9.67    3.48
 -10  -9  -1    8.11    3.74
  18 -10  -1   26.02   12.77
  17 -10  -1    9.74    9.25
  16 -10  -1   -0.92    7.48
  15 -10  -1   56.90   13.45
  14 -10  -1    3.19    7.03
  13 -10  -1   -2.10    5.84
  12 -10  -1   14.10    7.36
  11 -10  -1   10.15    6.87
  10 -10  -1    4.73    6.60
   9 -10  -1  142.12   10.62
   9 -10  -1  142.89   16.24
   8 -10  -1  201.60   18.55
   8 -10  -1  174.76   12.29
   7 -10  -1   27.26    7.99
   7 -10  -1   28.08    4.17
   6 -10  -1  128.35    9.86
   6 -10  -1  128.07   14.54
   5 -10  -1  308.89   19.08
   4 -10  -1   30.50    7.86
   3 -10  -1  111.52   12.24
   3 -10  -1   90.56    8.15
   2 -10  -1   34.45    7.32
   2 -10  -1   42.87    5.53
   1 -10  -1   14.99    5.66
   1 -10  -1   22.59    4.42
   0 -10  -1  108.76    9.37
  -1 -10  -1  174.56   12.92
  -2 -10  -1   69.48    7.68
  -3 -10  -1   -0.54    1.69
  -4 -10  -1  241.83   13.26
  -4 -10  -1  208.53   15.77
  -5 -10  -1   27.84    5.35
  -5 -10  -1   22.83    4.06
  -6 -10  -1    5.83    2.56
  -6 -10  -1    2.76    2.28
  -7 -10  -1   13.99    4.04
  -7 -10  -1    6.03    2.35
  -8 -10  -1    1.75    2.31
  -8 -10  -1   -1.28    1.99
  -9 -10  -1   18.94    4.35
  -9 -10  -1   10.76    3.74
 -10 -10  -1   32.97    6.57
  18 -11  -1   26.27   11.93
  17 -11  -1   -0.46    7.33
  16 -11  -1   11.26    8.61
  15 -11  -1    3.66    7.21
  14 -11  -1   57.04   12.97
  13 -11  -1   64.93   13.42
  12 -11  -1  238.06   23.65
  11 -11  -1   71.79   12.97
  10 -11  -1    5.88    6.43
   9 -11  -1   27.53    4.60
   9 -11  -1   27.94    8.66
   8 -11  -1   83.21   12.45
   7 -11  -1   12.83    6.81
   7 -11  -1   20.21    3.91
   6 -11  -1  105.78   13.66
   6 -11  -1  109.93    9.10
   5 -11  -1  170.49   12.32
   4 -11  -1   21.82    4.24
   4 -11  -1   49.30    9.26
   3 -11  -1    3.30    5.48
   3 -11  -1    3.20    2.53
   2 -11  -1   -1.56    4.35
   2 -11  -1    1.19    2.37
   1 -11  -1   83.69    8.30
   0 -11  -1  128.67   10.81
  -1 -11  -1    8.62    3.53
  -2 -11  -1   31.79    5.76
  -3 -11  -1    8.97    3.13
  -4 -11  -1    2.65    2.46
  -4 -11  -1    6.06    2.41
  -5 -11  -1    4.40    2.86
  -5 -11  -1    3.57    1.79
  -6 -11  -1    0.77    1.69
  -6 -11  -1    6.47    3.32
  -7 -11  -1   19.79    3.79
  -7 -11  -1   13.79    4.51
  -8 -11  -1    1.02    2.45
  -8 -11  -1    9.04    3.01
  -9 -11  -1   22.14    5.05
  -9 -11  -1   20.41    4.68
  18 -12  -1   -2.92    9.25
  17 -12  -1   26.53   11.95
  16 -12  -1   68.71   15.55
  15 -12  -1   -2.62    6.39
  14 -12  -1  137.46   19.15
  13 -12  -1  204.70   22.33
  12 -12  -1   33.35   10.59
  11 -12  -1   51.22   11.32
  10 -12  -1   -3.80    4.49
   9 -12  -1    4.65    2.10
   9 -12  -1    1.07    5.89
   8 -12  -1  170.44   12.70
   8 -12  -1  187.89   19.15
   7 -12  -1   18.29    4.13
   7 -12  -1   18.04    8.33
   6 -12  -1   59.97   10.91
   6 -12  -1   46.88    6.30
   5 -12  -1    3.68    2.55
   5 -12  -1    8.44    7.36
   4 -12  -1    9.93    6.18
   4 -12  -1    8.12    3.03
   3 -12  -1  841.40   57.15
   3 -12  -1  918.31   49.28
   2 -12  -1    9.20    6.20
   2 -12  -1   24.97    5.13
   1 -12  -1    3.04    2.95
   0 -12  -1   55.46    7.47
  -1 -12  -1    2.81    2.25
  -2 -12  -1    0.90    2.23
  -3 -12  -1   18.44    4.70
  -4 -12  -1   22.18    5.18
  -5 -12  -1   23.86    5.39
  -6 -12  -1   14.39    4.45
  -7 -12  -1    4.41    3.35
  -8 -12  -1   15.39    4.45
  18 -13  -1   36.82   15.44
  17 -13  -1   59.56   15.25
  16 -13  -1   37.23   13.11
  15 -13  -1   10.89    9.45
  14 -13  -1   58.65   14.06
  13 -13  -1  155.73   20.09
  12 -13  -1    5.50    6.52
  11 -13  -1   93.63   14.64
  10 -13  -1   39.18   10.32
   9 -13  -1   54.78   11.47
   9 -13  -1   37.03    5.35
   8 -13  -1    1.79    2.37
   8 -13  -1   -4.69    5.88
   7 -13  -1    5.10    2.91
   7 -13  -1   21.32    8.24
   6 -13  -1   48.89    6.70
   5 -13  -1   51.01    7.01
   5 -13  -1  110.46   13.47
   4 -13  -1  216.77   15.71
   3 -13  -1   66.40    7.98
   3 -13  -1   62.71   10.16
   2 -13  -1    1.42    2.38
   1 -13  -1   96.66   10.17
   0 -13  -1   30.88    6.14
  -1 -13  -1   75.68    9.13
  -2 -13  -1   64.22    8.60
  -3 -13  -1    6.04    2.98
  -4 -13  -1    9.54    3.62
  -5 -13  -1   32.16    6.49
  -6 -13  -1   10.77    3.68
  -7 -13  -1   35.19    6.74
  17 -14  -1    1.08    5.96
  16 -14  -1    6.10    8.92
  15 -14  -1   19.29   10.60
  14 -14  -1   63.76   14.49
  13 -14  -1   32.25   11.01
  12 -14  -1    4.55    6.68
  11 -14  -1    7.33    7.47
  10 -14  -1   16.60    8.20
   9 -14  -1    2.84    2.38
   9 -14  -1    5.95    5.59
   8 -14  -1  170.69   13.27
   8 -14  -1  162.47   19.47
   7 -14  -1   33.49    5.95
   7 -14  -1   42.95   10.21
   6 -14  -1    4.97    5.74
   6 -14  -1    6.35    3.30
   5 -14  -1    8.14    3.62
   5 -14  -1   17.08    7.22
   4 -14  -1   10.62    6.09
   4 -14  -1    5.43    2.97
   3 -14  -1   -0.78    2.21
   2 -14  -1    7.84    3.81
   1 -14  -1   40.44    7.20
   0 -14  -1  188.37   15.40
  -1 -14  -1    3.89    2.99
  -2 -14  -1   -3.16    2.36
  -3 -14  -1   27.34    6.07
  -4 -14  -1   41.78    7.76
  -5 -14  -1   16.31    5.06
  17 -15  -1    4.97    8.02
  16 -15  -1    9.60    7.25
  15 -15  -1    4.69    9.65
  14 -15  -1   14.47   10.10
  13 -15  -1    6.95    7.18
  12 -15  -1   -3.98    5.68
  11 -15  -1   -0.30    5.73
  10 -15  -1   13.79    8.26
   9 -15  -1   42.31   11.29
   9 -15  -1   33.96    5.77
   8 -15  -1   74.18    8.71
   8 -15  -1   96.99   14.63
   7 -15  -1   18.96    8.21
   7 -15  -1   17.22    4.95
   6 -15  -1   88.54    9.78
   5 -15  -1   44.02    9.42
   5 -15  -1   24.77    5.70
   4 -15  -1   36.92    6.72
   3 -15  -1   10.12    4.08
   2 -15  -1    0.65    2.76
   1 -15  -1   45.20    7.94
   0 -15  -1   88.42   10.78
  -1 -15  -1    7.27    3.67
  -2 -15  -1   79.16   10.56
  -3 -15  -1   21.26    5.86
  -4 -15  -1   24.25    6.23
  16 -16  -1    0.90    6.77
  15 -16  -1    0.61    6.30
  14 -16  -1   15.04    9.58
  13 -16  -1   18.15    9.21
  12 -16  -1    5.72    7.66
  11 -16  -1   12.30    7.33
  10 -16  -1    4.71    6.64
   9 -16  -1    6.19    6.63
   9 -16  -1    0.53    2.39
   8 -16  -1    9.56    4.24
   8 -16  -1    1.74    6.67
   7 -16  -1   -2.40    2.15
   7 -16  -1    4.43    5.86
   6 -16  -1   10.03    4.37
   6 -16  -1   33.13    9.04
   5 -16  -1   54.18    8.12
   4 -16  -1   35.61    6.86
   3 -16  -1   46.74    7.89
   2 -16  -1   -1.34    3.06
   1 -16  -1  205.11   17.22
   0 -16  -1   52.10    8.79
  -1 -16  -1    4.06    3.13
  -2 -16  -1    9.34    4.05
  15 -17  -1   55.01   14.03
  14 -17  -1    3.02    7.81
  13 -17  -1   10.98    7.74
  12 -17  -1   -5.08    5.13
  11 -17  -1    9.57    7.32
  10 -17  -1    7.71    7.13
   9 -17  -1   14.41    8.27
   8 -17  -1   30.51    9.48
   8 -17  -1   19.77    5.55
   7 -17  -1   -1.49    2.24
   7 -17  -1    4.49    5.84
   6 -17  -1   57.93    8.74
   5 -17  -1   62.03    9.13
   4 -17  -1   13.37    4.70
   3 -17  -1    1.15    2.99
   2 -17  -1   69.66   10.09
   1 -17  -1    0.75    3.63
   0 -17  -1   -3.49    2.56
  -1 -17  -1   17.74    6.12
  14 -18  -1    2.40    6.55
  13 -18  -1   11.12    8.81
  12 -18  -1    8.42    7.30
  11 -18  -1   36.36   10.92
  10 -18  -1   24.80    9.14
   9 -18  -1    7.61    7.08
   8 -18  -1    2.50    5.99
   8 -18  -1   13.73    4.66
   7 -18  -1   41.31    7.92
   6 -18  -1   84.28   10.77
   5 -18  -1   13.69    5.32
   4 -18  -1    0.11    2.97
   3 -18  -1    4.88    4.14
   2 -18  -1   -1.07    2.99
   1 -18  -1    1.10    3.84
  13 -19  -1   16.83    8.86
  12 -19  -1    4.82    7.06
  11 -19  -1    5.49    6.09
  10 -19  -1   -0.09    4.87
   9 -19  -1    2.40    6.27
   8 -19  -1   22.99    6.23
   7 -19  -1   22.27    6.44
   6 -19  -1    2.01    3.72
   5 -19  -1    4.07    3.85
   4 -19  -1    5.10    4.20
   3 -19  -1   -1.54    3.50
  12 -20  -1   20.46    9.08
  11 -20  -1   43.78   12.08
  10 -20  -1    9.09    7.06
   8 -20  -1   67.56   10.56
   7 -20  -1   30.74    7.84
   6 -20  -1   -1.74    4.06
   5 -20  -1    1.78    4.55
   4 -20   2    3.58    4.50
   5 -20   2   11.79    5.60
   6 -20   2    3.30    4.03
  10 -20   2   30.35    9.77
  11 -20   2    6.08    6.26
  12 -20   2   10.71    7.04
   2 -19   2   -4.40    3.54
   3 -19   2   -4.14    3.20
   4 -19   2    2.64    3.63
   5 -19   2    5.93    4.06
   6 -19   2    0.87    2.93
   7 -19   2    7.30    3.92
   9 -19   2   17.88    7.88
  10 -19   2   15.17    8.28
  11 -19   2    1.89    5.65
  12 -19   2   26.81   10.73
  13 -19   2   23.65    9.83
   0 -18   2   -2.05    3.61
   1 -18   2   -0.95    2.55
   2 -18   2   -2.50    3.25
   3 -18   2   -2.72    2.59
   4 -18   2   -1.69    2.47
   5 -18   2   25.33    6.32
   6 -18   2    8.73    4.07
   7 -18   2    3.04    3.10
   8 -18   2   27.45    9.38
   9 -18   2   10.14    7.03
  10 -18   2    1.33    6.37
  11 -18   2   60.33   13.33
  12 -18   2   72.67   14.63
  13 -18   2   10.84    8.85
  14 -18   2    3.41    7.98
  -2 -17   2    2.31    3.65
  -1 -17   2   -0.13    2.97
   0 -17   2   -0.85    3.56
   1 -17   2    1.00    3.44
   2 -17   2    1.04    3.33
   3 -17   2    8.85    4.41
   4 -17   2    5.13    3.31
   5 -17   2    3.48    3.16
   6 -17   2    0.22    2.37
   7 -17   2   49.18    7.52
   8 -17   2   94.65   14.93
   9 -17   2   26.04    9.03
  10 -17   2    6.23    6.44
  11 -17   2   48.04   11.89
  12 -17   2   51.12   12.74
  13 -17   2    0.50    6.45
  14 -17   2   32.20   11.49
  15 -17   2   47.96   13.44
  -3 -16   2    4.39    2.95
  -2 -16   2   14.64    5.12
  -1 -16   2    6.03    4.03
   0 -16   2    2.49    3.60
   1 -16   2   24.89    5.93
   2 -16   2    1.14    2.44
   3 -16   2   -0.37    2.48
   4 -16   2   47.20    7.49
   5 -16   2   28.61    5.89
   6 -16   2   50.02    7.18
   7 -16   2   97.58   10.11
   8 -16   2   22.28    8.33
   9 -16   2   30.79   10.15
  10 -16   2   68.45   13.37
  11 -16   2    4.73    6.40
  12 -16   2    5.63    6.97
  13 -16   2   35.51   11.55
  14 -16   2   88.56   16.62
  15 -16   2   -1.51    5.51
  -5 -15   2    0.55    2.41
  -4 -15   2    9.79    4.18
  -3 -15   2    2.76    2.87
  -2 -15   2    2.14    2.69
  -1 -15   2    7.47    4.02
   0 -15   2   52.06    7.94
   1 -15   2   55.22    7.93
   2 -15   2   50.30    7.56
   3 -15   2   98.81   10.29
   4 -15   2   12.00    4.15
   5 -15   2  190.16   14.65
   6 -15   2   48.50   10.74
   6 -15   2   38.24    5.98
   7 -15   2    6.28    3.10
   7 -15   2   12.21    6.93
   8 -15   2   -3.73    5.11
   9 -15   2   45.43   11.04
  10 -15   2   36.77   10.47
  11 -15   2   25.01    9.33
  12 -15   2    3.92    6.87
  13 -15   2   -4.84    6.17
  14 -15   2    7.52    8.61
  15 -15   2    2.88    7.21
  16 -15   2    5.19    7.26
  -6 -14   2    4.02    3.36
  -5 -14   2   15.67    4.69
  -4 -14   2    2.73    2.32
  -3 -14   2    7.07    3.26
  -2 -14   2    9.91    3.50
  -1 -14   2   16.29    4.82
   0 -14   2   -2.07    2.26
   1 -14   2   99.96   10.28
   2 -14   2   -1.20    2.24
   3 -14   2    7.97    3.34
   4 -14   2    7.12    3.14
   4 -14   2   24.04    7.88
   5 -14   2   62.20    7.38
   6 -14   2    7.86    3.10
   6 -14   2   18.99    8.13
   7 -14   2   40.90    5.85
   7 -14   2   61.83   11.50
   8 -14   2   31.57    9.71
   9 -14   2  132.74   16.94
  10 -14   2   23.90    8.96
  11 -14   2   -0.79    6.09
  12 -14   2    9.70    6.96
  13 -14   2    3.01    7.87
  14 -14   2    7.56    8.99
  15 -14   2   -5.63    7.80
  16 -14   2    4.55    6.54
  17 -14   2   -0.76    6.57
  -7 -13   2   -0.07    2.58
  -6 -13   2   -1.10    2.14
  -5 -13   2    7.58    3.44
  -4 -13   2   -0.20    2.16
  -3 -13   2    2.00    2.34
  -2 -13   2   92.12    9.12
  -1 -13   2   96.89    9.96
   0 -13   2   47.09    6.76
   1 -13   2   17.42    4.46
   2 -13   2    2.63    2.39
   3 -13   2    7.41    6.54
   3 -13   2   -0.40    1.83
   4 -13   2   93.92    8.74
   5 -13   2  129.93   10.54
   6 -13   2   30.27    9.03
   6 -13   2   27.07    4.56
   7 -13   2   35.77    5.14
   7 -13   2   49.05   10.60
   8 -13   2   40.46   10.37
   8 -13   2   37.46    5.11
   9 -13   2   72.60   12.64
  11 -13   2    0.16    5.47
  12 -13   2    4.60    7.02
  13 -13   2   14.07    8.85
  14 -13   2   14.91    9.04
  15 -13   2  -14.91   11.11
  16 -13   2    8.79   10.46
  17 -13   2   34.28   15.01
  -9 -12   2   -0.25    2.05
  -9 -12   2    2.12    3.39
  -8 -12   2   -1.12    2.42
  -8 -12   2    7.52    3.16
  -7 -12   2    0.17    2.11
  -7 -12   2    0.60    1.91
  -6 -12   2    0.00    1.91
  -5 -12   2   20.16    4.72
  -4 -12   2    5.25    2.96
  -3 -12   2   43.12    6.65
  -2 -12   2    0.05    1.92
  -1 -12   2   10.83    3.62
   0 -12   2  105.60    9.53
   1 -12   2   48.44    6.40
   2 -12   2   54.29   10.44
   2 -12   2   97.29    8.28
   3 -12   2    0.20    1.67
   3 -12   2    2.94    5.93
   4 -12   2  117.15    9.58
   5 -12   2  569.64   32.45
   6 -12   2    2.54    1.83
   6 -12   2   -0.91    5.42
   7 -12   2    2.88    5.33
   7 -12   2    0.48    0.74
   8 -12   2   58.04    6.02
   8 -12   2   51.75   10.81
   9 -12   2   21.11    8.10
  10 -12   2   79.32   13.12
  11 -12   2   32.10   10.37
  12 -12   2    7.90    7.54
  13 -12   2   12.37    8.82
  14 -12   2   29.13   10.94
  15 -12   2   37.23   12.83
  16 -12   2   -2.90    8.12
  17 -12   2   38.18   13.71
  18 -12   2   11.67   12.71
 -10 -11   2    0.02    1.78
 -10 -11   2   -1.64    3.32
  -9 -11   2   18.78    4.97
  -9 -11   2   14.19    3.78
  -8 -11   2    0.72    2.05
  -8 -11   2   -0.35    2.34
  -7 -11   2    6.12    2.89
  -7 -11   2   11.27    3.24
  -6 -11   2    8.68    3.27
  -5 -11   2    0.99    2.36
  -4 -11   2   -0.10    1.66
  -3 -11   2   19.31    4.45
  -2 -11   2   46.07    6.35
  -1 -11   2    0.56    1.83
   0 -11   2  282.88   18.30
   1 -11   2  128.06   13.45
   1 -11   2  140.70   10.67
   2 -11   2   -2.57    4.76
   2 -11   2    2.84    2.20
   3 -11   2   27.42    7.17
   3 -11   2   18.18    3.73
   4 -11   2   62.02    6.36
   5 -11   2   44.55    8.99
   5 -11   2   55.25    5.69
   6 -11   2    6.77    5.77
   6 -11   2   15.79    3.09
   7 -11   2   97.62   12.62
   7 -11   2   77.42    6.96
   8 -11   2  161.29   10.92
   8 -11   2  152.86   16.97
   9 -11   2   -2.11    5.24
  10 -11   2   18.54    7.80
  11 -11   2    2.15    6.31
  12 -11   2   38.41   10.82
  13 -11   2    3.76    7.20
  14 -11   2   79.51   15.20
  15 -11   2   41.16   12.31
  16 -11   2    9.30    8.74
  17 -11   2    4.79    8.53
  18 -11   2    3.01   11.35
 -10 -10   2   -1.06    2.31
 -10 -10   2    2.67    2.84
  -9 -10   2    9.22    2.92
  -9 -10   2    0.87    2.70
  -8 -10   2   32.49    5.11
  -8 -10   2   21.20    5.05
  -7 -10   2    8.66    3.45
  -6 -10   2   46.21    6.67
  -5 -10   2   43.55    6.46
  -4 -10   2    1.12    2.11
  -3 -10   2   11.38    3.43
  -2 -10   2    0.92    1.69
  -1 -10   2   56.09    6.46
   0 -10   2  125.73    9.66
   0 -10   2  118.15   11.75
   1 -10   2    6.22    2.44
   1 -10   2   16.23    5.34
   2 -10   2    7.37    2.42
   2 -10   2    7.45    4.88
   3 -10   2   -0.73    3.90
   3 -10   2    2.99    1.75
   4 -10   2   -0.77    1.08
   4 -10   2    2.23    4.56
   5 -10   2   29.54    3.87
   5 -10   2   19.86    6.73
   6 -10   2   30.35    7.76
   7 -10   2    3.62    1.99
   7 -10   2    9.87    6.05
   8 -10   2    2.01    1.69
   8 -10   2    2.74    5.22
   9 -10   2    4.91    6.06
  -9  10  -2   12.71    2.52
  10 -10   2   14.24    8.44
 -10  10  -2   17.92    3.10
 -11  10  -2    7.44    2.32
  11 -10   2    2.00    6.60
 -12  10  -2    1.38    1.84
  12 -10   2    4.74    6.28
  13 -10   2   -3.84    7.02
 -13  10  -2    2.77    1.92
  14 -10   2   26.63   10.27
 -14  10  -2   21.75    3.98
 -15  10  -2    4.75    2.45
  15 -10   2    1.73    7.18
  16 -10   2   25.19   10.32
  17 -10   2   17.06   10.69
 -11  -9   2   14.21    4.58
 -10  -9   2    6.78    3.03
 -10  -9   2    7.48    3.25
  -9  -9   2   71.30    7.61
  -9  -9   2   61.82    8.07
  -8  -9   2   16.20    4.11
  -8  -9   2   21.52    4.28
  -7  -9   2    2.14    2.17
  -6  -9   2   19.43    4.23
  -5  -9   2  264.04   17.64
  -4  -9   2    2.17    2.18
  -3  -9   2    3.56    2.21
  -2  -9   2   20.14    4.02
  -1  -9   2    7.28    2.58
   0  -9   2   96.14   10.04
   0  -9   2  121.07    8.76
   1  -9   2    8.88    2.52
   1  -9   2    5.90    4.17
   2  -9   2   19.38    3.28
   2  -9   2   19.60    5.61
   3  -9   2   21.35    5.63
   3  -9   2   16.15    2.96
   4  -9   2   50.84    4.88
   5  -9   2   75.64    5.98
   6  -9   2   77.14   10.61
   6  -9   2   83.35    6.42
   7  -9   2   19.25    6.67
   7  -9   2   19.65    2.94
   8  -9   2   -5.97    3.85
  -8   9  -2    1.15    1.11
   8  -9   2    0.98    1.53
   9  -9   2  152.50   16.71
  -9   9  -2  147.13    8.99
  10  -9   2    4.59    6.49
 -10   9  -2   10.77    2.39
  11  -9   2  284.60   26.55
 -11   9  -2  313.96   16.54
  12  -9   2   13.55    7.45
 -12   9  -2    3.74    2.16
  13  -9   2   10.26    7.90
 -13   9  -2   17.91    3.63
 -14   9  -2   80.68    7.71
  14  -9   2   92.21   15.58
  15  -9   2   -0.96    6.95
 -15   9  -2    1.44    2.23
  16  -9   2   -4.69    5.61
 -16   9  -2   -1.80    1.91
 -17   9  -2    3.48    2.89
 -18   9  -2    4.92    2.61
 -12  -8   2    3.76    3.61
 -11  -8   2    2.57    2.78
 -10  -8   2   82.36    9.05
 -10  -8   2   78.95    8.33
  -9  -8   2   27.53    5.27
  -9  -8   2   27.78    4.74
  -8  -8   2   48.86    6.83
  -8  -8   2   42.69    5.71
  -7  -8   2    2.17    2.27
  -6  -8   2  198.48   13.96
  -5  -8   2  109.30    8.98
  -4  -8   2    3.46    2.06
  -3  -8   2   61.73    6.31
  -2  -8   2    1.56    1.61
  -1  -8   2   55.93    5.44
  -1  -8   2   63.06    6.90
   0  -8   2    4.66    1.97
   0  -8   2   12.58    3.88
   1  -8   2   20.57    5.02
   1  -8   2   22.54    3.43
   2  -8   2   36.16    4.12
   2  -8   2   35.45    6.39
   3  -8   2    0.25    1.08
   3  -8   2    1.05    3.46
   4  -8   2  162.36   10.31
   4  -8   2  161.36   14.57
   5  -8   2  194.17   11.87
   5  -8   2  201.40   16.89
   6  -8   2   18.36    2.70
  -6   8  -2   17.52    2.58
   6  -8   2   28.30    6.56
   7  -8   2   54.62    9.06
  -7   8  -2   59.71    4.54
   7  -8   2   60.53    4.86
   8  -8   2    6.64    5.62
  -8   8  -2    9.89    1.85
   9  -8   2  113.38   14.86
  -9   8  -2  149.27    8.63
 -10   8  -2   74.02    5.89
  10  -8   2   93.43   13.02
 -11   8  -2   45.91    5.00
  11  -8   2   43.99   10.62
 -12   8  -2   15.17    3.03
  12  -8   2   -0.18    6.18
  13  -8   2  182.71   20.91
 -13   8  -2  195.78   12.27
 -14   8  -2   82.55    7.97
  14  -8   2   91.59   15.15
  15  -8   2   24.29   10.24
 -15   8  -2   24.74    4.62
 -16   8  -2    2.35    2.45
  16  -8   2    3.29    6.73
 -17   8  -2   31.65    5.51
 -18   8  -2    2.72    2.13
 -12  -7   2   -1.75    2.40
 -11  -7   2    3.13    2.64
 -10  -7   2   36.11    5.39
 -10  -7   2   24.93    5.33
  -9  -7   2    0.50    2.05
  -9  -7   2    5.06    2.31
  -8  -7   2    3.66    2.15
  -7  -7   2    7.47    2.75
  -6  -7   2   90.20    7.90
  -5  -7   2    5.84    2.53
  -4  -7   2  100.01    8.03
  -3  -7   2   35.23    4.54
  -2  -7   2   69.02    6.09
  -2  -7   2   82.23    6.47
  -1  -7   2   91.29    7.82
  -1  -7   2   72.50    6.30
   0  -7   2   53.64    4.75
   0  -7   2   46.34    5.92
   1  -7   2  791.93   53.49
   1  -7   2  949.56   46.22
   2  -7   2   36.89    4.11
   2  -7   2   73.91    7.80
   3  -7   2   94.78    6.64
   5  -7   2    8.66    4.52
   5  -7   2    7.60    1.65
  -6   7  -2  189.88   10.34
   6  -7   2  188.06   16.82
   6  -7   2  205.77   11.55
  -7   7  -2    3.79    1.33
   7  -7   2    1.46    1.26
   7  -7   2    9.48    5.04
   8  -7   2  361.00   26.96
  -8   7  -2  336.75   17.27
   9  -7   2  189.44   18.28
  -9   7  -2  190.86   10.85
  10  -7   2   39.29    9.40
 -10   7  -2   34.10    4.23
  11  -7   2    7.23    7.24
 -11   7  -2    4.29    1.97
  12  -7   2  100.64   14.81
 -12   7  -2   89.59    7.18
  13  -7   2   44.02   10.91
 -13   7  -2   29.49    4.60
 -14   7  -2    3.44    2.02
  14  -7   2    7.47    8.40
  15  -7   2   14.15    8.66
 -15   7  -2   37.72    5.37
 -16   7  -2   13.49    3.73
 -17   7  -2   -6.81    1.94
 -13  -6   2   -2.32    2.93
 -12  -6   2    4.03    3.28
 -11  -6   2   21.52    4.25
 -10  -6   2   20.43    4.34
 -10  -6   2   33.98    5.32
  -9  -6   2    0.44    1.85
  -9  -6   2    4.91    2.26
  -8  -6   2   11.89    3.17
  -7  -6   2   39.18    5.16
  -6  -6   2    0.91    1.50
  -5  -6   2   -0.58    1.35
  -4  -6   2    2.92    1.87
  -3  -6   2   11.67    2.60
  -2  -6   2  100.64    7.37
  -2  -6   2   98.18    7.40
  -1  -6   2  420.19   25.42
  -1  -6   2  384.12   22.44
   0  -6   2    2.56    1.32
   0  -6   2    0.48    2.42
   1  -6   2  521.24   34.50
   1  -6   2  573.39   29.45
   2  -6   2  404.38   22.05
   3  -6   2   72.32    5.14
   3  -6   2   77.32    8.24
   4  -6   2   54.45    7.02
   4  -6   2   43.89    3.65
   5  -6   2    0.89    0.88
   5  -6   2   -2.27    2.60
  -5   6  -2    0.09    0.82
   6  -6   2   54.21    4.06
  -6   6  -2   53.61    4.00
   6  -6   2   53.09    8.04
   7  -6   2  263.58   21.93
  -7   6  -2  304.03   14.69
   8  -6   2  161.96   15.61
  -8   6  -2  160.21    9.34
  -9   6  -2    0.49    1.09
   9  -6   2    1.73    4.99
  10  -6   2   -3.68    4.64
 -10   6  -2    0.28    1.31
 -11   6  -2   11.04    2.71
  11  -6   2    9.01    7.05
 -12   6  -2    8.46    2.53
  12  -6   2    7.30    6.81
  13  -6   2   -3.11    5.31
 -13   6  -2   -0.34    1.80
 -14   6  -2   -2.21    1.91
  14  -6   2    9.31    7.63
 -15   6  -2   -0.89    2.04
 -16   6  -2   10.35    3.14
 -17   6  -2    4.77    3.27
 -13  -5   2    3.49    2.71
 -12  -5   2    9.51    3.39
 -11  -5   2    4.87    2.53
 -10  -5   2    2.32    2.30
 -10  -5   2    2.80    2.02
  -9  -5   2   71.18    6.96
  -9  -5   2   60.38    6.62
  -8  -5   2    0.36    1.77
  -7  -5   2   17.64    3.47
  -6  -5   2   18.77    3.46
  -5  -5   2  179.45   11.84
  -4  -5   2   11.82    2.57
  -3  -5   2  256.94   15.30
  -2  -5   2  633.89   36.56
  -2  -5   2  735.25   41.03
  -1  -5   2 1298.02   70.20
  -1  -5   2 1428.09   80.58
   0  -5   2 1192.09   80.10
   0  -5   2 1521.58   69.75
   1  -5   2   40.20    3.51
   2  -5   2   29.86    2.99
   2  -5   2   35.24    4.95
   3  -5   2 1093.52   62.34
   3  -5   2  955.99   52.07
  -4   5  -2  688.74   30.77
   4  -5   2  672.10   42.92
   4  -5   2  674.68   35.03
   5  -5   2    2.35    1.00
   5  -5   2    0.52    3.06
  -5   5  -2    3.60    1.19
  -6   5  -2   76.07    5.15
   6  -5   2   89.31    9.52
   7  -5   2 1117.82   69.89
  -7   5  -2 1114.44   50.40
   8  -5   2  116.75   12.81
  -8   5  -2  119.63    7.45
  -9   5  -2   13.86    2.57
   9  -5   2    9.00    5.66
  10  -5   2   -8.29    4.38
 -10   5  -2    2.77    1.35
 -11   5  -2    0.57    1.42
  11  -5   2   -2.87    5.78
  12  -5   2   16.27    7.65
 -12   5  -2   13.97    3.06
 -13   5  -2   13.02    3.01
  13  -5   2   19.69    8.26
 -14   5  -2    6.63    2.24
 -15   5  -2    2.47    1.99
 -16   5  -2    6.08    2.47
 -17   5  -2    4.68    2.75
 -14  -4   2    0.43    2.84
 -13  -4   2    5.77    3.12
 -12  -4   2    2.81    2.50
 -11  -4   2   22.29    4.38
 -10  -4   2   43.89    5.63
 -10  -4   2   50.23    6.14
  -9  -4   2   12.53    3.09
  -9  -4   2   17.35    3.36
  -8  -4   2   68.02    6.31
  -7  -4   2   30.21    4.19
  -6  -4   2   68.45    5.94
  -5  -4   2    1.01    1.04
  -4  -4   2   15.95    2.63
  -3  -4   2  194.31   11.72
  -2  -4   2   39.18    3.70
  -1  -4   2  391.18   23.46
  -1  -4   2  370.50   20.67
   0  -4   2   23.73    3.90
   0  -4   2   35.75    3.05
   1  -4   2   67.12    4.61
   2  -4   2   36.22    5.17
   3  -4   2   12.77    1.46
   3  -4   2   10.63    3.83
  -3   4  -2   12.68    1.72
  -4   4  -2    0.57    0.90
   4  -4   2    0.25    0.70
   4  -4   2    0.55    2.72
   5  -4   2   36.64    5.76
  -5   4  -2   34.64    2.94
  -6   4  -2  109.25    6.33
   6  -4   2   93.56   10.03
   7  -4   2  132.38   12.68
  -7   4  -2  146.35    8.31
  -8   4  -2   46.09    4.40
   8  -4   2   50.03    7.90
  -9   4  -2  221.04   12.24
   9  -4   2  210.84   18.75
  10  -4   2   11.45    6.64
 -10   4  -2   12.09    2.63
 -11   4  -2   55.93    5.96
  11  -4   2  100.74   12.76
  12  -4   2    5.38    6.37
 -12   4  -2   12.47    2.90
 -13   4  -2   10.37    2.95
 -14   4  -2    8.90    2.79
 -15   4  -2    1.22    2.16
 -16   4  -2   11.03    3.00
 -17   4  -2    8.86    2.90
 -14  -3   2    0.31    2.91
 -13  -3   2    5.27    3.22
 -12  -3   2   -3.10    1.47
 -11  -3   2   14.90    3.52
 -10  -3   2    1.29    1.66
 -10  -3   2   -0.88    1.58
  -9  -3   2   39.99    5.13
  -9  -3   2   49.79    5.48
  -8  -3   2   18.29    3.34
  -7  -3   2   73.02    6.10
  -6  -3   2   20.33    3.04
  -5  -3   2   38.46    3.80
  -4  -3   2   74.42    5.53
  -3  -3   2   63.77    4.79
  -2  -3   2    4.89    1.31
  -1  -3   2 1357.35   67.81
  -1  -3   2 1300.77   77.85
   0  -3   2  386.75   22.19
   0  -3   2  458.70   25.92
   1  -3   2  491.31   29.25
   1  -3   2  460.02   24.55
  -2   3  -2  265.28   12.34
   2  -3   2  240.42   17.41
   2  -3   2  270.37   13.70
  -3   3  -2  635.24   29.02
   3  -3   2  658.23   32.97
   3  -3   2  647.10   40.19
   4  -3   2    9.52    3.42
  -4   3  -2    9.13    1.53
   5  -3   2   21.68    4.50
  -5   3  -2   17.94    2.28
  -6   3  -2  278.81   13.98
   6  -3   2  277.08   20.21
  -7   3  -2  154.11    9.07
  -7   3  -2  164.60    8.72
   7  -3   2  155.73   13.82
  -8   3  -2   28.55    2.31
   8  -3   2   32.13    6.47
  -8   3  -2   28.08    3.47
   9  -3   2  115.34   12.44
  -9   3  -2  100.30    7.11
  10  -3   2   11.99    5.99
 -11   3  -2    8.91    2.23
  11  -3   2   22.32    7.47
 -12   3  -2   31.83    4.73
 -13   3  -2   19.04    3.65
 -14   3  -2    5.68    2.32
 -15   3  -2    6.01    2.37
 -16   3  -2   -5.01    1.92
 -15  -2   2    1.36    2.25
 -14  -2   2    3.78    2.21
 -13  -2   2   -0.17    1.72
 -12  -2   2    0.93    1.62
 -11  -2   2    2.36    1.78
 -10  -2   2    0.39    1.41
 -10  -2   2    1.17    1.63
  -9  -2   2   28.75    3.90
  -9  -2   2   24.09    3.92
  -8  -2   2   38.98    4.34
  -7  -2   2  128.42    8.92
   7   2  -2  139.37   10.20
   6   2  -2  289.03   18.84
   6   2  -2  288.51   18.84
  -6  -2   2  305.81   16.90
   5   2  -2    5.65    1.95
  -5  -2   2    5.09    1.50
  -4  -2   2  101.01    6.73
   4   2  -2  101.13    7.12
  -3  -2   2    4.59    1.30
  -2  -2   2 1401.35   71.38
   0  -2   2  303.81   17.48
   0  -2   2  264.42   14.91
   1  -2   2   12.11    2.14
   1  -2   2    3.89    0.71
  -2   2  -2   53.77    3.30
   2  -2   2   57.35    5.35
  -3   2  -2  229.17   11.00
   3  -2   2  226.70   15.75
  -4   2  -2 1638.36   69.75
   4  -2   2 1526.46   94.28
   5  -2   2   96.21    9.66
  -5   2  -2  118.95    6.62
  -5   2  -2  116.83    6.23
   6  -2   2    4.65    2.97
  -6   2  -2    2.15    0.73
  -6   2  -2    0.76    1.10
   7  -2   2   41.53    6.32
  -7   2  -2   39.01    2.98
  -7   2  -2   42.08    3.94
  -8   2  -2   50.86    3.68
   8  -2   2   43.11    7.24
  -8   2  -2   53.76    4.51
   9  -2   2    2.03    4.22
  -9   2  -2    6.15    1.84
 -10   2  -2   26.45    3.93
 -11   2  -2   78.33    6.42
  11  -2   2   58.81    9.98
 -12   2  -2    3.53    1.92
 -13   2  -2   87.35    8.36
 -14   2  -2   14.73    3.32
 -15   2  -2   69.01    8.15
 -16   2  -2   18.21    4.46
 -15  -1   2    2.07    2.31
 -14  -1   2    1.20    2.44
 -13  -1   2   -1.14    1.70
 -12  -1   2   -0.40    1.51
 -11  -1   2   12.82    3.02
 -10  -1   2   22.03    3.35
 -10  -1   2   16.80    3.08
  -9  -1   2  184.04   11.31
  -9  -1   2  195.21   12.12
   8   1  -2    3.00    2.92
  -8  -1   2    1.90    1.36
  -8  -1   2    1.90    1.28
   7   1  -2  398.35   26.58
  -7  -1   2  426.59   22.80
  -6  -1   2  135.90    8.63
   6   1  -2  134.15   10.25
   5   1  -2   29.93    4.06
  -5  -1   2   38.36    3.30
  -4  -1   2  108.64    6.90
   4   1  -2  116.66    8.35
   3   1  -2  207.28   12.83
  -3  -1   2  186.69   10.90
  -2  -1   2  293.04   15.61
  -2  -1   2  297.27   17.54
  -2  -1   2  284.78   14.86
  -1  -1   2   15.85    1.63
  -1  -1   2   14.64    1.53
   0  -1   2 1087.82   63.81
  -1   1  -2 1022.41   46.32
   1  -1   2 1096.27   62.49
   2  -1   2  193.58   12.53
  -2   1  -2  181.04    8.93
  -2   1  -2  188.30    9.80
   3  -1   2  332.63   22.62
  -3   1  -2  362.48   18.26
  -3   1  -2  358.18   16.48
  -4   1  -2  251.61   12.65
  -4   1  -2  264.02   13.70
   4  -1   2  264.22   17.73
  -5   1  -2   54.95    3.62
  -5   1  -2   50.78    3.89
   5  -1   2   56.19    6.31
   6  -1   2   -0.71    0.99
  -6   1  -2    0.79    1.05
  -6   1  -2    1.65    0.81
  -7   1  -2  287.70   15.65
  -7   1  -2  282.12   14.77
  -8   1  -2   12.97    1.92
   8  -1   2    8.22    4.12
  -8   1  -2    8.13    2.05
   9  -1   2   37.55    7.11
  -9   1  -2   34.37    4.28
 -10   1  -2   29.23    4.21
  10  -1   2   25.51    6.96
 -11   1  -2    8.01    2.42
 -12   1  -2  132.33    9.72
 -13   1  -2   19.90    4.10
 -14   1  -2   -1.18    2.53
 -15   1  -2   55.67    7.37
 -16   0   2   19.96    4.18
 -15   0   2    4.84    2.41
 -14   0   2   34.48    5.39
 -13   0   2    1.86    2.27
 -11   0   2    6.72    2.03
 -10   0   2  110.41    7.85
 -10   0   2  107.02    7.69
  -9   0   2    1.75    1.39
  -9   0   2    1.29    1.09
   9   0  -2    3.85    3.66
  -8   0   2   30.41    3.61
   8   0  -2   26.83    4.94
  -8   0   2   24.68    3.13
  -7   0   2 1224.71   63.44
   7   0  -2 1236.27   74.31
   6   0  -2  296.55   20.19
  -6   0   2  305.52   16.67
   5   0  -2   74.02    6.85
  -5   0   2   73.53    4.97
   4   0  -2  362.82   21.82
  -4   0   2  322.72   18.09
   2   0  -2   -0.03    0.35
  -1   0   2  990.27   57.89
  -1   0   2  987.79   49.11
   0   0  -2 3974.57  188.90
   0   0   2 3736.95  217.70
   0   0  -2 3522.09  162.26
  -1   0  -2   57.49    3.47
  -1   0  -2   54.50    3.10
   1   0   2   55.46    4.34
  -2   0  -2  407.65   18.93
  -2   0  -2  426.08   21.59
  -3   0  -2   33.63    2.60
  -3   0  -2   32.30    2.58
  -4   0  -2  113.43    6.65
  -4   0  -2  108.40    6.35
  -5   0  -2  191.12    9.64
   5   0   2  158.96   12.69
  -5   0  -2  176.60   10.03
   6   0   2  155.50   12.85
  -6   0  -2  164.38    9.75
  -6   0  -2  179.75    9.57
  -7   0  -2  101.49    6.88
  -7   0  -2  103.70    6.87
   7   0   2  111.90   10.13
  -8   0  -2   14.29    2.34
   8   0   2   11.31    4.48
  -8   0  -2   13.38    2.59
   9   0   2   60.75    8.51
  -9   0  -2   45.61    5.06
 -10   0  -2   24.99    3.88
 -11   0  -2    7.88    2.44
 -12   0  -2   96.25    8.04
 -13   0  -2    4.50    2.09
 -14   0  -2   16.11    3.70
 -15   0  -2    5.47    2.68
 -16   1   2    2.50    2.26
 -15   1   2   17.32    3.78
 -14   1   2    7.38    2.86
 -13   1   2   15.15    3.37
 -12   1   2  185.74   11.99
 -11   1   2    9.46    2.21
 -10   1   2   33.84    4.23
  10  -1  -2   27.97    6.37
 -10   1   2   34.35    3.63
   9  -1  -2   24.80    5.77
  -9   1   2   33.73    3.50
  -9   1   2   32.68    3.87
   8  -1  -2  108.26   10.99
  -8   1   2  118.96    7.69
  -8   1   2  131.52    7.65
  -7   1   2  418.38   19.82
  -7   1   2  400.59   21.95
   6  -1  -2   -0.23    0.79
  -6   1   2    1.60    0.89
   4  -1  -2   83.40    7.60
   3  -1  -2    6.68    2.78
   2  -1  -2   22.51    2.99
   1  -1  -2  760.33   36.57
   1  -1  -2  660.07   42.22
   0  -1  -2   16.58    1.68
   0   1   2   18.09    1.82
  -1  -1  -2  331.71   17.60
  -1  -1  -2  334.99   15.10
   2   1   2   15.33    2.62
  -2  -1  -2   10.90    1.60
  -2  -1  -2   12.29    1.48
  -3  -1  -2  150.50    8.86
  -3  -1  -2  156.27    7.94
   3   1   2  148.49   10.60
   4   1   2  259.31   18.00
  -4  -1  -2  283.92   13.69
  -4  -1  -2  286.30   15.34
  -5  -1  -2    1.12    1.06
  -5  -1  -2    1.31    1.09
   5   1   2    0.35    2.18
   6   1   2    3.57    2.91
  -6  -1  -2    4.73    1.53
  -6  -1  -2    3.82    1.38
   7   1   2   14.96    3.96
  -7  -1  -2   15.23    2.47
  -7  -1  -2    7.04    1.96
  -8  -1  -2  103.03    7.29
  -8  -1  -2   99.81    7.43
   8   1   2  100.45   10.20
  -9  -1  -2   61.28    6.07
 -10  -1  -2   26.38    4.34
 -11  -1  -2    7.98    2.78
 -12  -1  -2    1.95    2.29
 -13  -1  -2   33.86    5.74
 -14  -1  -2    5.93    3.31
 -15  -1  -2    5.63    3.22
 -17   2   2   20.64    4.53
 -16   2   2   24.49    4.51
 -15   2   2   66.60    7.73
 -14   2   2   -1.12    1.73
 -13   2   2  121.05    9.14
 -12   2   2    1.05    1.67
  11  -2  -2    0.71    4.34
 -11   2   2    3.85    1.66
 -10   2   2    6.50    1.79
 -10   2   2    4.89    1.55
  10  -2  -2   -1.02    1.44
  -9   2   2    1.05    1.17
  -9   2   2    1.20    0.87
   9  -2  -2    1.12    1.80
   8  -2  -2  251.00   20.13
  -8   2   2  280.33   14.25
  -8   2   2  289.73   15.48
  -7   2   2  180.47    9.45
  -7   2   2  184.31   10.14
   7  -2  -2  148.45   13.69
  -6   2   2  312.07   14.85
   6  -2  -2  298.63   21.27
  -5   2   2  935.44   39.65
   5  -2  -2  837.48   54.33
   4  -2  -2  119.13   10.26
   3  -2  -2 1162.50   69.58
   2  -2  -2 1041.43   48.96
   2  -2  -2  859.58   56.92
   1  -2  -2   57.41    5.17
   1  -2  -2   58.91    4.08
   1   2   2   13.09    1.73
  -1  -2  -2    9.47    1.70
  -1  -2  -2    9.71    1.22
   2   2   2  187.64   12.04
  -2  -2  -2  181.86   10.78
  -2  -2  -2  191.26    9.25
  -3  -2  -2   34.19    2.71
   3   2   2   28.12    3.39
  -3  -2  -2   29.64    3.03
  -4  -2  -2  219.02   12.81
   4   2   2  219.33   14.56
  -4  -2  -2  214.62   11.21
  -5  -2  -2   25.85    3.03
  -5  -2  -2   26.92    3.25
   5   2   2   30.77    4.09
  -6  -2  -2   56.35    5.06
   6   2   2   63.67    6.52
  -6  -2  -2   54.11    4.61
  -7  -2  -2  297.20   15.83
   7   2   2  311.48   20.61
  -7  -2  -2  283.07   17.40
  -8  -2  -2   -0.31    1.29
  -8  -2  -2   -0.38    1.21
  -9  -2  -2   -2.65    1.37
 -10  -2  -2    5.57    2.38
 -11  -2  -2    5.22    2.40
 -12  -2  -2    2.26    2.25
 -13  -2  -2   21.47    4.73
 -14  -2  -2   -2.48    2.48
 -17   3   2   26.40    5.20
 -16   3   2   66.54    7.71
 -15   3   2    5.32    2.20
 -14   3   2   18.51    3.76
 -13   3   2   39.85    5.11
 -12   3   2   12.39    2.71
  12  -3  -2    4.16    4.13
  11  -3  -2    2.71    4.47
 -11   3   2    2.62    1.65
 -10   3   2  108.27    7.68
 -10   3   2  127.84    7.78
  10  -3  -2  117.30   12.87
  -9   3   2   28.76    2.75
  -9   3   2   31.08    3.51
   9  -3  -2   33.33    6.83
  -8   3   2    4.90    1.23
   8  -3  -2    4.85    4.04
  -8   3   2    2.38    1.32
  -7   3   2   82.38    5.14
   7  -3  -2   75.98    8.92
   6  -3  -2   69.19    7.75
  -6   3   2   59.37    3.95
  -5   3   2   -0.78    0.63
   5  -3  -2   -0.59    2.71
   4  -3  -2   36.61    5.39
  -4   3   2   31.31    2.18
   3  -3  -2  912.40   53.96
   3  -3  -2  856.85   45.61
   2  -3  -2  909.00   62.07
   2  -3  -2 1156.95   53.41
   1  -3  -2  483.26   21.73
   1  -3  -2  510.73   26.25
   0  -3  -2  312.05   14.52
   0  -3  -2  335.33   17.76
  -1  -3  -2  275.88   12.67
   1   3   2  269.92   16.68
  -1  -3  -2  265.15   15.18
  -2  -3  -2   14.00    1.73
   2   3   2   15.38    2.02
  -2  -3  -2    9.04    1.96
  -3  -3  -2  106.68    6.90
  -3  -3  -2   89.11    5.67
   3   3   2   94.62    7.10
  -4  -3  -2    3.87    1.57
   4   3   2    2.77    1.87
  -4  -3  -2    4.17    1.44
   5   3   2   94.81    7.78
  -5  -3  -2   99.27    7.16
  -5  -3  -2   92.53    6.26
   6   3   2  251.62   16.79
  -6  -3  -2  239.78   13.23
  -6  -3  -2  240.90   14.87
  -7  -3  -2   75.65    6.46
  -7  -3  -2   74.05    5.95
  -8  -3  -2    0.63    1.64
  -8  -3  -2    2.26    1.89
  -9  -3  -2   -2.53    1.43
  -9  -3  -2    0.58    1.89
 -10  -3  -2   46.45    5.97
 -11  -3  -2    2.26    2.20
 -12  -3  -2    5.38    3.00
 -13  -3  -2   -1.04    2.77
 -14  -3  -2   -1.40    3.26
 -17   4   2    2.29    2.16
 -16   4   2   30.77    5.21
 -15   4   2   10.37    2.86
 -14   4   2   29.08    4.64
 -13   4   2   -1.17    1.49
  13  -4  -2   -1.62    5.12
 -12   4   2    1.66    1.61
  12  -4  -2    0.70    5.28
 -11   4   2   30.54    3.91
  11  -4  -2   22.61    7.42
 -10   4   2   -0.59    1.14
  10  -4  -2   -1.72    4.45
  -9   4   2   -0.72    0.79
   9  -4  -2   -1.50    3.56
   8  -4  -2    0.19    3.43
  -8   4   2   -0.27    0.83
  -7   4   2  275.37   13.50
   7  -4  -2  270.68   20.57
  -6   4   2    2.47    0.91
   6  -4  -2    2.28    3.43
  -5   4   2   27.10    1.97
   5  -4  -2   25.05    5.18
   5  -4  -2   14.36    2.38
   4  -4  -2   11.57    4.02
  -4   4   2    7.73    0.99
   4  -4  -2    7.89    1.92
  -3   4   2  182.13    7.68
   3  -4  -2  145.02    9.94
   3  -4  -2  169.00   13.38
   2  -4  -2  943.24   48.38
   2  -4  -2  916.40   56.74
   1  -4  -2  158.85    9.79
   0  -4  -2  192.80   11.76
   0  -4  -2  201.67   13.50
  -1  -4  -2  491.88   25.72
   1   4   2  454.58   28.35
  -2  -4  -2   21.48    2.28
   2   4   2   26.92    2.78
  -2  -4  -2   22.31    3.10
   3   4   2   67.85    5.41
  -3  -4  -2   68.78    4.67
  -3  -4  -2   67.30    5.60
  -4  -4  -2   -0.37    0.77
  -4  -4  -2    1.44    1.29
   4   4   2   -0.68    1.56
  -5  -4  -2  171.73   11.51
  -5  -4  -2  182.10   10.16
  -6  -4  -2  248.24   13.12
  -6  -4  -2  219.90   14.56
  -7  -4  -2   30.48    4.19
  -7  -4  -2   25.39    4.08
  -8  -4  -2    2.94    2.02
  -8  -4  -2    5.45    2.49
  -9  -4  -2   97.16    8.36
  -9  -4  -2   98.92    7.95
 -10  -4  -2    2.89    2.22
 -11  -4  -2   -0.31    1.86
 -12  -4  -2    4.33    2.97
 -13  -4  -2   -1.10    2.65
 -18   5   2   -0.83    1.89
 -17   5   2    6.20    2.80
 -16   5   2   21.34    4.26
 -15   5   2   31.34    4.63
  14  -5  -2   49.01   10.37
 -14   5   2   61.15    6.43
  13  -5  -2   49.67    9.77
 -13   5   2   37.46    4.80
  12  -5  -2    7.67    6.38
 -12   5   2   17.44    2.97
 -11   5   2   -1.00    1.14
  11  -5  -2   -3.57    4.53
  10  -5  -2    3.04    4.92
 -10   5   2    3.10    1.28
  -9   5   2  122.89    7.38
   9  -5  -2  123.34   13.06
   8  -5  -2   15.98    5.46
  -8   5   2   23.75    2.66
   7  -5  -2   38.63    6.91
  -7   5   2   38.09    3.01
  -6   5   2   24.23    2.13
   6  -5  -2   20.49    3.02
   6  -5  -2   20.69    5.34
  -5   5   2  329.04   14.85
   5  -5  -2  311.83   22.97
  -4   5   2   34.81    2.20
   4  -5  -2   39.02    5.98
   4  -5  -2   36.96    3.79
   3  -5  -2   90.46    9.68
   3  -5  -2  101.47    6.96
   2  -5  -2  875.03   45.84
   1  -5  -2    1.24    1.32
   1  -5  -2    3.86    3.08
   0  -5  -2   65.78    5.55
   0  -5  -2   73.06    6.72
   1   5   2  559.04   29.14
  -1  -5  -2  607.00   31.22
   1   5   2  556.98   34.33
  -2  -5  -2  257.00   15.31
   2   5   2  249.90   15.92
  -3  -5  -2    1.83    1.15
  -3  -5  -2    1.33    1.60
   3   5   2    2.24    1.35
  -4  -5  -2  264.97   16.46
  -4  -5  -2  294.08   14.25
   4   5   2  260.44   17.11
  -5  -5  -2   38.91    4.22
  -5  -5  -2   44.87    5.08
  -6  -5  -2   32.23    4.06
  -6  -5  -2   26.17    4.26
  -7  -5  -2   56.05    5.57
  -7  -5  -2   40.95    5.44
  -8  -5  -2  156.91   10.33
  -8  -5  -2  139.38   10.98
  -9  -5  -2   -0.07    1.77
  -9  -5  -2    4.48    2.24
 -10  -5  -2   43.88    5.97
 -11  -5  -2   16.70    3.91
 -12  -5  -2    0.98    2.95
 -13  -5  -2    2.00    3.55
 -18   6   2    7.19    2.83
 -17   6   2    8.09    3.02
 -16   6   2   -0.92    1.89
  15  -6  -2   30.72    9.91
 -15   6   2   33.77    4.94
 -14   6   2  105.48    8.00
  14  -6  -2   96.04   14.44
  13  -6  -2  155.10   17.32
 -13   6   2  149.26    9.86
  12  -6  -2    0.83    5.88
 -12   6   2    3.70    1.47
 -11   6   2    2.67    1.40
  11  -6  -2    1.80    5.19
  10  -6  -2    5.72    5.46
 -10   6   2    5.68    1.79
  -9   6   2   17.60    2.47
   9  -6  -2   12.82    5.79
  -8   6   2  103.54    6.15
   8  -6  -2  103.14   11.65
   7  -6  -2    9.48    2.57
  -7   6   2   13.03    1.79
   7  -6  -2   18.66    5.58
   6  -6  -2   -0.30    3.40
  -6   6   2    0.37    0.67
   6  -6  -2   -0.33    0.59
  -5   6   2    1.59    0.66
   5  -6  -2   -1.94    2.76
   5  -6  -2    1.16    1.46
   4  -6  -2 1430.51   75.27
   4  -6  -2 1485.44   88.71
   3  -6  -2  155.04   11.93
   3  -6  -2  104.01    8.11
   2  -6  -2    1.63    1.40
   2  -6  -2    2.88    3.24
   1  -6  -2  772.20   49.08
   1  -6  -2  809.47   42.28
   0  -6  -2  594.71   32.67
   0  -6  -2  601.68   37.23
  -1  -6  -2    3.08    1.74
   1   6   2    1.38    0.82
   1   6   2    3.03    1.38
   2   6   2   84.05    6.21
  -2  -6  -2   77.72    6.73
   3   6   2   71.23    5.67
  -3  -6  -2   72.75    5.11
  -3  -6  -2   72.18    6.46
  -4  -6  -2   58.27    6.09
  -4  -6  -2   55.30    4.61
  -5  -6  -2   -1.57    1.31
  -5  -6  -2    0.39    1.14
  -6  -6  -2    4.66    1.85
  -6  -6  -2    3.35    2.13
  -7  -6  -2   22.31    4.29
  -7  -6  -2   22.60    3.87
  -8  -6  -2    1.79    1.73
  -8  -6  -2    0.69    1.74
  -9  -6  -2    4.97    2.31
  -9  -6  -2   15.91    3.71
 -10  -6  -2    5.03    2.25
 -11  -6  -2    5.29    2.90
 -12  -6  -2   -1.59    2.78
 -18   7   2    0.02    2.30
 -17   7   2    9.80    3.09
 -16   7   2    5.28    2.64
  15  -7  -2   29.04    9.78
 -15   7   2   13.24    3.07
  14  -7  -2   14.98    7.71
 -14   7   2   28.22    4.10
 -13   7   2   80.02    6.13
  13  -7  -2   47.27   11.17
 -12   7   2    5.77    1.88
  12  -7  -2    1.76    6.11
 -11   7   2   28.37    3.56
  11  -7  -2   20.67    7.56
 -10   7   2   20.12    2.75
  10  -7  -2    9.96    6.56
   9  -7  -2  163.20   16.38
  -9   7   2  168.56    9.18
   8  -7  -2  101.21   11.64
  -8   7   2   95.10    5.77
   7  -7  -2    7.53    4.90
  -7   7   2    7.47    1.32
   7  -7  -2    2.82    1.96
   6  -7  -2    3.22    1.75
   6  -7  -2   -1.36    3.48
  -6   7   2    7.08    1.13
   5  -7  -2  175.09   15.05
   5  -7  -2  160.77   10.85
   4  -7  -2    2.29    3.58
   4  -7  -2    3.60    1.86
   3  -7  -2   11.71    2.62
   3  -7  -2   18.70    5.18
   2  -7  -2  160.48   11.54
   2  -7  -2  209.50   15.21
   1  -7  -2  580.58   36.50
   1  -7  -2  549.20   31.21
   0  -7  -2  183.41   14.05
   0  -7  -2  200.84   12.73
   1   7   2   31.62    3.43
  -1  -7  -2   37.37    4.68
   1   7   2   31.05    2.80
   2   7   2    2.82    1.37
  -2  -7  -2    4.69    2.06
  -3  -7  -2  320.71   15.99
  -3  -7  -2  304.14   19.22
  -4  -7  -2    3.93    2.08
  -4  -7  -2    4.65    1.74
  -5  -7  -2   -1.34    1.07
  -5  -7  -2    0.52    1.68
  -6  -7  -2   10.80    2.80
  -6  -7  -2    7.27    2.72
  -7  -7  -2   97.13    8.64
  -7  -7  -2   86.10    7.27
  -8  -7  -2    2.61    2.16
  -8  -7  -2    2.42    2.12
  -9  -7  -2    0.38    2.03
  -9  -7  -2    2.40    2.00
 -10  -7  -2   10.92    3.54
 -11  -7  -2    7.88    3.82
 -17   8   2    0.95    2.23
 -16   8   2   12.73    3.14
  16  -8  -2    3.55    7.08
 -15   8   2   21.66    3.64
  15  -8  -2   29.62   10.43
  14  -8  -2   60.88   12.40
 -14   8   2   61.45    6.05
 -13   8   2    8.94    2.35
  13  -8  -2   18.31    8.34
 -12   8   2   11.15    2.27
  12  -8  -2    9.13    6.71
  11  -8  -2    4.28    6.08
 -11   8   2   12.62    2.42
  10  -8  -2   36.26    9.07
 -10   8   2   44.31    3.96
  -9   8   2  283.26   14.12
   9  -8  -2  277.49   23.54
   8  -8  -2    2.24    1.81
  -8   8   2    0.96    0.76
   8  -8  -2   -1.33    4.13
   7  -8  -2   26.88    7.04
  -7   8   2   33.21    2.56
   6  -8  -2   96.89    7.76
   6  -8  -2  109.06   12.01
   5  -8  -2  169.16   15.99
   5  -8  -2  188.70   12.22
   4  -8  -2   81.05    6.93
   3  -8  -2   57.07    7.68
   3  -8  -2   29.83    4.29
   2  -8  -2 1417.00   69.76
   2  -8  -2 1225.05   80.61
   1  -8  -2  226.86   14.65
   1  -8  -2  224.77   17.19
   0  -8  -2  100.72    8.02
   0  -8  -2   82.83    8.43
   1   8   2  195.63   13.14
   1   8   2  192.68   11.08
  -1  -8  -2  203.27   13.51
  -2  -8  -2   11.38    3.17
  -3  -8  -2    5.90    1.74
  -3  -8  -2    6.00    2.43
  -4  -8  -2   37.46    4.24
  -4  -8  -2   35.84    5.39
  -5  -8  -2    6.69    2.81
  -5  -8  -2    8.57    2.31
  -6  -8  -2   13.04    3.09
  -6  -8  -2   15.65    3.84
  -7  -8  -2    3.68    2.72
  -7  -8  -2    5.70    2.52
  -8  -8  -2    4.59    2.31
  -8  -8  -2    6.13    2.83
  -9  -8  -2   16.22    3.75
  -9  -8  -2    9.40    3.47
 -10  -8  -2   46.37    6.74
 -11  -8  -2    2.66    3.63
  17  -9  -2    7.03    7.47
  16  -9  -2   -1.41    6.33
  15  -9  -2    0.71    6.26
  14  -9  -2   81.80   14.36
  13  -9  -2   18.08    8.76
 -12   9   2    8.27    2.04
  12  -9  -2   -5.40    5.42
  11  -9  -2    3.44    5.99
 -11   9   2    1.01    1.09
 -10   9   2  135.27    7.82
  10  -9  -2  128.75   15.76
   9  -9  -2  309.31   26.67
   9  -9  -2  358.97   20.56
  -9   9   2  325.58   16.18
   8  -9  -2    7.49    5.48
   8  -9  -2    2.76    1.91
  -8   9   2    5.75    1.30
   7  -9  -2  162.36   16.42
   7  -9  -2  166.39   11.38
   6  -9  -2  150.46   15.56
   6  -9  -2  163.04   11.25
   5  -9  -2  237.66   14.63
   5  -9  -2  195.19   18.56
   4  -9  -2   34.56    4.78
   4  -9  -2   54.29    8.49
   3  -9  -2   62.87    8.53
   3  -9  -2   42.48    5.35
   2  -9  -2  168.72   11.92
   2  -9  -2  165.41   15.03
   1  -9  -2   56.03    7.70
   1  -9  -2   66.14    6.82
   0  -9  -2   98.25    8.53
   0  -9  -2   96.28    9.24
  -1  -9  -2   53.59    6.37
  -2  -9  -2   27.00    4.85
  -3  -9  -2   13.32    3.74
  -3  -9  -2   16.49    2.87
  -4  -9  -2   53.26    5.35
  -4  -9  -2   61.64    7.29
  -5  -9  -2   78.60    6.46
  -5  -9  -2   75.82    8.41
  -6  -9  -2    7.70    2.45
  -6  -9  -2    7.28    2.96
  -7  -9  -2    3.83    2.05
  -7  -9  -2    3.16    2.44
  -8  -9  -2   13.89    4.01
  -8  -9  -2   24.45    4.48
  -9  -9  -2   57.60    7.36
  -9  -9  -2   41.71    7.08
 -10  -9  -2   34.88    5.94
  18 -10  -2    2.61    8.06
  17 -10  -2   11.24    9.76
  16 -10  -2    6.44    8.21
  15 -10  -2    3.47    6.16
  14 -10  -2    9.03    7.99
  13 -10  -2    3.36    6.08
  12 -10  -2   -0.46    5.52
  11 -10  -2   54.31   11.38
  10 -10  -2  564.34   41.60
   9 -10  -2  107.71   14.08
   9 -10  -2  109.38    9.18
   8 -10  -2   12.18    6.44
   7 -10  -2  596.35   33.91
   7 -10  -2  617.50   42.70
   6 -10  -2  633.37   44.74
   6 -10  -2  667.48   36.67
   5 -10  -2   -5.90    4.22
   5 -10  -2    1.42    1.74
   4 -10  -2  403.78   24.12
   3 -10  -2  235.98   16.68
   3 -10  -2  295.84   21.58
   2 -10  -2   22.72    4.42
   2 -10  -2   18.20    5.97
   1 -10  -2    5.13    2.82
   1 -10  -2    0.96    3.80
   0 -10  -2   12.93    3.68
  -1 -10  -2   36.11    5.76
  -2 -10  -2   33.05    3.81
  -2 -10  -2   45.34    6.31
  -3 -10  -2   89.15    8.50
  -3 -10  -2   77.50    6.15
  -4 -10  -2   12.64    3.76
  -4 -10  -2   16.14    3.16
  -5 -10  -2   41.69    5.11
  -5 -10  -2   43.58    6.53
  -6 -10  -2   17.74    3.57
  -6 -10  -2   14.33    4.24
  -7 -10  -2   33.49    5.11
  -7 -10  -2   22.49    5.42
  -8 -10  -2   85.48    8.43
  -8 -10  -2   76.95    9.54
  -9 -10  -2   12.74    4.00
  -9 -10  -2   14.10    4.04
 -10 -10  -2    0.06    3.71
  18 -11  -2   -2.39    8.81
  17 -11  -2   10.07   10.11
  16 -11  -2    4.75    8.42
  15 -11  -2  158.81   20.75
  14 -11  -2   54.81   12.84
  13 -11  -2   11.90    7.89
  12 -11  -2  118.85   16.52
  11 -11  -2  267.19   24.98
  10 -11  -2   82.87   13.18
   9 -11  -2   38.59    9.47
   8 -11  -2   85.73    7.94
   8 -11  -2   93.27   13.28
   7 -11  -2  250.32   16.86
   7 -11  -2  274.32   23.37
   6 -11  -2   10.29    6.77
   6 -11  -2    6.56    2.86
   5 -11  -2    1.90    2.11
   5 -11  -2    4.60    6.06
   4 -11  -2    1.02    2.04
   4 -11  -2    5.28    5.58
   3 -11  -2   14.17    6.07
   3 -11  -2   13.36    3.77
   2 -11  -2    6.35    5.16
   2 -11  -2    6.36    3.17
   1 -11  -2   19.84    4.81
   0 -11  -2   -1.59    1.67
  -1 -11  -2   46.64    6.80
  -2 -11  -2   90.15    8.94
  -3 -11  -2   -0.59    1.71
  -3 -11  -2   -0.45    1.28
  -4 -11  -2   11.34    3.72
  -4 -11  -2    9.60    2.52
  -5 -11  -2    1.80    1.85
  -5 -11  -2   -0.81    2.14
  -6 -11  -2   16.11    4.23
  -6 -11  -2   21.93    4.06
  -7 -11  -2   61.75    7.03
  -7 -11  -2   58.03    8.31
  -8 -11  -2   11.16    4.47
  18 -12  -2    9.45   10.29
  17 -12  -2    3.64    8.53
  16 -12  -2    0.51    7.63
  15 -12  -2  180.00   22.85
  14 -12  -2   65.53   14.18
  13 -12  -2   27.28   10.03
  12 -12  -2  189.86   20.88
  11 -12  -2   84.07   13.95
  10 -12  -2   51.66   11.31
   9 -12  -2   39.37    5.73
   9 -12  -2   57.60   11.30
   8 -12  -2  131.53   10.56
   8 -12  -2  117.75   15.90
   7 -12  -2  162.25   12.37
   7 -12  -2  155.11   17.59
   6 -12  -2   90.94   13.03
   6 -12  -2   77.31    8.35
   5 -12  -2    2.28    2.31
   5 -12  -2    0.14    6.03
   4 -12  -2    3.00    2.74
   4 -12  -2    1.40    5.57
   3 -12  -2   17.57    7.06
   3 -12  -2   16.73    4.40
   2 -12  -2   74.96    8.53
   1 -12  -2    9.91    3.95
   0 -12  -2    1.06    2.58
  -1 -12  -2    1.31    2.43
  -2 -12  -2    2.45    2.49
  -3 -12  -2   20.50    5.06
  -4 -12  -2    8.15    3.43
  -5 -12  -2    2.27    2.86
  -6 -12  -2   -0.06    2.79
  -7 -12  -2    5.37    2.98
  -8 -12  -2   17.98    4.35
  18 -13  -2    0.87   10.70
  17 -13  -2   -1.55    6.49
  16 -13  -2   15.72   10.29
  15 -13  -2   79.60   15.95
  14 -13  -2   26.44   10.49
  13 -13  -2   16.71    9.26
  12 -13  -2   90.83   15.04
  11 -13  -2   21.49    8.68
  10 -13  -2    3.54    6.13
   9 -13  -2    0.53    6.03
   9 -13  -2    3.09    2.33
   8 -13  -2   72.43   13.36
   8 -13  -2   86.08    8.41
   7 -13  -2    4.19    3.01
   7 -13  -2   16.86    8.45
   6 -13  -2    3.99    2.83
   6 -13  -2   16.51    8.17
   5 -13  -2    3.13    2.62
   5 -13  -2    2.67    6.16
   4 -13  -2   30.40    5.71
   4 -13  -2   46.52    9.37
   3 -13  -2  127.03   10.97
   3 -13  -2  104.22   13.01
   2 -13  -2   20.23    5.36
   1 -13  -2    2.95    3.05
   0 -13  -2    1.05    2.96
  -1 -13  -2    8.27    3.46
  -2 -13  -2   37.48    6.93
  -3 -13  -2   64.19    8.88
  -4 -13  -2    5.35    3.14
  -5 -13  -2   12.78    4.02
  -6 -13  -2   16.24    5.03
  17 -14  -2    3.72    6.64
  16 -14  -2    6.08    8.97
  15 -14  -2   13.70   10.42
  14 -14  -2   10.88    8.32
  13 -14  -2   43.29   12.00
  12 -14  -2   15.00    8.05
  11 -14  -2    7.97    6.91
  10 -14  -2   17.32    8.47
   9 -14  -2   20.59    8.45
   9 -14  -2   12.25    3.86
   8 -14  -2   23.60    4.88
   8 -14  -2   21.29    8.81
   7 -14  -2   61.14    7.93
   7 -14  -2   60.34   11.54
   6 -14  -2   21.00    8.14
   6 -14  -2    5.91    3.07
   5 -14  -2  160.17   13.40
   4 -14  -2   39.36    9.00
   4 -14  -2   26.48    5.70
   3 -14  -2   28.33    5.99
   2 -14  -2   13.35    4.61
   1 -14  -2   94.25   10.81
   0 -14  -2    1.63    3.36
  -1 -14  -2   35.74    6.99
  -2 -14  -2  105.31   11.65
  -3 -14  -2   11.48    4.32
  -4 -14  -2   16.64    5.19
  -5 -14  -2   34.80    7.34
  17 -15  -2    6.15    8.15
  16 -15  -2   -4.10    4.83
  15 -15  -2    1.16    8.63
  14 -15  -2    4.74    7.84
  13 -15  -2   12.47    7.60
  12 -15  -2    2.79    6.58
  11 -15  -2   -2.22    5.64
  10 -15  -2   37.77   10.64
   9 -15  -2    8.12    3.47
   9 -15  -2    3.07    6.56
   8 -15  -2   25.30    5.51
   8 -15  -2   20.93    8.75
   7 -15  -2   -1.09    5.39
   7 -15  -2    3.58    2.75
   6 -15  -2   72.78    8.95
   5 -15  -2   65.04    9.04
   5 -15  -2  109.82   13.77
   4 -15  -2    4.45    3.27
   3 -15  -2   -2.75    1.94
   2 -15  -2   39.29    7.37
   1 -15  -2   17.65    5.67
   0 -15  -2   31.52    7.33
  -1 -15  -2   49.92    8.46
  -2 -15  -2   68.29    9.94
  -3 -15  -2    3.34    3.44
  -4 -15  -2    8.15    4.12
  16 -16  -2    0.30    7.08
  15 -16  -2   -4.57    5.95
  14 -16  -2    1.22    6.42
  13 -16  -2    8.08    7.00
  12 -16  -2   12.53    7.78
  11 -16  -2    2.12    5.49
  10 -16  -2   21.38    9.55
   9 -16  -2   -2.23    5.28
   9 -16  -2   -1.29    2.22
   8 -16  -2   -2.76    5.65
   8 -16  -2    0.34    2.33
   7 -16  -2   19.07    5.60
   7 -16  -2   40.85   10.20
   6 -16  -2   94.39   10.64
   5 -16  -2   20.59    5.56
   4 -16  -2   18.57    5.35
   3 -16  -2   64.38    9.07
   2 -16  -2   59.15    9.10
   1 -16  -2   11.94    5.21
   0 -16  -2    8.76    4.40
  -1 -16  -2   55.58    9.41
  -2 -16  -2   -2.49    2.81
  15 -17  -2   25.77   10.81
  14 -17  -2    3.59    7.80
  13 -17  -2   13.09    8.34
  12 -17  -2    2.70    6.35
  11 -17  -2   45.85   12.18
  10 -17  -2   -3.80    4.88
   9 -17  -2    6.65    3.76
   9 -17  -2   -2.53    5.48
   8 -17  -2    7.58    6.19
   8 -17  -2   21.65    5.73
   7 -17  -2   66.33    9.38
   6 -17  -2    1.29    2.92
   5 -17  -2   23.64    5.95
   4 -17  -2   35.01    7.57
   3 -17  -2   32.65    8.14
   2 -17  -2   -0.34    3.29
   1 -17  -2   -0.23    2.99
   0 -17  -2   -0.13    3.05
  14 -18  -2    4.49    5.90
  13 -18  -2    6.58    7.29
  12 -18  -2   35.93   11.06
  11 -18  -2   46.45   12.32
  10 -18  -2    2.76    6.23
   9 -18  -2   36.09    7.10
   9 -18  -2   33.04    9.99
   8 -18  -2  100.00   11.47
   7 -18  -2   17.28    5.30
   6 -18  -2    3.20    3.20
   5 -18  -2   50.58    9.11
   4 -18  -2   44.42    8.82
   3 -18  -2    0.24    3.01
   2 -18  -2   -0.27    2.90
   1 -18  -2   -2.21    3.28
  13 -19  -2   -6.23    5.10
  12 -19  -2   37.91   11.57
  11 -19  -2    9.90    7.35
  10 -19  -2    7.50    6.70
   9 -19  -2   21.99    8.50
   8 -19  -2   62.76    9.82
   7 -19  -2    0.94    3.69
   6 -19  -2   55.09    9.95
   5 -19  -2   20.48    6.54
   4 -19  -2   -0.25    3.33
  12 -20  -2    7.90    5.95
  11 -20  -2    2.87    5.69
  10 -20  -2   19.05    7.51
   8 -20  -2    4.55    4.31
   7 -20  -2   -4.29    4.19
   6 -20  -2   -2.35    4.36
   4 -20   3   -0.70    3.99
   5 -20   3    7.35    4.13
   6 -20   3   -4.77    2.55
  10 -20   3   18.02    8.40
  11 -20   3   43.78   11.88
   2 -19   3    1.31    3.92
   3 -19   3   -2.36    3.19
   4 -19   3   -1.65    3.06
   5 -19   3   33.30    7.08
   6 -19   3    2.44    2.79
   9 -19   3    3.36    6.35
  10 -19   3   -0.84    5.89
  11 -19   3   34.13   10.36
  12 -19   3    0.01    5.38
  13 -19   3   17.91    8.47
   0 -18   3   -0.73    3.30
   1 -18   3   -0.15    2.62
   2 -18   3    3.76    3.81
   3 -18   3   11.16    4.99
   4 -18   3   51.47    8.34
   5 -18   3   -0.55    2.41
   6 -18   3   10.55    3.83
   7 -18   3    8.87    7.36
   8 -18   3    3.62    5.77
   9 -18   3   13.98    7.41
  10 -18   3   33.60   10.79
  11 -18   3   47.57   12.18
  12 -18   3    1.22    6.57
  13 -18   3   77.38   16.16
  14 -18   3   28.61   10.59
  -2 -17   3    4.00    4.07
  -1 -17   3    1.81    3.03
   0 -17   3    1.09    3.60
   1 -17   3    8.28    5.20
   2 -17   3   61.65    8.95
   3 -17   3   60.93    8.80
   4 -17   3    9.35    4.22
   5 -17   3   21.95    5.55
   6 -17   3  156.57   13.32
   7 -17   3    4.25    3.05
   7 -17   3    6.49    6.33
   8 -17   3    9.44    7.05
   9 -17   3   40.16   10.58
  10 -17   3   76.61   14.39
  11 -17   3    3.64    6.29
  12 -17   3   29.22   10.08
  13 -17   3   16.95    8.94
  14 -17   3   23.16   10.02
  -3 -16   3    2.93    2.92
  -2 -16   3   -3.75    2.58
  -1 -16   3    3.52    3.74
   0 -16   3    7.21    4.03
   1 -16   3   77.65    9.74
   2 -16   3   32.28    6.38
   3 -16   3   13.39    4.52
   4 -16   3   17.20    5.02
   5 -16   3  223.90   16.72
   6 -16   3  178.00   14.06
   7 -16   3   21.23    4.76
   7 -16   3   29.44    9.51
   8 -16   3   21.44    8.41
   9 -16   3   84.37   14.29
  10 -16   3    6.67    6.57
  11 -16   3   12.04    7.83
  12 -16   3   16.61    8.35
  13 -16   3   47.31   13.26
  14 -16   3   11.21    8.81
  15 -16   3    1.75    7.04
  -5 -15   3   -1.65    2.08
  -4 -15   3   -1.13    2.03
  -3 -15   3    3.58    3.13
  -2 -15   3   31.56    6.86
  -1 -15   3   14.94    4.83
   0 -15   3   37.34    6.91
   1 -15   3  104.92   10.34
   2 -15   3    1.52    2.59
   3 -15   3    2.36    2.86
   4 -15   3   97.32    9.50
   5 -15   3  379.19   24.23
   6 -15   3   88.95    8.75
   7 -15   3    3.32    2.35
   7 -15   3    6.65    6.99
   8 -15   3   57.81   11.78
   9 -15   3   63.13   12.72
  10 -15   3   12.55    7.23
  11 -15   3   58.41   13.01
  12 -15   3   36.67   10.97
  13 -15   3   38.63   11.74
  14 -15   3   -4.54    7.45
  15 -15   3   -1.50    4.97
  16 -15   3   -1.59    6.81
  -6 -14   3    3.86    2.61
  -5 -14   3    1.52    2.48
  -4 -14   3    6.04    2.91
  -3 -14   3   74.88    9.21
  -2 -14   3    7.92    3.65
  -1 -14   3   17.94    5.12
   0 -14   3  308.59   20.86
   1 -14   3  105.84   10.06
   2 -14   3   -0.10    2.25
   3 -14   3   10.84    3.74
   4 -14   3  201.88   17.57
   4 -14   3  131.45   11.80
   5 -14   3   56.59   10.56
   5 -14   3   25.69    4.95
   6 -14   3   -1.89    5.39
   6 -14   3    0.42    1.79
   7 -14   3   15.59    7.27
   7 -14   3   21.06    4.13
   8 -14   3   42.67    9.86
   9 -14   3    1.52    5.53
  10 -14   3   -2.20    5.27
  11 -14   3   17.02    8.29
  12 -14   3   11.56    7.85
  13 -14   3    5.26    8.43
  14 -14   3    3.19    7.44
  15 -14   3   -9.65    6.73
  16 -14   3   -1.65    5.99
  -8 -13   3   17.36    4.38
  -7 -13   3    9.97    3.87
  -6 -13   3    3.96    2.57
  -5 -13   3   21.82    5.28
  -4 -13   3   59.74    8.11
  -3 -13   3    2.20    2.42
  -2 -13   3    5.21    3.18
  -1 -13   3  150.46   12.38
   0 -13   3   42.46    6.51
   1 -13   3    9.21    3.54
   2 -13   3    4.93    2.62
   3 -13   3   -7.52    5.46
   3 -13   3    2.00    2.07
   4 -13   3   18.95    7.60
   4 -13   3   24.21    4.63
   5 -13   3    1.72    2.10
   5 -13   3    6.70    6.54
   6 -13   3   40.38    9.67
   6 -13   3   42.74    5.45
   7 -13   3   -1.47    5.23
   7 -13   3    4.81    1.99
   8 -13   3  136.86   16.64
   9 -13   3  128.03   16.48
  10 -13   3    0.06    5.48
  11 -13   3   10.61    7.45
  12 -13   3    1.72    7.05
  13 -13   3   41.03   11.98
  14 -13   3   17.86    9.93
  15 -13   3   -0.92    8.16
  16 -13   3    4.77    8.95
  17 -13   3   29.25   14.49
  -9 -12   3   22.88    5.09
  -9 -12   3   25.01    5.67
  -8 -12   3   39.41    5.98
  -8 -12   3   36.43    6.86
  -7 -12   3    3.43    2.97
  -6 -12   3   26.47    5.72
  -5 -12   3   62.58    8.19
  -4 -12   3   69.25    8.36
  -3 -12   3   11.15    3.41
  -2 -12   3   73.50    8.32
  -1 -12   3   35.47    5.75
   0 -12   3    2.79    2.33
   1 -12   3    4.26    2.65
   2 -12   3  173.26   16.17
   2 -12   3  168.43   12.51
   3 -12   3   -1.30    5.23
   3 -12   3   -0.68    1.70
   4 -12   3    1.90    1.86
   4 -12   3    6.03    5.82
   5 -12   3    1.84    1.60
   5 -12   3    2.66    5.15
   6 -12   3    0.72    1.32
   6 -12   3   -0.03    5.29
   7 -12   3   -0.37    5.09
   7 -12   3    8.43    2.40
   8 -12   3  207.26   21.08
   9 -12   3  100.74   14.49
  10 -12   3    4.83    6.45
  11 -12   3    8.71    7.55
  12 -12   3  112.32   17.05
  13 -12   3   10.19    8.80
  14 -12   3   66.99   14.84
  15 -12   3   40.57   13.23
  16 -12   3    1.13    8.36
  17 -12   3   61.22   16.67
 -10 -11   3   45.39    7.21
 -10 -11   3   37.94    6.76
  -9 -11   3   87.52    9.83
  -9 -11   3   57.24    7.40
  -8 -11   3    4.00    2.24
  -8 -11   3   -0.43    2.00
  -7 -11   3    1.42    2.40
  -6 -11   3   38.91    6.28
  -5 -11   3   54.35    7.27
  -4 -11   3   -0.98    1.62
  -3 -11   3    0.53    1.84
  -2 -11   3    6.36    2.80
  -1 -11   3   53.17    6.56
   0 -11   3   13.12    3.62
   1 -11   3   49.34    5.91
   1 -11   3   40.85    8.29
   2 -11   3   -0.79    4.30
   2 -11   3   -2.52    1.12
   3 -11   3    8.60    2.59
   3 -11   3   17.32    5.81
   4 -11   3    7.79    2.51
   4 -11   3    6.53    5.01
   5 -11   3   38.03    4.66
   5 -11   3   38.35    8.77
   6 -11   3    0.14    4.89
   6 -11   3    1.00    0.58
   7 -11   3  170.24   17.44
   7 -11   3  169.63   11.45
   8 -11   3   22.05    7.78
   9 -11   3   11.61    7.34
 -10  11  -3  108.80    7.74
  10 -11   3  108.79   15.38
  11 -11   3    0.00    6.21
 -11  11  -3    0.56    1.62
 -12  11  -3  118.17    8.53
  12 -11   3  116.99   17.18
  13 -11   3   99.69   16.36
  14 -11   3   65.20   14.58
  15 -11   3    5.78    8.12
  16 -11   3   12.77    9.52
  17 -11   3   31.91   12.85
  18 -11   3    1.39   11.41
 -10 -10   3   36.33    6.64
 -10 -10   3   33.25    5.84
  -9 -10   3   22.44    5.08
  -9 -10   3   25.76    4.84
  -8 -10   3    2.20    2.33
  -7 -10   3   33.81    6.00
  -6 -10   3   53.70    7.28
  -5 -10   3   59.52    7.47
  -4 -10   3   40.84    6.01
  -3 -10   3    2.11    2.14
  -2 -10   3   48.20    6.05
  -1 -10   3   67.76    7.15
   0 -10   3    8.99    2.98
   0 -10   3    9.83    4.69
   1 -10   3   21.45    5.95
   1 -10   3   20.51    3.77
   2 -10   3   47.91    7.71
   2 -10   3   40.00    4.91
   3 -10   3    6.96    5.00
   3 -10   3    5.44    2.06
   4 -10   3    0.54    4.16
   4 -10   3    2.27    1.34
   5 -10   3   92.80   11.36
   5 -10   3   74.26    6.33
   6 -10   3   63.21   10.32
   6 -10   3   70.50    5.81
   7 -10   3  238.88   14.09
   7 -10   3  205.60   20.02
   8 -10   3   54.90   10.37
  -9  10  -3  342.48   17.87
   9 -10   3  341.40   28.55
  10 -10   3  102.00   14.84
 -10  10  -3   98.88    7.20
 -11  10  -3    1.59    1.67
  11 -10   3    1.57    6.71
  12 -10   3   -4.70    5.68
 -12  10  -3    1.27    1.66
 -13  10  -3    7.35    2.75
  13 -10   3   10.42    8.56
 -14  10  -3    0.02    1.94
  14 -10   3   -6.76    5.12
 -15  10  -3   45.24    6.12
  15 -10   3   43.12   12.45
 -16  10  -3   18.45    4.25
  16 -10   3   28.26   11.49
  17 -10   3   11.84    9.70
 -11  -9   3   23.32    5.26
 -11  -9   3   20.23    4.75
 -10  -9   3   89.51    8.83
 -10  -9   3   76.27    9.22
  -9  -9   3    5.51    2.47
  -9  -9   3    2.14    2.63
  -8  -9   3   17.12    4.21
  -7  -9   3   83.95    8.79
  -6  -9   3  140.22   11.11
  -5  -9   3   48.79    6.29
  -4  -9   3   49.42    6.00
  -3  -9   3   29.15    4.64
  -2  -9   3   31.39    4.60
  -1  -9   3    1.31    1.48
  -1  -9   3    7.98    3.46
   0  -9   3   98.88    9.78
   0  -9   3  101.60    7.93
   1  -9   3    1.07    1.45
   1  -9   3    3.77    3.65
   2  -9   3   19.99    5.35
   2  -9   3   10.45    2.62
   3  -9   3   11.46    2.57
   3  -9   3   15.97    5.31
   4  -9   3  272.61   20.04
   4  -9   3  228.60   14.57
   6  -9   3    2.37    4.20
   6  -9   3    2.10    1.25
   7  -9   3  205.02   12.25
  -7   9  -3  204.97   11.29
   7  -9   3  186.01   18.17
  -8   9  -3  172.22   10.12
   8  -9   3  169.52   17.36
   9  -9   3  151.20   16.74
  -9   9  -3  144.54    9.08
 -10   9  -3   12.38    2.71
  10  -9   3   14.88    8.04
 -11   9  -3    9.34    2.34
  11  -9   3   13.68    8.08
 -12   9  -3    9.48    2.64
  12  -9   3   12.23    8.37
  13  -9   3   -6.88    5.82
 -13   9  -3   -0.29    1.67
  14  -9   3    9.03    8.57
 -14   9  -3   14.56    3.33
 -15   9  -3   99.61    8.59
  15  -9   3  118.75   17.91
  16  -9   3   10.82    8.64
 -16   9  -3    3.84    2.49
 -17   9  -3    4.43    2.68
 -18   9  -3   17.11    3.42
 -12  -8   3   -0.34    3.08
 -11  -8   3   33.26    5.68
 -11  -8   3   32.95    6.10
 -10  -8   3   58.07    7.72
 -10  -8   3   52.38    6.65
  -9  -8   3    2.13    1.99
  -9  -8   3    1.04    2.19
  -8  -8   3   26.56    4.84
  -7  -8   3   19.96    4.31
  -6  -8   3   35.45    5.32
  -5  -8   3  109.76    9.00
  -4  -8   3   32.18    4.69
  -3  -8   3    1.58    1.71
  -2  -8   3    7.08    2.36
  -1  -8   3   20.33    3.47
  -1  -8   3   22.38    4.21
   0  -8   3  156.08   10.65
   0  -8   3  165.60   13.04
   1  -8   3   74.35    8.74
   1  -8   3   94.88    6.85
   2  -8   3  342.57   19.74
   3  -8   3  513.97   28.03
   4  -8   3  335.48   24.53
   5  -8   3    2.38    1.24
   5  -8   3    4.01    3.95
   6  -8   3  106.43   11.55
  -6   8  -3  105.32    6.79
   6  -8   3  107.48    7.17
   7  -8   3  630.79   42.58
   7  -8   3  612.80   32.71
  -7   8  -3  618.67   29.25
   8  -8   3  122.27   13.98
  -8   8  -3  107.93    7.28
  -9   8  -3    1.77    1.41
   9  -8   3    1.59    5.64
 -10   8  -3   15.60    3.01
  10  -8   3   22.00    8.09
  11  -8   3   10.13    7.82
 -11   8  -3   18.74    3.50
 -12   8  -3    4.54    2.08
  12  -8   3    0.94    6.78
  13  -8   3   -4.13    5.90
 -13   8  -3    2.03    2.02
  14  -8   3   15.34    9.51
 -14   8  -3   25.22    4.24
  15  -8   3   46.72   12.64
 -15   8  -3   61.44    7.11
 -16   8  -3   28.74    4.85
  16  -8   3   25.27   10.37
 -17   8  -3    7.39    2.65
 -12  -7   3   -2.89    2.38
 -11  -7   3    6.19    3.10
 -11  -7   3    6.05    3.15
 -10  -7   3    2.98    2.12
 -10  -7   3    4.34    2.56
  -9  -7   3   45.79    6.34
  -8  -7   3   16.73    3.77
  -7  -7   3   59.59    6.66
  -6  -7   3   14.02    3.47
  -5  -7   3   50.39    5.75
  -4  -7   3    6.10    2.19
  -3  -7   3   41.93    4.79
  -2  -7   3   72.44    6.29
  -2  -7   3   62.52    5.71
  -1  -7   3   55.48    6.14
  -1  -7   3   52.59    4.97
   0  -7   3  451.85   31.26
   0  -7   3  533.87   27.31
   1  -7   3    4.72    1.64
   1  -7   3    3.66    3.06
   2  -7   3  431.81   23.69
   3  -7   3   20.39    2.64
   3  -7   3   23.93    5.02
   4  -7   3   96.79    6.36
   4  -7   3   89.12    9.86
   5  -7   3   28.77    2.79
   5  -7   3   23.04    5.64
   6  -7   3  171.04   15.06
  -6   7  -3  159.18    9.28
   6  -7   3  172.76    9.89
  -7   7  -3  307.91   15.25
   7  -7   3  281.01   22.84
   7  -7   3  293.80   16.14
   8  -7   3   31.27    7.64
  -8   7  -3   30.53    3.64
   9  -7   3   -1.34    5.04
  -9   7  -3    0.94    1.24
 -10   7  -3  133.19    8.84
  10  -7   3  143.90   16.28
 -11   7  -3   26.25    4.00
  11  -7   3   26.73    9.07
 -12   7  -3   82.15    7.56
  12  -7   3   98.95   14.26
 -13   7  -3   43.86    5.72
  13  -7   3   43.86   11.10
  14  -7   3   23.07    9.65
 -14   7  -3   19.58    3.99
  15  -7   3   21.75    9.81
 -15   7  -3   31.52    5.20
 -16   7  -3   25.60    5.12
 -17   7  -3    4.58    3.02
 -13  -6   3   -0.19    2.81
 -12  -6   3    5.29    2.85
 -11  -6   3   13.79    3.64
 -11  -6   3    8.53    3.23
 -10  -6   3    9.08    3.17
 -10  -6   3   11.65    3.29
  -9  -6   3    7.75    3.05
  -8  -6   3   41.06    5.50
  -7  -6   3    0.45    1.33
  -6  -6   3   19.30    3.79
  -5  -6   3   57.25    5.62
  -4  -6   3  978.51   52.12
  -3  -6   3  145.69    9.92
  -2  -6   3 1451.58   77.27
  -2  -6   3 1531.52   87.86
  -1  -6   3  398.43   23.11
  -1  -6   3  431.93   26.26
   0  -6   3  224.93   12.04
   0  -6   3  165.27   13.65
   1  -6   3  603.98   32.13
   2  -6   3  526.96   28.05
   4  -6   3   27.39    5.27
   4  -6   3   25.78    2.51
  -5   6  -3   75.08    5.02
   5  -6   3   72.58    8.77
   5  -6   3   74.84    4.90
   6  -6   3  156.44    8.80
   6  -6   3  142.39   13.67
  -6   6  -3  157.59    8.74
   7  -6   3   76.22    9.82
  -7   6  -3   84.50    5.69
  -8   6  -3   14.43    2.56
   8  -6   3    9.54    5.22
   9  -6   3   22.11    7.17
  -9   6  -3   28.74    3.80
  10  -6   3   14.24    6.81
 -10   6  -3    4.05    1.91
 -11   6  -3  162.66   10.76
  11  -6   3  197.61   19.37
  12  -6   3   35.80   10.24
 -12   6  -3   67.21    6.43
 -13   6  -3   17.89    3.49
  13  -6   3   14.24    8.14
 -14   6  -3   22.09    4.08
  14  -6   3   21.73    9.23
 -15   6  -3    3.55    2.51
 -16   6  -3   -6.14    1.68
 -17   6  -3    0.21    2.19
 -14  -5   3    0.72    3.34
 -13  -5   3   -2.73    2.52
 -12  -5   3    4.13    2.75
 -11  -5   3   21.95    4.34
 -11  -5   3   21.55    4.37
 -10  -5   3   29.34    5.03
 -10  -5   3   25.68    4.60
  -9  -5   3    0.83    1.51
  -8  -5   3   14.21    3.27
  -7  -5   3    4.38    2.17
  -6  -5   3  105.72    8.17
  -5  -5   3  380.52   21.94
  -4  -5   3  197.16   12.37
  -3  -5   3  420.90   23.45
  -2  -5   3   22.59    2.93
  -2  -5   3   21.66    2.97
  -1  -5   3   14.50    2.90
  -1  -5   3   14.48    2.35
   0  -5   3   11.51    3.25
   0  -5   3   11.80    2.05
   1  -5   3  956.85   49.47
   2  -5   3 1646.01   91.50
   2  -5   3 1423.28   77.68
   3  -5   3  127.88   11.29
   3  -5   3  136.67    7.86
   4  -5   3    0.09    2.78
   4  -5   3    0.36    0.56
  -4   5  -3   -0.51    0.91
   5  -5   3   69.93    4.33
   5  -5   3   68.42    8.31
  -5   5  -3   70.25    4.71
   6  -5   3  344.25   23.83
  -6   5  -3  307.39   15.89
   7  -5   3   37.47    6.80
  -7   5  -3   30.51    3.48
   8  -5   3    9.38    5.13
  -8   5  -3   12.16    2.42
  -9   5  -3   23.08    3.49
   9  -5   3   23.37    6.81
 -10   5  -3   55.27    5.58
  10  -5   3   68.96   10.75
  11  -5   3  103.21   13.84
 -11   5  -3   86.01    6.93
 -12   5  -3   15.53    3.29
  12  -5   3   16.11    8.14
  13  -5   3    1.25    6.39
 -13   5  -3    4.47    2.17
 -14   5  -3    6.63    2.70
 -15   5  -3    1.13    2.19
 -16   5  -3   12.44    3.53
 -17   5  -3    7.05    2.79
 -14  -4   3    2.14    2.71
 -13  -4   3   -1.53    2.25
 -12  -4   3    9.60    3.13
 -11  -4   3    3.86    2.37
 -11  -4   3    8.81    3.05
 -10  -4   3    1.62    1.92
 -10  -4   3    0.29    1.95
  -9  -4   3    7.40    2.52
  -8  -4   3   48.62    5.51
  -7  -4   3  131.28    9.41
  -6  -4   3  639.79   34.87
  -5  -4   3    6.38    1.94
  -4  -4   3  124.04    8.37
  -3  -4   3   28.46    3.21
  -2  -4   3 2037.11  103.78
  -2  -4   3 2038.74  118.90
  -1  -4   3   34.47    3.07
  -1  -4   3   24.09    3.40
   0  -4   3  800.28   47.94
   0  -4   3 1079.65   56.11
   1  -4   3  173.64    9.91
   2  -4   3    3.55    0.98
   2  -4   3    2.69    2.76
  -3   4  -3   17.22    2.13
   3  -4   3   13.96    3.99
   3  -4   3   17.51    1.73
  -4   4  -3  273.41   13.24
   4  -4   3  265.13   19.28
  -5   4  -3   17.98    2.38
   5  -4   3   21.82    4.76
   6  -4   3  702.40   46.39
  -6   4  -3  741.01   33.40
   7  -4   3   98.43   10.62
  -7   4  -3  103.95    6.63
  -8   4  -3  114.05    7.28
   8  -4   3  107.69   11.77
   9  -4   3    0.93    4.44
  -9   4  -3    2.75    1.56
  10  -4   3   10.63    5.99
 -10   4  -3    1.82    1.39
 -11   4  -3   63.14    6.42
  11  -4   3   78.32   12.13
  12  -4   3   11.18    7.27
 -12   4  -3   14.15    3.16
 -13   4  -3    4.99    2.40
 -14   4  -3    9.07    2.59
 -15   4  -3   16.79    3.69
 -16   4  -3    0.79    2.67
 -15  -3   3    0.94    2.74
 -14  -3   3    0.34    2.62
 -13  -3   3    1.85    2.35
 -12  -3   3   10.52    3.10
 -11  -3   3   29.93    4.85
 -11  -3   3   20.13    4.05
 -10  -3   3   28.09    4.47
 -10  -3   3   25.42    4.20
  -9  -3   3  112.63    8.64
  -8  -3   3  151.01   10.36
  -7  -3   3  269.62   16.23
  -6  -3   3   31.33    3.67
  -5  -3   3   63.74    5.10
  -4  -3   3   79.05    5.77
  -3  -3   3 1583.26   81.12
  -2  -3   3    0.59    1.29
  -2  -3   3    0.83    0.97
  -1  -3   3  289.84   15.89
   0  -3   3  111.71    7.23
   0  -3   3  141.18    9.10
   1  -3   3  978.79   58.54
  -2   3  -3 3814.35  170.74
   2  -3   3 3865.57  229.59
   2  -3   3 4116.37  197.81
  -3   3  -3   11.68    1.65
   3  -3   3   10.75    3.55
   4  -3   3  211.70   15.28
  -4   3  -3  197.32   10.34
  -5   3  -3  154.44    8.59
   5  -3   3  162.15   13.19
  -6   3  -3  119.97    7.06
   6  -3   3  108.39   10.70
   7  -3   3    6.54    4.18
  -7   3  -3    6.73    1.84
  -8   3  -3   36.07    4.01
   8  -3   3   36.44    6.98
  -9   3  -3   55.73    5.37
   9  -3   3   68.66    9.48
  10  -3   3   14.10    6.32
 -10   3  -3   19.75    3.33
 -11   3  -3   11.68    2.63
  11  -3   3   10.18    6.38
 -12   3  -3   24.57    4.16
 -13   3  -3   37.93    5.61
 -14   3  -3   65.02    7.57
 -15   3  -3   85.52    9.19
 -16   3  -3    5.00    2.85
 -15  -2   3    0.38    2.25
 -14  -2   3    2.60    2.31
 -13  -2   3   11.83    2.86
 -12  -2   3    8.31    2.48
 -11  -2   3   29.76    4.57
 -11  -2   3   26.73    4.19
 -10  -2   3   -1.45    1.02
 -10  -2   3    3.23    1.73
  -9  -2   3   46.25    5.00
  -8  -2   3  415.47   23.46
   7   2  -3  335.21   21.18
  -7  -2   3  315.63   18.61
   6   2  -3    9.09    2.62
  -6  -2   3   17.67    2.70
   5   2  -3   11.23    2.12
  -5  -2   3   10.27    2.05
  -4  -2   3 2424.75  139.27
  -4  -2   3 2336.34  121.42
  -4  -2   3 2415.45  118.15
  -3  -2   3    8.27    1.18
  -3  -2   3    6.28    1.42
  -2  -2   3   19.10    2.17
  -2  -2   3   21.87    2.19
  -1  -2   3   24.50    2.46
  -1  -2   3   20.66    2.04
   0  -2   3   17.18    1.63
   0  -2   3   18.37    2.41
   1  -2   3   37.88    4.35
   1  -2   3   43.96    2.65
   2  -2   3  332.30   16.79
  -2   2  -3  329.90   15.27
   2  -2   3  317.81   21.02
  -3   2  -3    1.36    0.93
   3  -2   3    7.12    3.11
  -4   2  -3    1.11    0.94
   4  -2   3   -0.56    2.25
  -5   2  -3   74.74    5.13
  -5   2  -3   81.70    4.57
   5  -2   3   77.13    8.02
   6  -2   3   20.52    4.83
  -6   2  -3   20.41    1.85
  -6   2  -3   19.71    2.67
  -7   2  -3   27.58    2.35
   7  -2   3   27.26    5.75
  -7   2  -3   24.96    3.23
  -8   2  -3   20.68    3.15
   8  -2   3   22.96    5.53
   9  -2   3   10.26    5.05
  -9   2  -3    5.72    1.80
 -11   2  -3    0.46    1.34
 -12   2  -3  113.56    8.70
 -13   2  -3   17.33    3.74
 -14   2  -3  191.40   13.37
 -15   2  -3   70.11    8.30
 -16   2  -3   12.11    3.48
 -16  -1   3    7.82    2.78
 -15  -1   3    4.57    2.92
 -14  -1   3   -1.86    1.73
 -13  -1   3   12.43    3.33
 -12  -1   3   31.92    4.71
 -11  -1   3    3.21    1.91
 -11  -1   3   12.76    2.70
 -10  -1   3   16.29    2.90
 -10  -1   3   13.31    2.95
  -9  -1   3  190.74   12.08
  -8  -1   3  397.19   22.71
   8   1  -3  411.25   26.70
   7   1  -3   71.54    7.46
  -7  -1   3   75.38    5.77
  -6  -1   3  268.07   15.55
   6   1  -3  280.77   18.33
  -5  -1   3   29.69    2.88
   5   1  -3   32.42    3.97
  -4  -1   3  756.90   40.26
   4   1  -3  795.28   46.47
  -3  -1   3  311.23   16.75
  -2  -1   3  695.42   40.60
  -2  -1   3  681.56   35.41
  -1  -1   3   98.93    6.60
   0  -1   3   37.90    3.46
  -1   1  -3  852.68   38.18
   1  -1   3  877.82   51.52
  -2   1  -3   20.66    1.91
  -2   1  -3   17.98    1.84
   2  -1   3   20.69    3.32
   3  -1   3  187.61   14.08
  -3   1  -3  212.32   10.89
  -3   1  -3  201.13   10.15
  -4   1  -3  139.85    7.66
  -4   1  -3  142.64    7.85
   4  -1   3  137.30   11.13
  -5   1  -3  196.98   10.67
  -5   1  -3  191.20   10.26
   5  -1   3  189.15   14.47
   6  -1   3   68.22    7.75
  -6   1  -3   75.74    5.26
  -6   1  -3   72.91    4.80
  -7   1  -3  184.37   10.49
  -7   1  -3  175.34   10.29
   8  -1   3    0.46    1.97
  -8   1  -3   12.64    1.86
  -8   1  -3    7.74    2.17
   9  -1   3   37.54    7.30
  -9   1  -3   44.06    4.86
 -10   1  -3   24.45    3.82
 -11   1  -3   91.83    7.47
 -12   1  -3    2.89    1.92
 -13   1  -3   72.63    7.86
 -14   1  -3  188.60   13.34
 -15   1  -3   18.32    4.15
 -16   0   3   15.51    4.05
 -15   0   3   10.33    3.45
 -14   0   3    4.64    2.36
 -13   0   3  240.79   14.99
 -12   0   3   80.25    7.50
 -11   0   3   17.15    3.29
 -10   0   3    0.34    1.29
 -10   0   3    1.39    1.16
  -9   0   3  297.01   16.08
   9   0  -3  294.64   21.71
  -9   0   3  317.07   17.79
  -8   0   3    1.07    1.03
   8   0  -3    1.66    2.95
  -7   0   3    3.74    1.31
   7   0  -3   -4.45    2.53
  -6   0   3  615.75   32.67
   6   0  -3  622.63   38.63
   5   0  -3   13.90    3.20
  -5   0   3   11.82    1.82
  -4   0   3    0.99    0.77
   4   0  -3   -1.77    1.98
   3   0  -3   -0.36    0.37
  -2   0   3   11.53    1.55
  -2   0   3   11.82    1.29
  -1   0   3  255.99   15.73
   0   0  -3  160.59    9.79
   0   0   3  164.40   11.25
   0   0  -3  175.10    8.40
  -1   0  -3 1789.36   91.39
   1   0   3 1856.27  105.94
  -1   0  -3 1780.51   78.80
  -2   0  -3   50.18    3.43
   2   0   3   45.52    4.81
  -2   0  -3   43.95    3.11
  -3   0  -3    5.46    1.18
   3   0   3    4.40    1.92
  -3   0  -3    6.34    1.41
  -4   0  -3  154.16    8.44
  -4   0  -3  159.50    9.05
  -5   0  -3   52.14    3.95
  -5   0  -3   52.21    4.09
  -6   0  -3   -0.58    0.98
   6   0   3    2.12    3.00
  -6   0  -3    0.59    0.86
  -7   0  -3    2.79    1.26
   7   0   3    4.59    3.43
  -7   0  -3    4.12    1.57
  -8   0  -3    0.61    1.27
  -8   0  -3   -0.13    1.21
   8   0   3   -1.97    3.52
  -9   0  -3  175.89   10.91
 -10   0  -3  110.01    8.15
 -11   0  -3    1.19    1.74
 -12   0  -3   73.19    7.64
 -13   0  -3  117.29    9.55
 -14   0  -3   59.98    7.43
 -15   0  -3    2.08    2.39
 -17   1   3    5.77    3.16
 -16   1   3    7.07    2.73
 -15   1   3    3.50    2.24
 -14   1   3   97.13    8.22
 -13   1   3  392.71   21.65
 -12   1   3   82.76    6.93
 -11   1   3    8.69    2.20
 -10   1   3  245.69   14.63
  10  -1  -3  336.02   22.03
 -10   1   3  260.65   16.01
  -9   1   3   82.81    5.96
  -9   1   3   81.16    5.97
   9  -1  -3   74.28    8.83
   8  -1  -3  132.44   11.91
  -8   1   3  142.96    8.81
  -7   1   3    3.60    1.18
   7  -1  -3   -0.09    1.59
   5  -1  -3  256.01   17.62
   4  -1  -3  814.18   49.70
   3  -1  -3   23.43    4.01
   2  -1  -3  124.67    9.05
  -1   1   3  842.15   42.09
  -1   1   3  828.71   49.56
   1  -1  -3  804.03   43.20
   0  -1  -3  169.29    9.38
   0   1   3  160.33   10.52
  -1  -1  -3 1135.14   50.56
  -1  -1  -3 1170.50   58.86
  -2  -1  -3   99.84    6.18
  -2  -1  -3   93.16    5.32
  -3  -1  -3   69.20    4.33
  -3  -1  -3   69.21    4.74
   3   1   3   60.51    5.79
   4   1   3   26.24    3.84
  -4  -1  -3   24.84    2.69
  -4  -1  -3   24.51    2.71
   5   1   3  113.42    9.23
  -5  -1  -3  102.66    7.01
  -5  -1  -3  103.97    6.58
  -6  -1  -3  247.36   13.65
   6   1   3  270.94   18.51
  -6  -1  -3  263.95   15.05
  -7  -1  -3   32.18    3.91
   7   1   3   28.95    5.12
  -7  -1  -3   36.35    3.74
  -8  -1  -3   93.43    6.87
  -8  -1  -3   85.88    6.78
  -9  -1  -3  237.79   13.90
 -10  -1  -3   21.56    3.86
 -11  -1  -3  214.85   13.76
 -12  -1  -3  209.66   13.96
 -13  -1  -3  116.12    9.95
 -14  -1  -3    1.11    2.37
 -17   2   3   24.90    4.47
 -16   2   3    7.00    2.78
 -15   2   3    2.02    2.38
 -14   2   3  116.78    9.15
 -13   2   3  166.66   11.22
 -12   2   3    2.09    1.46
 -11   2   3  104.11    7.19
  11  -2  -3   78.35   10.64
 -10   2   3  142.39    8.93
 -10   2   3  140.65    9.05
  -9   2   3  132.66    8.16
  -9   2   3  142.22    8.02
   9  -2  -3   94.45   10.70
  -8   2   3   21.98    2.90
  -8   2   3   20.35    2.51
   8  -2  -3   19.89    5.03
   7  -2  -3    2.23    3.26
   6  -2  -3    0.80    2.51
   5  -2  -3   12.02    3.98
   4  -2  -3 2496.62  147.19
   3  -2  -3  282.96   19.24
   2  -2  -3   14.97    2.16
   2  -2  -3   12.17    2.98
   1  -2  -3   -0.29    0.43
   1  -2  -3    1.40    1.03
   0  -2  -3   57.51    4.59
   0   2   3   65.25    4.78
  -1  -2  -3   45.91    2.96
  -1  -2  -3   47.31    3.96
  -2  -2  -3  116.58    6.18
   2   2   3  110.37    8.05
  -2  -2  -3  111.10    7.21
   3   2   3    4.13    1.88
  -3  -2  -3    4.47    1.48
  -3  -2  -3    3.95    1.26
  -4  -2  -3  761.60   34.60
   4   2   3  773.52   45.92
  -4  -2  -3  732.11   39.75
   5   2   3  146.13   10.95
  -5  -2  -3  142.47    8.29
  -5  -2  -3  133.50    9.07
  -6  -2  -3   12.62    2.49
  -6  -2  -3   12.01    2.56
   6   2   3   12.25    3.54
  -7  -2  -3   76.76    6.06
  -7  -2  -3   77.51    6.38
  -8  -2  -3  581.01   31.84
  -8  -2  -3  568.51   28.43
  -9  -2  -3  186.23   11.80
 -10  -2  -3   19.32    3.91
 -11  -2  -3   60.52    6.96
 -12  -2  -3   59.12    7.40
 -13  -2  -3    4.75    3.04
 -14  -2  -3    2.47    3.11
 -17   3   3    1.59    2.19
 -16   3   3   15.07    3.74
 -15   3   3   51.67    6.34
 -14   3   3   54.35    6.26
 -13   3   3    8.09    2.50
 -12   3   3    7.88    2.33
  12  -3  -3   13.18    5.74
 -11   3   3   12.37    2.68
  11  -3  -3    6.91    5.09
 -10   3   3   97.17    7.07
 -10   3   3  113.44    7.27
  10  -3  -3  113.17   12.18
   9  -3  -3   45.98    7.42
  -9   3   3   44.19    3.72
  -9   3   3   41.07    4.03
  -8   3   3   14.82    2.27
   8  -3  -3    8.62    4.19
   7  -3  -3   13.35    4.48
  -7   3   3    9.02    1.72
  -6   3   3    8.44    1.44
   6  -3  -3    7.40    3.64
   5  -3  -3 1306.89   79.22
   4  -3  -3  262.58   20.55
   4  -3  -3  334.65   17.32
   3  -3  -3  381.66   25.41
   2  -3  -3 1020.43   70.92
   2  -3  -3 1348.14   61.24
   1  -3  -3   32.17    3.37
   1  -3  -3   31.35    1.87
  -1  -3  -3  345.68   19.44
  -1  -3  -3  356.98   16.28
  -2  -3  -3    2.05    0.92
  -2  -3  -3    1.04    1.24
   2   3   3    4.70    1.59
  -3  -3  -3    1.52    0.94
  -3  -3  -3    0.51    1.11
   3   3   3    0.55    1.38
   4   3   3   19.41    3.17
  -4  -3  -3   13.89    2.33
  -4  -3  -3   19.02    2.88
   5   3   3   15.41    3.16
  -5  -3  -3   14.49    2.54
  -5  -3  -3   12.79    2.67
  -6  -3  -3    0.91    1.26
  -6  -3  -3    0.93    1.47
  -7  -3  -3  111.91    7.75
  -7  -3  -3  108.63    8.39
  -8  -3  -3    2.88    2.13
  -8  -3  -3    2.04    1.76
  -9  -3  -3  239.78   14.38
 -10  -3  -3    1.41    2.21
 -11  -3  -3   27.33    4.79
 -12  -3  -3    5.67    2.78
 -13  -3  -3   -0.47    2.54
 -18   4   3   23.04    4.49
 -17   4   3    1.91    2.30
 -16   4   3   15.08    3.52
 -15   4   3   70.03    7.53
 -14   4   3   13.13    2.94
  13  -4  -3   17.61    7.00
 -13   4   3   20.75    3.55
  12  -4  -3    3.34    5.55
 -12   4   3    5.94    1.97
 -11   4   3    4.87    1.85
  11  -4  -3   12.66    6.20
  10  -4  -3   42.90    8.16
 -10   4   3   35.66    3.88
 -10   4   3   33.28    3.24
  -9   4   3  312.86   15.84
   9  -4  -3  316.44   23.86
  -8   4   3   65.83    4.74
   8  -4  -3   92.44   10.10
   7  -4  -3  158.02   13.64
  -7   4   3  147.14    7.98
  -6   4   3  685.41   29.91
   6  -4  -3  636.76   42.67
  -5   4   3  186.51    8.79
   5  -4  -3  197.21   15.02
   5  -4  -3  169.79   11.32
   4  -4  -3    0.36    2.98
   4  -4  -3   -1.58    1.25
  -4   4   3   -0.87    0.43
   3  -4  -3  460.79   33.29
   3  -4  -3  570.12   28.08
   2  -4  -3   -1.18    2.78
   2  -4  -3    1.59    1.58
   1  -4  -3   34.97    2.18
   1  -4  -3   37.18    3.82
   0  -4  -3    8.59    2.10
   0   4   3    4.69    1.42
   0   4   3    2.90    0.97
   0  -4  -3    7.24    1.04
   1   4   3   78.25    5.73
  -1  -4  -3   67.02    4.18
  -1  -4  -3   71.66    5.79
  -2  -4  -3  246.28   15.65
  -2  -4  -3  266.74   13.13
   2   4   3  288.14   17.13
   3   4   3  317.90   20.26
  -3  -4  -3  331.12   15.81
  -3  -4  -3  313.88   18.56
  -4  -4  -3  147.73   10.20
   4   4   3  146.27   10.80
  -4  -4  -3  165.49    8.90
  -5  -4  -3    4.98    1.87
  -5  -4  -3    3.18    1.49
  -6  -4  -3    5.33    1.94
  -6  -4  -3    5.50    2.37
  -7  -4  -3   55.29    5.53
  -7  -4  -3   56.36    5.99
  -8  -4  -3  160.57   11.62
  -8  -4  -3  165.15   10.83
  -9  -4  -3  134.76    9.80
 -10  -4  -3   49.15    6.43
 -11  -4  -3    0.31    1.95
 -12  -4  -3   -2.20    2.09
 -13  -4  -3    0.11    3.13
 -18   5   3    5.37    2.76
 -17   5   3   -2.14    1.80
 -16   5   3    7.09    2.49
 -15   5   3   12.32    2.98
  14  -5  -3    0.99    5.67
 -14   5   3    0.05    1.58
 -13   5   3   29.02    4.06
  13  -5  -3   21.87    8.09
  12  -5  -3    2.85    6.24
 -12   5   3    4.74    1.76
  11  -5  -3    3.57    5.67
 -11   5   3   12.19    2.67
  10  -5  -3    1.16    4.76
 -10   5   3    6.64    1.80
  -9   5   3    1.10    1.04
   9  -5  -3   -1.89    3.54
  -8   5   3   36.29    3.11
   8  -5  -3   40.46    7.29
   7  -5  -3    5.85    4.13
  -7   5   3    9.96    1.59
   6  -5  -3  460.05   33.00
  -6   5   3  514.73   22.40
  -5   5   3  464.01   20.38
   5  -5  -3  484.53   31.19
   5  -5  -3  422.35   25.00
   4  -5  -3   33.24    3.78
   4  -5  -3   30.76    5.91
   3  -5  -3  608.28   31.11
   3  -5  -3  529.17   36.90
   2  -5  -3  217.92   13.29
   1  -5  -3   84.23    6.34
   1  -5  -3   73.39    4.01
   0  -5  -3   18.15    1.77
   0   5   3   22.86    2.32
   0  -5  -3   21.07    3.18
   0   5   3   17.18    2.55
   1   5   3   97.06    7.39
  -1  -5  -3  105.33    7.66
  -2  -5  -3    2.97    1.72
  -2  -5  -3    2.59    1.04
   2   5   3    1.80    1.15
  -3  -5  -3    3.09    1.73
   3   5   3    0.38    1.31
  -3  -5  -3    0.94    1.04
  -4  -5  -3   17.83    2.69
   4   5   3   12.94    2.82
  -4  -5  -3   10.27    2.65
  -5  -5  -3   -0.26    1.17
  -5  -5  -3    1.31    1.78
  -6  -5  -3   24.10    3.69
  -6  -5  -3   21.46    3.93
  -7  -5  -3   14.84    3.58
  -7  -5  -3   19.73    3.56
  -8  -5  -3   30.65    4.72
  -8  -5  -3   27.41    4.80
  -9  -5  -3   -1.45    1.71
 -10  -5  -3   13.02    3.11
 -11  -5  -3    0.73    2.40
 -12  -5  -3   -0.73    2.43
 -18   6   3    9.38    2.78
 -17   6   3    6.82    3.13
 -16   6   3    1.87    1.95
 -15   6   3   42.45    5.58
  15  -6  -3   67.04   12.61
 -14   6   3   51.06    5.65
  14  -6  -3   36.06    9.94
 -13   6   3    2.64    1.54
  13  -6  -3    4.96    6.09
  12  -6  -3    4.60    5.97
 -12   6   3    1.86    1.40
  11  -6  -3  146.22   15.72
 -11   6   3  145.63    8.91
  10  -6  -3  104.14   13.05
 -10   6   3  115.33    7.08
   9  -6  -3   51.37    8.81
  -9   6   3   49.40    3.89
  -8   6   3    0.88    0.82
   8  -6  -3   -0.10    3.61
   7  -6  -3   -2.54    3.22
   7  -6  -3    1.52    1.12
  -7   6   3   -0.83    0.55
   6  -6  -3    0.58    1.49
   6  -6  -3   -0.05    3.64
  -6   6   3    2.55    0.79
   5  -6  -3   19.50    5.49
   5  -6  -3   10.71    2.67
  -5   6   3   17.32    1.39
   4  -6  -3  126.29   12.71
   4  -6  -3  149.36    9.69
   3  -6  -3    0.54    3.19
   3  -6  -3    3.24    1.67
   2  -6  -3   16.89    4.39
   2  -6  -3   14.25    2.80
   1  -6  -3 1308.94   77.29
   1  -6  -3 1250.48   66.84
   0  -6  -3   31.02    2.42
   0   6   3   26.81    3.31
   0  -6  -3   30.47    4.10
   0   6   3   30.05    2.72
  -1  -6  -3    0.97    1.64
  -1  -6  -3    0.32    0.39
   1   6   3    0.65    1.26
  -2  -6  -3   -0.35    0.70
  -2  -6  -3   -0.57    1.33
   2   6   3    1.77    1.36
  -3  -6  -3  338.50   16.51
   3   6   3  325.68   20.70
  -3  -6  -3  319.12   19.73
  -4  -6  -3   29.35    3.64
  -4  -6  -3   37.89    5.00
  -5  -6  -3  155.25   11.26
  -5  -6  -3  147.69    9.34
  -6  -6  -3    0.98    1.92
  -6  -6  -3   -0.61    1.14
  -7  -6  -3    6.05    2.71
  -7  -6  -3    6.76    2.29
  -8  -6  -3   12.38    3.38
  -8  -6  -3   12.00    2.93
  -9  -6  -3    3.45    2.40
 -10  -6  -3   52.27    6.94
 -11  -6  -3    1.86    2.85
 -12  -6  -3   -1.08    3.21
 -18   7   3    2.39    2.66
 -17   7   3    4.89    2.40
 -16   7   3    2.53    1.85
  16  -7  -3   -2.99    6.18
 -15   7   3   -1.02    1.72
  15  -7  -3    1.42    6.54
 -14   7   3   47.96    5.32
  14  -7  -3   47.82   11.04
 -13   7   3    2.06    1.50
  13  -7  -3    0.12    5.87
  12  -7  -3   27.08    8.99
 -12   7   3   27.57    3.54
  11  -7  -3   94.71   13.27
 -11   7   3  111.71    7.05
  10  -7  -3  258.27   22.77
 -10   7   3  273.53   13.85
   9  -7  -3  188.21   17.72
  -9   7   3  188.46   10.01
   8  -7  -3    1.53    2.07
   8  -7  -3    0.99    4.35
  -8   7   3    0.05    0.64
   7  -7  -3   27.57    6.61
  -7   7   3   27.68    2.23
   6  -7  -3   98.49   11.29
  -6   7   3   99.30    5.05
   6  -7  -3   89.96    7.53
   5  -7  -3  200.91   13.58
   5  -7  -3  252.22   18.83
   4  -7  -3  728.55   41.69
   4  -7  -3  830.81   50.28
   3  -7  -3  869.64   47.85
   3  -7  -3  625.63   39.38
   2  -7  -3  193.29   12.62
   1  -7  -3   57.15    6.95
   1  -7  -3   58.08    5.76
   0  -7  -3    1.18    0.73
   0   7   3   -0.89    0.91
   0   7   3    0.30    1.21
   0  -7  -3    0.65    1.66
   1   7   3    6.84    1.96
  -1  -7  -3   10.04    3.02
   2   7   3   47.12    4.60
  -2  -7  -3   46.68    3.82
  -2  -7  -3   50.49    5.76
  -3  -7  -3    0.89    1.22
  -3  -7  -3    3.79    2.39
  -4  -7  -3   22.89    4.27
  -4  -7  -3   27.63    3.53
  -5  -7  -3    0.25    1.29
  -5  -7  -3    0.76    1.90
  -6  -7  -3    0.71    2.02
  -6  -7  -3    1.90    1.68
  -7  -7  -3    7.21    2.61
  -7  -7  -3    6.26    2.84
  -8  -7  -3   39.64    5.67
  -8  -7  -3   40.45    6.13
  -9  -7  -3   31.88    5.09
 -10  -7  -3    2.54    2.43
 -11  -7  -3   30.19    5.96
  16  -8  -3   -2.38    6.02
 -16   8   3    9.40    2.59
 -15   8   3   53.79    5.88
  15  -8  -3   59.98   13.25
  14  -8  -3  284.95   26.86
 -14   8   3  301.87   16.54
 -13   8   3   57.74    5.52
  13  -8  -3   52.84   11.58
 -12   8   3   -0.56    1.22
  12  -8  -3    5.93    5.87
  11  -8  -3   31.97    9.13
 -11   8   3   47.76    3.98
 -10   8   3   81.90    5.50
  10  -8  -3   82.31   12.26
  -9   8   3    3.59    1.19
   9  -8  -3   10.00    6.11
  -8   8   3    2.34    0.80
   8  -8  -3    0.52    1.09
   8  -8  -3    0.93    4.36
  -7   8   3    7.57    1.18
   7  -8  -3    3.09    4.61
   7  -8  -3    9.86    2.84
   6  -8  -3    0.39    1.54
   6  -8  -3    2.14    4.73
   5  -8  -3   61.70    9.17
   5  -8  -3   59.41    5.93
   4  -8  -3  772.76   42.17
   3  -8  -3   45.21    5.41
   3  -8  -3   66.25    8.61
   2  -8  -3  108.51   11.23
   1  -8  -3   34.17    6.18
   1  -8  -3   43.18    5.27
   0  -8  -3   20.51    4.19
   0   8   3   26.37    3.45
   0   8   3   24.22    2.76
  -1  -8  -3   31.39    3.15
  -1  -8  -3   43.31    5.54
   1   8   3   36.55    4.08
  -2  -8  -3   25.04    2.98
  -2  -8  -3   23.59    4.48
  -3  -8  -3    2.29    1.34
  -3  -8  -3    0.47    2.00
  -4  -8  -3    4.18    1.74
  -4  -8  -3    5.57    2.69
  -5  -8  -3   10.17    3.17
  -5  -8  -3   12.57    2.88
  -6  -8  -3    6.38    3.00
  -6  -8  -3    7.49    2.05
  -7  -8  -3   11.91    3.84
  -7  -8  -3    8.72    2.75
  -8  -8  -3   45.51    6.77
  -8  -8  -3   49.80    6.30
  -9  -8  -3    5.97    2.80
 -10  -8  -3   -3.04    2.34
 -11  -8  -3   23.95    5.82
  17  -9  -3    7.14    6.96
  16  -9  -3   60.28   13.55
  15  -9  -3  199.16   22.17
  14  -9  -3  286.72   26.88
  13  -9  -3   27.53    9.58
  12  -9  -3   -1.60    5.14
  11  -9  -3   16.62    7.74
  10  -9  -3   -0.62    5.28
   9  -9  -3   16.09    7.30
   9  -9  -3   18.68    4.20
   8  -9  -3  105.15   12.84
   8  -9  -3   71.74    7.07
   7  -9  -3  852.96   47.89
   7  -9  -3  937.91   59.12
   6  -9  -3   18.65    6.85
   6  -9  -3   18.84    3.69
   5  -9  -3  210.59   14.85
   5  -9  -3  256.27   20.20
   4  -9  -3  299.35   18.77
   3  -9  -3   69.22    6.99
   3  -9  -3  111.34   11.40
   2  -9  -3   16.78    5.52
   2  -9  -3   20.42    4.10
   1  -9  -3   -0.24    1.55
   1  -9  -3    4.25    3.82
   0   9   3   -0.44    1.28
   0   9   3    0.07    0.98
   0  -9  -3   -0.27    1.60
   0  -9  -3   -1.39    0.66
  -1  -9  -3   -0.31    1.89
  -1  -9  -3    1.19    0.96
  -2  -9  -3   65.53    7.34
  -2  -9  -3   58.19    4.62
  -3  -9  -3  138.47   11.43
  -3  -9  -3  150.39    9.07
  -4  -9  -3   23.64    3.62
  -4  -9  -3   16.60    4.29
  -5  -9  -3   92.23    6.91
  -5  -9  -3   69.68    8.45
  -6  -9  -3    1.27    1.82
  -6  -9  -3    2.27    2.83
  -7  -9  -3  135.52   10.11
  -7  -9  -3  153.71   12.49
  -8  -9  -3   15.56    3.51
  -8  -9  -3   12.05    4.18
  -9  -9  -3    1.12    2.33
 -10  -9  -3   16.95    5.14
  18 -10  -3   30.15   12.31
  17 -10  -3   -0.15    7.43
  16 -10  -3   64.20   14.43
  15 -10  -3  105.46   16.66
  14 -10  -3   20.56    9.68
  13 -10  -3    9.37    7.08
  12 -10  -3   27.51    8.98
  11 -10  -3   -4.51    5.62
  10 -10  -3   51.85   10.86
  10 -10  -3   38.28    5.95
   9 -10  -3   71.99   11.85
   8 -10  -3   14.86    7.22
   8 -10  -3   22.20    4.12
   7 -10  -3  186.30   18.16
   7 -10  -3  166.04   12.23
   6 -10  -3   75.04    7.68
   6 -10  -3   98.79   12.84
   5 -10  -3    4.56    2.55
   5 -10  -3   -3.12    4.63
   4 -10  -3  306.27   19.59
   3 -10  -3   14.94    3.73
   3 -10  -3   27.40    6.92
   2 -10  -3   18.89    5.79
   2 -10  -3   29.44    5.11
   1 -10  -3    1.84    4.01
   1 -10  -3    1.74    2.41
   0 -10  -3   12.80    2.11
   0 -10  -3    4.77    3.18
  -1 -10  -3    2.01    1.21
  -1 -10  -3    1.46    2.28
  -3 -10  -3   36.30    6.23
  -3 -10  -3   49.48    4.86
  -4 -10  -3   10.50    2.72
  -4 -10  -3   15.38    4.07
  -5 -10  -3    4.39    2.65
  -5 -10  -3    4.32    2.14
  -6 -10  -3  102.27    7.86
  -6 -10  -3   77.14    9.43
  -7 -10  -3   79.34    9.84
  -7 -10  -3  107.04    8.26
  -8 -10  -3   -3.95    2.00
  -8 -10  -3    1.92    2.47
  -9 -10  -3   22.06    4.70
  19 -11  -3   19.85   12.60
  18 -11  -3    4.05    9.10
  17 -11  -3   12.92   10.07
  16 -11  -3   27.20   11.22
  15 -11  -3   16.98    9.71
  14 -11  -3   -1.18    6.41
  13 -11  -3   59.18   12.86
  12 -11  -3  425.46   34.98
  11 -11  -3    6.63    7.51
  10 -11  -3   96.15    9.12
  10 -11  -3  103.93   14.58
   9 -11  -3   48.02    6.30
   9 -11  -3   50.94   10.72
   8 -11  -3   43.83    5.74
   8 -11  -3   47.62   10.35
   7 -11  -3  218.18   20.27
   7 -11  -3  186.27   13.83
   6 -11  -3    8.75    3.30
   6 -11  -3   -0.59    5.65
   5 -11  -3    3.79    2.66
   5 -11  -3    8.44    6.45
   4 -11  -3   13.69    6.59
   4 -11  -3   10.09    3.36
   3 -11  -3   -0.81    1.86
   3 -11  -3   -5.35    4.00
   2 -11  -3  105.08    9.50
   2 -11  -3   85.39   10.63
   1 -11  -3  160.97   12.86
   0 -11  -3   57.81    7.57
  -1 -11  -3    0.86    2.48
  -2 -11  -3   24.74    5.20
  -3 -11  -3   15.17    4.32
  -4 -11  -3   17.70    4.61
  -5 -11  -3   66.53    8.79
  -6 -11  -3   98.11   10.82
  -7 -11  -3   30.47    6.33
  -8 -11  -3    2.74    2.55
  18 -12  -3   -1.99    9.77
  17 -12  -3   93.83   18.44
  16 -12  -3   39.60   12.34
  15 -12  -3   -0.21    7.72
  14 -12  -3   25.82   10.55
  13 -12  -3   91.67   15.73
  12 -12  -3   37.52   11.26
  11 -12  -3  152.27   18.67
  10 -12  -3   20.64    8.87
   9 -12  -3    1.33    2.32
   9 -12  -3   -0.54    5.20
   8 -12  -3  137.44   16.61
   8 -12  -3  118.23   10.34
   7 -12  -3  143.04   16.43
   7 -12  -3  114.61   10.45
   6 -12  -3   10.96    3.87
   6 -12  -3    3.96    6.62
   5 -12  -3   29.16    8.35
   4 -12  -3   46.29    9.18
   4 -12  -3   29.83    5.71
   3 -12  -3   58.71    9.77
   3 -12  -3   67.60    7.72
   2 -12  -3   14.87    4.32
   1 -12  -3   42.40    7.00
   0 -12  -3    8.99    3.44
  -1 -12  -3    2.75    2.62
  -2 -12  -3  251.29   18.32
  -3 -12  -3   17.78    5.10
  -4 -12  -3   22.87    5.66
  -5 -12  -3   56.52    8.50
  -6 -12  -3   33.40    6.63
  -7 -12  -3    0.07    3.06
  18 -13  -3   22.12   12.86
  17 -13  -3   22.95   10.44
  16 -13  -3   -5.20    6.73
  15 -13  -3    9.24    8.59
  14 -13  -3   77.02   15.39
  13 -13  -3   47.11   12.80
  12 -13  -3    6.15    6.62
  11 -13  -3    8.49    7.47
  10 -13  -3   29.53    9.72
  10 -13  -3   13.03    4.14
   9 -13  -3   28.35    9.70
   9 -13  -3   30.55    5.37
   8 -13  -3   83.97   13.73
   8 -13  -3   77.11    8.49
   7 -13  -3    5.24    6.57
   7 -13  -3    9.85    3.80
   6 -13  -3   69.90    8.70
   6 -13  -3  118.18   14.09
   5 -13  -3  108.48   12.96
   5 -13  -3   47.24    7.30
   4 -13  -3   -1.95    4.75
   4 -13  -3    0.15    2.40
   3 -13  -3   15.79    4.64
   2 -13  -3   16.05    4.79
   1 -13  -3    1.21    2.92
   0 -13  -3   33.64    6.61
  -1 -13  -3  133.03   12.26
  -2 -13  -3  125.58   11.81
  -3 -13  -3    0.07    2.54
  -4 -13  -3   17.22    5.00
  -5 -13  -3   34.42    6.92
  -6 -13  -3    0.05    2.71
  17 -14  -3   -0.76    6.60
  16 -14  -3    5.94    8.97
  15 -14  -3    5.45    8.23
  14 -14  -3   20.54   10.21
  13 -14  -3    2.37    6.46
  12 -14  -3    6.93    6.72
  11 -14  -3    4.73    6.47
  10 -14  -3   -4.24    5.36
  10 -14  -3    5.67    3.16
   9 -14  -3    9.41    7.27
   9 -14  -3   17.42    4.34
   8 -14  -3    1.54    2.46
   8 -14  -3   12.00    7.34
   7 -14  -3   -1.69    4.82
   7 -14  -3    3.10    2.46
   6 -14  -3   46.50   10.01
   6 -14  -3   32.61    6.35
   5 -14  -3    1.06    2.67
   5 -14  -3   -0.67    5.05
   4 -14  -3    3.90    3.16
   4 -14  -3   10.67    5.56
   3 -14  -3    5.73    3.37
   2 -14  -3    1.01    2.41
   1 -14  -3   -2.68    2.40
   0 -14  -3  135.17   12.52
  -1 -14  -3  277.80   20.58
  -2 -14  -3    0.69    2.28
  -3 -14  -3    4.00    3.03
  -4 -14  -3   54.43    8.98
  -5 -14  -3   10.65    4.57
  17 -15  -3    0.09    6.13
  16 -15  -3    2.81    6.34
  15 -15  -3   -3.02    7.65
  14 -15  -3   23.99    9.90
  13 -15  -3    2.69    6.54
  12 -15  -3   12.63    8.01
  11 -15  -3   10.71    6.93
  10 -15  -3   11.12    7.75
   9 -15  -3   61.53    8.02
   9 -15  -3   70.50   13.47
   8 -15  -3   13.88    7.26
   7 -15  -3    9.67    6.56
   7 -15  -3    4.15    3.46
   6 -15  -3    4.49    5.97
   6 -15  -3   -0.68    2.70
   5 -15  -3    8.11    3.86
   5 -15  -3   18.88    7.03
   4 -15  -3  156.16   13.97
   3 -15  -3    3.22    2.71
   2 -15  -3   19.27    5.48
   1 -15  -3   57.07    8.99
   0 -15  -3   31.83    6.96
  -1 -15  -3   13.43    4.59
  -2 -15  -3    5.34    3.88
  -3 -15  -3    5.46    3.78
  16 -16  -3   -3.27    6.08
  15 -16  -3    6.66    7.69
  14 -16  -3   17.40    8.48
  13 -16  -3   39.35   12.28
  12 -16  -3   -2.23    6.16
  11 -16  -3    1.22    5.81
  10 -16  -3    2.50    6.51
   9 -16  -3   -1.02    1.96
   9 -16  -3    2.87    5.75
   8 -16  -3   47.39   11.17
   8 -16  -3   22.82    5.76
   7 -16  -3   15.22    7.67
   7 -16  -3   14.59    4.73
   6 -16  -3   11.75    7.15
   6 -16  -3    8.14    3.93
   5 -16  -3   87.50   10.54
   4 -16  -3  140.99   13.57
   3 -16  -3   20.46    6.05
   2 -16  -3    7.08    4.26
   1 -16  -3   64.45    9.85
   0 -16  -3   28.46    6.76
  -1 -16  -3    5.95    3.94
  -2 -16  -3    1.74    3.14
  15 -17  -3    5.81    8.43
  14 -17  -3    9.88    7.75
  13 -17  -3   56.62   14.21
  12 -17  -3   27.23    9.91
  11 -17  -3    3.49    6.78
  10 -17  -3    7.23    6.40
   9 -17  -3   20.65    8.06
   9 -17  -3   21.81    5.64
   8 -17  -3   57.61   11.67
   8 -17  -3   49.07    8.16
   7 -17  -3    9.62    6.94
   7 -17  -3    0.50    2.84
   6 -17  -3  113.87   12.63
   5 -17  -3    7.76    3.99
   4 -17  -3    9.04    4.23
   3 -17  -3    5.73    3.97
   2 -17  -3    7.72    4.68
   1 -17  -3   -1.42    2.51
   0 -17  -3    2.55    3.26
  14 -18  -3   20.59    9.50
  13 -18  -3   33.63   11.50
  12 -18  -3   19.66    9.34
  11 -18  -3   16.09    8.76
  10 -18  -3    8.43    6.82
   9 -18  -3  142.17   18.30
   9 -18  -3  115.94   12.62
   8 -18  -3   10.39    6.61
   8 -18  -3    3.72    3.54
   7 -18  -3   81.09   10.88
   6 -18  -3    9.26    4.34
   5 -18  -3    0.92    3.58
   4 -18  -3    1.75    3.82
   3 -18  -3    0.39    2.81
   2 -18  -3   -2.28    3.01
  13 -19  -3    9.91    7.31
  12 -19  -3    4.32    6.60
  11 -19  -3   17.35    8.42
  10 -19  -3   -1.55    5.82
   9 -19  -3   22.02    9.09
   9 -19  -3   32.76    7.39
   8 -19  -3    1.66    3.75
   7 -19  -3   17.89    6.25
   6 -19  -3    0.01    3.52
   5 -19  -3   -1.20    3.53
   4 -19  -3   -1.50    3.40
  12 -20  -3   52.50   12.99
  11 -20  -3    7.48    6.00
   8 -20  -3    8.32    5.39
   7 -20  -3   -2.58    4.45
   6 -20  -3    2.34    4.99
   3 -20   4    4.66    5.55
   4 -20   4    3.02    4.51
   5 -20   4   27.49    6.79
   6 -20   4   15.79    5.49
  10 -20   4   56.82   12.55
  11 -20   4   13.38    6.97
   2 -19   4    5.08    4.49
   3 -19   4    0.67    3.68
   4 -19   4    3.29    3.13
   5 -19   4    7.39    4.05
   6 -19   4   37.09    7.10
   8 -19   4   41.42   10.75
   9 -19   4   60.77   12.83
  10 -19   4   12.37    7.04
  11 -19   4    7.24    6.76
  12 -19   4   17.14    8.81
   0 -18   4   -1.42    2.97
   1 -18   4   -2.30    2.48
   2 -18   4   -3.74    2.74
   3 -18   4    1.35    2.83
   4 -18   4    9.52    4.15
   5 -18   4   41.25    7.31
   6 -18   4   25.88    5.80
   7 -18   4    9.87    7.53
   8 -18   4   82.07   14.08
   9 -18   4   71.23   13.32
  10 -18   4    8.84    6.21
  11 -18   4    9.97    7.08
  12 -18   4   72.58   15.27
  13 -18   4   22.89    9.82
  -2 -17   4   -0.88    3.05
  -1 -17   4   -1.91    2.42
   0 -17   4    8.17    4.03
   1 -17   4   44.99    8.10
   2 -17   4   -4.16    2.09
   3 -17   4   19.65    5.20
   4 -17   4  151.11   13.33
   5 -17   4  106.55   11.04
   6 -17   4    1.54    6.35
   6 -17   4    2.77    3.05
   7 -17   4   57.19   11.93
   8 -17   4  105.14   15.76
   9 -17   4   16.97    8.15
  10 -17   4   29.08    9.38
  11 -17   4   11.27    7.37
  12 -17   4   -3.11    5.79
  13 -17   4    2.34    7.53
  14 -17   4   17.09    9.74
  -4 -16   4    7.95    3.80
  -3 -16   4    6.61    3.63
  -2 -16   4    0.24    3.39
  -1 -16   4   34.83    7.24
   0 -16   4  150.71   13.36
   1 -16   4   16.68    5.06
   2 -16   4    2.71    2.66
   3 -16   4  114.41   10.81
   4 -16   4  174.84   14.12
   5 -16   4   27.80    9.29
   5 -16   4   12.54    4.20
   6 -16   4   56.37    7.48
   6 -16   4   63.75   12.22
   7 -16   4   87.59   14.12
   8 -16   4   74.42   13.40
   9 -16   4   13.47    7.98
  10 -16   4   73.97   13.77
  11 -16   4    1.87    5.96
  12 -16   4   17.35    8.51
  13 -16   4   15.38    7.86
  14 -16   4   -0.58    7.35
  15 -16   4    4.72    7.38
  -5 -15   4    5.74    2.90
  -4 -15   4    4.43    3.08
  -3 -15   4    3.91    2.91
  -2 -15   4   14.55    4.85
  -1 -15   4   52.08    7.88
   0 -15   4   66.29    8.57
   1 -15   4    0.22    1.98
   2 -15   4   55.01    7.65
   3 -15   4  102.34    9.79
   4 -15   4   38.97    6.21
   4 -15   4   31.64    9.37
   5 -15   4   -0.67    1.96
   5 -15   4   -4.29    5.92
   6 -15   4   12.32    7.80
   6 -15   4   12.79    4.00
   7 -15   4   -6.16    4.72
   7 -15   4    1.09    2.04
   8 -15   4   -1.91    4.53
   9 -15   4  145.91   18.28
  10 -15   4   -4.88    4.86
  11 -15   4   22.53    9.94
  12 -15   4    1.69    6.36
  13 -15   4   -0.98    7.16
  14 -15   4   -0.11    9.10
  15 -15   4   -1.67    6.24
  16 -15   4    3.74    8.41
  -6 -14   4   22.04    5.81
  -5 -14   4   29.05    6.21
  -4 -14   4   27.69    5.75
  -3 -14   4   -1.27    1.84
  -2 -14   4   61.48    8.31
  -1 -14   4  120.19   10.99
   0 -14   4    6.74    3.62
   1 -14   4    1.28    2.42
   2 -14   4   19.97    4.68
   3 -14   4   -0.06    1.95
   4 -14   4   73.96   11.40
   4 -14   4   47.51    6.50
   5 -14   4    7.99    3.04
   5 -14   4   15.52    7.46
   6 -14   4    9.99    3.25
   6 -14   4   12.54    7.10
   7 -14   4    1.38    1.62
   7 -14   4   -0.39    5.62
   8 -14   4   16.16    7.64
   9 -14   4   22.66    8.92
  10 -14   4   -5.53    5.43
  11 -14   4   -4.00    6.11
  12 -14   4   29.83   10.42
  13 -14   4   17.10    9.95
  14 -14   4    1.52    8.79
  15 -14   4   -6.30    6.61
  16 -14   4   -0.59    6.28
  -8 -13   4    2.42    2.54
  -8 -13   4    4.77    2.74
  -7 -13   4    5.13    3.37
  -6 -13   4    7.26    3.25
  -5 -13   4   22.28    5.41
  -4 -13   4    5.07    3.02
  -3 -13   4   55.21    7.67
  -2 -13   4  353.66   23.05
  -1 -13   4  144.12   11.91
   0 -13   4   19.48    4.67
   1 -13   4    1.74    2.16
   2 -13   4    6.62    2.90
   3 -13   4   70.08    7.44
   4 -13   4   44.68    5.86
   5 -13   4   20.93    8.01
   5 -13   4   18.48    3.87
   6 -13   4   11.33    6.97
   6 -13   4    7.79    2.73
   7 -13   4   32.19    9.36
   8 -13   4  112.28   15.51
   9 -13   4   10.42    7.40
  10 -13   4    0.14    5.06
  11 -13   4    2.30    6.28
  12 -13   4   52.48   13.34
  13 -13   4   30.49   11.51
  14 -13   4    2.59    7.72
  15 -13   4    6.67    9.78
  16 -13   4    0.58    6.42
  17 -13   4   18.92   13.14
  -9 -12   4   11.15    4.03
  -9 -12   4   10.67    4.00
  -8 -12   4    1.32    2.11
  -7 -12   4    5.06    3.08
  -6 -12   4   18.44    4.88
  -5 -12   4    8.79    3.35
  -4 -12   4    2.63    2.71
  -3 -12   4    4.51    2.35
  -2 -12   4  108.77    9.89
  -1 -12   4   -1.38    2.03
   0 -12   4   99.48    8.91
   1 -12   4    0.93    1.85
   2 -12   4    5.51    5.67
   2 -12   4    0.38    1.87
   3 -12   4  204.87   14.04
   4 -12   4   19.43    7.29
   4 -12   4   12.75    3.18
   5 -12   4    6.64    2.43
   5 -12   4   10.12    6.43
   6 -12   4    5.49    5.98
   6 -12   4    1.30    1.25
   7 -12   4  154.03   10.71
   7 -12   4  160.63   17.16
   8 -12   4  290.64   25.53
   9 -12   4    5.28    6.59
  10 -12   4   54.50   11.64
  11 -12   4   23.31    9.47
  12 -12   4  144.06   19.50
  13 -12   4    7.70    8.25
  14 -12   4    3.33    7.82
  15 -12   4   52.58   14.41
  16 -12   4   16.57   10.79
  17 -12   4    5.49   11.54
 -10 -11   4   32.33    6.07
 -10 -11   4   33.85    5.70
  -9 -11   4    2.47    2.66
  -9 -11   4   -0.63    2.10
  -8 -11   4   10.13    3.44
  -7 -11   4   26.40    5.48
  -6 -11   4   49.27    7.26
  -5 -11   4   19.38    4.73
  -4 -11   4   14.60    3.65
  -3 -11   4   12.51    3.61
  -2 -11   4   -0.98    1.86
  -1 -11   4   79.59    7.67
   0 -11   4   -0.22    1.64
   1 -11   4   25.98    6.75
   1 -11   4   18.38    3.93
   2 -11   4    7.37    4.92
   3 -11   4    0.28    1.44
   3 -11   4    1.67    4.52
   4 -11   4   17.96    6.94
   4 -11   4   20.96    3.50
   5 -11   4   39.07    4.58
   5 -11   4   40.76    9.11
   6 -11   4   93.06   12.41
   6 -11   4   80.00    6.59
   7 -11   4  220.88   13.64
   7 -11   4  209.79   20.11
   8 -11   4   88.06   12.75
   9 -11   4   -5.95    4.75
  10 -11   4   38.65   10.64
 -10  11  -4   27.39    4.05
 -11  11  -4   80.92    7.26
  11 -11   4   85.80   14.32
 -12  11  -4  131.00    9.44
  12 -11   4  139.41   18.62
  13 -11   4   -2.30    6.83
 -13  11  -4    3.17    2.09
 -14  11  -4   40.94    5.78
  14 -11   4   28.23   11.38
  15 -11   4   15.60   10.32
  16 -11   4   -2.29    8.26
  17 -11   4   -1.35    8.34
 -11 -10   4   65.10    8.48
 -11 -10   4   70.41    8.72
 -10 -10   4    1.03    2.46
 -10 -10   4    0.26    2.07
  -9 -10   4    0.07    2.19
  -8 -10   4    6.02    3.00
  -7 -10   4   47.19    6.92
  -6 -10   4   18.16    4.09
  -5 -10   4    2.59    2.16
  -4 -10   4    8.22    3.05
  -3 -10   4    0.45    1.66
  -2 -10   4    9.91    3.05
  -1 -10   4   11.19    3.14
   0 -10   4   38.18    4.90
   0 -10   4   32.19    6.32
   1 -10   4    5.92    4.67
   1 -10   4    9.68    2.72
   2 -10   4  300.07   18.26
   3 -10   4   43.51    4.80
   4 -10   4    0.30    1.00
   4 -10   4   -1.71    3.88
   5 -10   4    2.00    4.13
   5 -10   4    0.09    0.48
   6 -10   4  324.00   25.87
   6 -10   4  325.84   18.74
   7 -10   4  702.94   48.57
   7 -10   4  711.14   37.93
   8 -10   4  145.80   16.35
   9 -10   4    9.13    6.90
  -9  10  -4    6.64    2.36
  10 -10   4  447.59   35.45
 -10  10  -4  448.71   22.96
  11 -10   4   15.34    8.76
 -11  10  -4   26.35    4.11
  12 -10   4    9.22    8.48
 -12  10  -4   16.59    3.49
 -13  10  -4   59.76    6.60
  13 -10   4   57.86   13.42
 -14  10  -4   17.61    3.59
  14 -10   4    3.87    8.44
  15 -10   4   20.70   10.08
 -15  10  -4   15.76    3.85
  16 -10   4    8.21   10.25
 -16  10  -4    8.43    3.27
 -17  10  -4    2.21    2.69
  17 -10   4    4.94    9.74
 -11  -9   4   13.43    3.94
 -11  -9   4    3.28    3.04
 -10  -9   4    0.74    2.41
 -10  -9   4    0.62    2.45
  -9  -9   4   22.51    4.95
  -8  -9   4   19.18    4.41
  -7  -9   4   23.94    4.86
  -6  -9   4   48.17    6.44
  -5  -9   4   16.75    3.94
  -4  -9   4   13.65    3.51
  -3  -9   4   -0.75    1.48
  -2  -9   4  123.97    9.47
  -1  -9   4   21.77    4.58
  -1  -9   4   18.55    3.54
   0  -9   4   77.83    8.73
   0  -9   4   71.60    6.39
   1  -9   4   34.37    6.43
   1  -9   4   45.95    4.80
   2  -9   4  163.59   10.84
   3  -9   4   62.80    5.41
   4  -9   4    1.27    1.02
   4  -9   4    3.62    4.18
   5  -9   4   84.79    6.32
   5  -9   4   90.80   10.86
   6  -9   4   51.10    4.35
   6  -9   4   53.23    8.77
   7  -9   4  316.29   16.77
  -7   9  -4  277.32   15.30
   7  -9   4  264.51   23.28
  -8   9  -4   16.59    3.07
   8  -9   4   15.91    7.07
  -9   9  -4  169.28   10.09
   9  -9   4  145.02   17.10
  10  -9   4   26.46    9.55
 -10   9  -4   44.55    4.98
 -11   9  -4   16.70    3.21
  11  -9   4    4.21    7.04
  12  -9   4   83.05   14.59
 -12   9  -4   82.42    6.97
  13  -9   4   95.18   15.58
 -13   9  -4   93.89    7.82
  14  -9   4   19.15    9.36
 -14   9  -4   24.54    4.54
  15  -9   4   -5.10    6.89
 -15   9  -4    8.39    2.93
  16  -9   4    3.57    8.92
 -16   9  -4   16.17    4.16
 -17   9  -4    6.19    3.09
 -12  -8   4    1.24    3.09
 -11  -8   4   -1.99    2.00
 -11  -8   4    3.50    2.71
 -10  -8   4   24.12    4.49
 -10  -8   4   15.13    4.13
  -9  -8   4   11.22    3.55
  -8  -8   4   -0.08    1.74
  -7  -8   4   19.89    4.39
  -6  -8   4   42.25    5.76
  -5  -8   4   23.18    4.24
  -4  -8   4   47.29    5.58
  -3  -8   4   71.38    6.43
  -2  -8   4    0.04    1.29
  -1  -8   4   63.89    7.23
  -1  -8   4   67.47    5.86
   0  -8   4  114.63   10.54
   0  -8   4  121.78    8.61
   1  -8   4  500.82   31.25
   1  -8   4  447.01   26.03
   2  -8   4  569.41   30.86
   3  -8   4 1180.33   63.15
   3  -8   4  862.29   52.11
   4  -8   4   21.36    5.68
   5  -8   4  251.68   20.43
   5  -8   4  271.11   15.04
   6  -8   4  131.35    8.11
   6  -8   4  126.25   12.98
  -6   8  -4  131.85    8.12
   7  -8   4   33.54    7.48
  -7   8  -4   36.26    3.98
   7  -8   4   32.14    3.16
   8  -8   4  338.92   27.91
  -8   8  -4  383.93   18.82
   9  -8   4   28.34    8.53
  -9   8  -4   36.72    4.31
 -10   8  -4   41.56    4.89
  10  -8   4   48.49   10.54
  11  -8   4   30.16    9.43
 -11   8  -4   25.11    4.00
  12  -8   4   39.82   10.89
 -12   8  -4   52.11    5.78
  13  -8   4    2.64    6.51
 -13   8  -4   -1.33    1.86
 -14   8  -4   -3.07    1.60
  14  -8   4    6.54    7.69
  15  -8   4    2.61    8.03
 -15   8  -4   12.89    3.22
 -16   8  -4    8.17    3.28
 -17   8  -4    4.99    3.12
 -12  -7   4    1.14    2.80
 -11  -7   4    3.60    2.52
 -11  -7   4    5.25    2.85
 -10  -7   4    6.48    2.86
  -9  -7   4    1.17    1.91
  -8  -7   4    0.49    1.70
  -7  -7   4    8.67    2.78
  -6  -7   4   28.21    4.58
  -5  -7   4  210.17   14.05
  -4  -7   4    5.98    2.31
  -3  -7   4  332.67   19.75
  -2  -7   4  189.18   12.53
  -2  -7   4  159.80   11.36
  -1  -7   4    4.49    3.07
  -1  -7   4    7.11    2.10
   0  -7   4  203.24   14.84
   0  -7   4  207.15   12.70
   1  -7   4  615.26   32.95
   2  -7   4  460.78   25.05
   3  -7   4   75.33    5.37
   4  -7   4  153.40   13.71
   4  -7   4  163.44    9.57
  -5   7  -4   25.23    3.22
   5  -7   4   26.46    2.54
   5  -7   4   21.65    5.60
  -6   7  -4    4.31    1.56
   6  -7   4    1.06    0.88
   6  -7   4    3.39    3.72
   7  -7   4   68.20    9.57
  -7   7  -4   63.96    5.09
  -8   7  -4  164.52    9.37
   8  -7   4  130.78   14.66
  -9   7  -4   25.44    3.63
   9  -7   4   16.74    7.19
 -10   7  -4    3.58    1.81
  10  -7   4    0.01    6.28
  11  -7   4   16.39    8.19
 -11   7  -4   16.88    3.21
 -12   7  -4   13.64    3.24
  12  -7   4   18.95    8.36
  13  -7   4   -1.79    6.55
 -13   7  -4    0.27    1.91
  14  -7   4   -3.25    7.32
 -14   7  -4    6.03    2.60
  15  -7   4   47.09   12.12
 -15   7  -4   28.66    5.17
 -16   7  -4    0.32    2.68
 -17   7  -4    7.64    3.20
 -13  -6   4   -0.94    2.53
 -12  -6   4    4.29    2.78
 -11  -6   4    5.78    2.68
 -11  -6   4    4.90    2.52
 -10  -6   4    6.61    2.83
  -9  -6   4    4.26    2.25
  -8  -6   4    5.57    2.50
  -7  -6   4   15.62    3.52
  -6  -6   4  179.59   12.29
  -5  -6   4   13.39    3.19
  -4  -6   4    2.60    1.89
  -3  -6   4  176.84   11.43
  -2  -6   4  451.10   25.74
  -2  -6   4  478.46   28.70
  -1  -6   4   68.87    6.57
  -1  -6   4   69.34    5.55
   0  -6   4 1377.83   81.43
   0  -6   4 1350.01   70.32
   1  -6   4 1575.58   80.73
   2  -6   4    3.38    1.23
   2  -6   4    0.84    2.58
   3  -6   4    5.54    3.36
   3  -6   4    8.11    1.51
   4  -6   4   99.30    5.99
   4  -6   4   86.84    9.61
   5  -6   4   -1.86    2.69
  -5   6  -4    2.58    1.31
   5  -6   4    1.33    0.65
  -6   6  -4   66.86    5.05
   6  -6   4   73.54    9.31
  -7   6  -4  131.55    8.13
   7  -6   4  139.73   13.56
   8  -6   4   40.26    7.99
  -8   6  -4   40.71    4.26
   9  -6   4   29.68    7.74
  -9   6  -4   19.61    3.27
  10  -6   4   -1.74    5.63
 -10   6  -4   -0.78    1.37
  11  -6   4   11.01    8.10
 -11   6  -4   12.87    2.99
 -12   6  -4    3.42    2.29
  12  -6   4    7.32    7.15
  13  -6   4   -4.27    5.92
 -13   6  -4    1.89    1.95
  14  -6   4   56.64   12.78
 -14   6  -4   43.86    6.28
 -15   6  -4   32.09    5.42
 -16   6  -4    0.77    2.27
 -17   6  -4    0.34    2.23
 -14  -5   4    0.57    3.40
 -13  -5   4   -1.01    2.62
 -12  -5   4    3.18    2.66
 -11  -5   4   11.60    3.51
 -11  -5   4   11.16    3.55
 -10  -5   4   84.97    7.81
  -9  -5   4    2.80    1.91
  -8  -5   4   85.80    7.52
  -7  -5   4  330.80   19.88
  -6  -5   4   24.16    3.78
  -5  -5   4   37.49    4.45
  -4  -5   4   18.24    3.01
  -3  -5   4  734.51   39.15
  -2  -5   4   72.03    5.50
  -2  -5   4   70.55    5.84
  -1  -5   4  319.33   17.75
  -1  -5   4  314.54   20.22
   0  -5   4 1677.12   85.68
   1  -5   4  337.46   18.40
   3  -5   4    7.00    1.27
   3  -5   4    5.59    3.39
   4  -5   4    4.52    0.86
   4  -5   4    4.53    3.39
  -4   5  -4    4.19    1.41
  -5   5  -4    3.36    1.34
   5  -5   4    5.70    3.51
   6  -5   4  220.29   17.19
  -6   5  -4  195.05   10.97
  -7   5  -4    1.00    1.15
   7  -5   4    4.55    4.09
   8  -5   4   10.30    5.41
  -8   5  -4   11.05    2.44
   9  -5   4    6.46    5.55
  -9   5  -4    7.82    2.27
 -10   5  -4   86.04    6.61
  10  -5   4   69.40   11.42
  11  -5   4    7.03    6.75
 -11   5  -4    2.54    1.65
 -12   5  -4    9.29    2.69
  12  -5   4    7.09    7.41
  13  -5   4    9.26    7.57
 -13   5  -4    6.88    2.52
 -14   5  -4   44.48    6.05
 -15   5  -4   27.81    4.97
 -16   5  -4   -0.92    2.70
 -14  -4   4   -1.16    2.60
 -13  -4   4    2.56    2.58
 -12  -4   4    1.65    2.15
 -11  -4   4   65.71    7.37
 -11  -4   4   70.79    7.03
 -10  -4   4    9.11    2.88
  -9  -4   4  267.02   16.90
  -8  -4   4  503.82   28.63
  -7  -4   4   34.41    4.45
  -6  -4   4    1.72    1.36
  -5  -4   4  217.35   13.33
  -4  -4   4   19.93    2.87
  -3  -4   4    0.63    1.17
  -3  -4   4    0.52    0.93
  -2  -4   4   84.65    6.43
  -2  -4   4   89.19    6.19
  -1  -4   4  609.69   36.83
  -1  -4   4  805.72   42.68
   0  -4   4  396.18   21.28
   1  -4   4  940.58   58.20
   1  -4   4  990.08   49.56
   2  -4   4  459.98   29.64
   2  -4   4  463.69   24.04
   3  -4   4  360.75   17.79
   3  -4   4  309.68   22.84
  -3   4  -4  339.21   16.45
   4  -4   4  994.40   60.00
  -4   4  -4  953.19   43.73
  -5   4  -4    1.56    1.09
   5  -4   4    0.84    3.07
  -6   4  -4   21.87    2.96
   6  -4   4   23.38    5.41
   7  -4   4   60.27    8.56
  -7   4  -4   68.37    5.09
   8  -4   4   23.14    6.40
  -8   4  -4   26.59    3.57
   9  -4   4   35.58    7.81
  -9   4  -4   31.01    4.09
  10  -4   4   25.73    7.75
 -10   4  -4   31.46    4.28
 -11   4  -4   19.14    3.49
  11  -4   4   12.94    7.36
 -12   4  -4   30.05    4.73
  12  -4   4   34.88    9.50
 -13   4  -4   49.45    6.13
 -14   4  -4    5.95    2.61
 -15   4  -4    3.78    2.88
 -16   4  -4   47.69    6.98
 -15  -3   4   21.95    4.20
 -14  -3   4    1.86    2.19
 -13  -3   4   38.67    5.63
 -12  -3   4   94.79    8.74
 -11  -3   4   82.35    7.41
 -11  -3   4   77.78    7.79
 -10  -3   4    1.63    1.43
  -9  -3   4   43.40    5.15
  -8  -3   4  350.78   20.53
  -7  -3   4   63.44    5.54
  -6  -3   4  141.03    9.51
  -5  -3   4  240.77   14.38
  -4  -3   4   19.24    1.98
  -4  -3   4   18.66    2.67
  -3  -3   4 1298.48   76.36
  -3  -3   4 1312.45   67.10
  -2  -3   4    6.09    1.76
  -2  -3   4    6.66    1.50
  -1  -3   4   49.25    3.69
  -1  -3   4   48.12    5.03
   0  -3   4  109.33    6.16
   0  -3   4   87.84    8.04
  -2   3  -4  672.28   30.46
   2  -3   4  687.26   34.22
   2  -3   4  648.80   41.31
   3  -3   4   65.94    7.08
  -3   3  -4   65.68    4.34
  -4   3  -4  106.32    6.51
   4  -3   4  125.10   10.45
  -5   3  -4   93.55    6.00
   5  -3   4   94.53    9.36
  -6   3  -4   49.71    4.20
   6  -3   4   59.40    7.59
   7  -3   4   87.29    9.56
  -7   3  -4   74.63    5.58
   8  -3   4   31.11    6.83
  -8   3  -4   38.17    4.27
  -9   3  -4   79.02    6.46
   9  -3   4  110.00   11.93
 -10   3  -4  174.26   11.15
  10  -3   4  183.77   17.16
 -11   3  -4   -0.90    1.33
  11  -3   4   -3.51    4.86
 -12   3  -4   -1.72    1.57
 -13   3  -4   68.24    7.47
 -14   3  -4   19.61    4.06
 -15   3  -4    3.67    2.51
 -16   3  -4   -7.02    1.98
 -15  -2   4    2.43    2.48
 -14  -2   4   34.56    5.48
 -13  -2   4   87.88    8.52
 -12  -2   4   20.91    3.88
 -11  -2   4   25.27    4.07
 -11  -2   4   25.81    4.20
 -10  -2   4   12.76    2.89
  -9  -2   4   14.11    3.01
  -8  -2   4  134.08    9.35
   7   2  -4   40.45    4.54
  -7  -2   4   43.12    4.51
  -6  -2   4  274.28   15.99
   6   2  -4  276.72   17.66
  -5  -2   4    8.70    1.95
  -5  -2   4   10.10    1.28
  -5  -2   4    8.74    1.47
  -4  -2   4 1740.07   98.93
  -4  -2   4 1644.99   86.42
  -3  -2   4   26.14    2.57
  -3  -2   4   29.85    2.81
  -2  -2   4 1682.72   86.35
  -2  -2   4 1718.47   99.40
  -1  -2   4   46.26    4.25
  -1  -2   4   44.75    3.27
   0  -2   4  422.24   29.09
   0  -2   4  527.23   24.80
   1  -2   4  464.30   28.85
  -2   2  -4  365.55   17.60
   2  -2   4  390.73   24.47
   3  -2   4    6.23    2.92
  -3   2  -4    5.95    1.41
   4  -2   4    0.56    2.49
  -4   2  -4    2.04    1.10
   5  -2   4   85.93    8.87
  -5   2  -4   90.05    5.67
  -5   2  -4   85.94    5.11
  -6   2  -4 1175.78   57.81
  -6   2  -4 1167.12   51.59
   6  -2   4 1057.28   69.66
  -7   2  -4  223.65   12.38
  -7   2  -4  207.23   12.24
   7  -2   4  264.30   18.61
  -8   2  -4   32.48    4.00
   8  -2   4   30.44    6.67
   9  -2   4  295.09   22.87
  -9   2  -4  289.13   15.91
 -10   2  -4   76.89    6.44
  10  -2   4   79.92   10.24
 -11   2  -4    2.90    1.81
 -12   2  -4  111.06    8.81
 -13   2  -4  169.89   12.05
 -14   2  -4   21.83    4.51
 -15   2  -4   10.12    3.10
 -16  -1   4   16.59    3.84
 -15  -1   4    1.08    1.97
 -14  -1   4   21.80    4.34
 -13  -1   4   55.45    6.63
 -12  -1   4   34.05    4.90
 -11  -1   4   42.84    4.95
 -11  -1   4   44.19    5.51
 -10  -1   4   29.56    3.94
  -9  -1   4  395.43   22.65
  -8  -1   4    4.95    1.75
   8   1  -4    6.07    3.24
   7   1  -4  523.46   32.32
  -7  -1   4  493.28   27.57
   6   1  -4   40.72    4.72
  -6  -1   4   32.58    3.50
  -5  -1   4   63.79    4.85
   5   1  -4   66.44    5.95
  -4  -1   4   18.76    2.31
  -3  -1   4 1549.40   89.08
  -3  -1   4 1482.74   77.42
  -3  -1   4 1532.85   75.58
  -2  -1   4  150.28    9.74
  -1  -1   4   36.41    3.38
   0  -1   4 3566.58  207.60
  -1   1  -4  829.32   37.54
   1  -1   4  861.21   50.68
  -2   1  -4  634.98   32.86
   2  -1   4  656.31   39.20
  -2   1  -4  625.21   28.77
  -3   1  -4    8.68    1.64
  -3   1  -4    9.79    1.42
   3  -1   4    5.08    2.79
  -4   1  -4  115.58    6.59
   4  -1   4  103.36    9.38
  -4   1  -4  107.15    6.51
   5  -1   4  537.24   33.36
  -5   1  -4  505.32   26.77
  -5   1  -4  501.01   24.21
  -6   1  -4   22.14    3.08
   6  -1   4   23.42    5.05
  -6   1  -4   30.91    2.70
  -7   1  -4   -0.43    0.99
   7  -1   4    1.23    2.60
  -7   1  -4   -0.43    0.78
   9  -1   4   61.92    9.13
  -9   1  -4   80.39    6.18
 -10   1  -4    7.16    2.31
 -11   1  -4   -0.14    1.41
 -12   1  -4   67.04    7.31
 -13   1  -4   97.09    9.29
 -14   1  -4   -1.28    1.99
 -15   1  -4    8.39    3.18
 -16   0   4    3.47    2.44
 -15   0   4   14.90    3.53
 -14   0   4   48.75    6.31
 -13   0   4   62.80    7.03
 -12   0   4    6.79    2.29
 -11   0   4   15.97    3.16
 -11   0   4   18.46    3.18
 -10   0   4   85.39    6.76
 -10   0   4   96.84    7.17
   9   0  -4    8.78    4.21
  -9   0   4    8.62    2.12
   8   0  -4    0.19    3.05
  -8   0   4    0.00    0.80
   7   0  -4  198.35   14.83
  -7   0   4  201.75   11.99
   6   0  -4   43.47    5.38
  -6   0   4   36.19    3.50
   5   0  -4  334.74   21.17
  -5   0   4  303.42   17.39
   4   0  -4    0.15    0.61
   3   0  -4  247.60   16.21
  -2   0   4   20.01    2.29
  -2   0   4   17.20    1.88
  -1   0   4   31.15    3.02
   0   0  -4 2724.21  115.05
   0   0   4 2614.02  154.26
   0   0  -4 2597.19  133.63
  -1   0  -4   24.50    2.11
   1   0   4   25.63    3.32
  -1   0  -4   26.62    2.58
  -2   0  -4  593.07   30.74
  -2   0  -4  570.24   26.76
   2   0   4  611.20   36.38
   3   0   4  109.83    9.00
  -3   0  -4  115.65    6.96
  -3   0  -4  115.54    6.51
  -4   0  -4  121.69    6.52
   4   0   4   79.09    8.23
  -4   0  -4  113.78    6.67
  -5   0  -4  146.80    8.70
  -5   0  -4  138.07    8.27
   6   0   4   -0.46    1.91
  -6   0  -4    0.42    1.11
  -6   0  -4   -0.17    0.91
  -7   0  -4   59.20    4.66
   7   0   4   50.49    7.13
  -7   0  -4   53.93    5.11
   8   0   4   90.27    9.91
  -8   0  -4   79.29    6.35
  -9   0  -4    0.22    1.46
 -10   0  -4    5.23    2.34
 -11   0  -4   60.84    6.83
 -12   0  -4   24.84    4.43
 -13   0  -4   -0.70    2.12
 -14   0  -4    7.47    2.85
 -17   1   4    1.83    2.36
 -16   1   4    8.09    2.88
 -15   1   4   76.10    8.23
 -14   1   4   96.28    8.16
 -13   1   4    3.11    1.76
 -12   1   4   32.58    4.59
 -11   1   4    7.81    2.19
 -11   1   4   15.32    2.87
 -10   1   4    0.29    1.10
  10  -1  -4    0.98    4.17
 -10   1   4    0.85    1.31
   9  -1  -4   47.87    7.07
  -9   1   4   43.45    4.03
  -8   1   4   55.78    4.41
   8  -1  -4   44.81    6.75
   6  -1  -4    6.67    2.65
   5  -1  -4    8.35    3.07
   4  -1  -4   17.91    4.04
   3  -1  -4 1710.84  101.15
  -2   1   4  242.90   15.47
  -2   1   4  248.40   13.12
  -1   1   4 4407.58  259.38
   1  -1  -4 4522.69  225.06
   0  -1  -4 3407.73  170.59
   0   1   4 3408.38  196.86
   0  -1  -4 3328.35  146.56
  -1  -1  -4  146.72    8.70
  -1  -1  -4  146.46    7.25
   1   1   4  133.10    9.92
  -2  -1  -4    7.91    1.69
  -2  -1  -4    5.48    1.27
  -3  -1  -4  658.45   30.50
  -3  -1  -4  678.19   35.07
  -4  -1  -4  361.59   19.57
  -4  -1  -4  361.63   17.37
   4   1   4  343.31   23.15
  -5  -1  -4   64.96    4.86
   5   1   4   59.43    6.74
  -5  -1  -4   66.33    5.05
  -6  -1  -4    8.50    1.90
   6   1   4    5.64    3.20
  -6  -1  -4    5.17    1.79
   7   1   4   55.26    7.07
  -7  -1  -4   51.44    4.72
  -7  -1  -4   45.06    4.85
  -8  -1  -4   72.94    6.06
  -9  -1  -4    3.32    1.91
 -10  -1  -4   33.84    4.93
 -11  -1  -4   13.56    3.43
 -12  -1  -4    9.81    3.18
 -13  -1  -4    0.13    2.52
 -14  -1  -4   -0.96    2.52
 -17   2   4    1.68    2.22
 -16   2   4   27.71    4.83
 -15   2   4   54.04    6.79
 -14   2   4   22.16    4.01
 -13   2   4   24.29    3.98
 -12   2   4   15.00    2.96
  11  -2  -4   57.51    9.21
 -11   2   4   91.30    6.43
 -11   2   4   85.51    6.45
 -10   2   4   26.53    3.28
 -10   2   4   22.89    3.39
   9  -2  -4   50.51    7.74
  -9   2   4   63.20    4.84
  -9   2   4   58.54    4.75
   8  -2  -4   26.84    5.63
   7  -2  -4  147.23   12.76
   6  -2  -4  318.10   22.18
   5  -2  -4   -1.69    2.72
   4  -2  -4  412.39   27.15
   3  -2  -4 1780.30  105.60
   2  -2  -4  782.05   40.65
   2  -2  -4  768.92   47.14
   1  -2  -4   60.30    4.82
  -1   2   4   53.92    4.88
   1  -2  -4   61.89    3.30
  -1   2   4   63.74    4.27
   0   2   4   15.80    2.46
   0  -2  -4   18.68    2.61
  -1  -2  -4   72.18    4.25
  -1  -2  -4   70.52    5.42
   2   2   4  124.17    9.54
  -2  -2  -4  134.64    7.26
  -2  -2  -4  148.72    8.74
  -3  -2  -4  153.83    8.53
   3   2   4  151.82   11.27
  -3  -2  -4  171.34   10.03
  -4  -2  -4   47.26    3.84
   4   2   4   42.34    5.01
  -4  -2  -4   50.75    4.38
   5   2   4   82.20    7.76
  -5  -2  -4   84.76    5.77
  -5  -2  -4   77.92    6.17
   6   2   4   70.76    7.59
  -6  -2  -4   61.98    5.58
  -6  -2  -4   66.70    5.29
  -7  -2  -4  297.17   16.18
  -7  -2  -4  305.43   17.95
  -8  -2  -4   16.39    3.32
  -8  -2  -4   22.39    3.65
  -9  -2  -4   10.22    2.72
 -10  -2  -4  126.21    9.52
 -11  -2  -4    6.67    2.73
 -12  -2  -4   15.40    4.14
 -13  -2  -4    4.71    3.08
 -14  -2  -4    2.32    3.50
 -17   3   4    3.52    2.55
 -16   3   4    6.24    2.65
 -15   3   4   30.87    4.94
 -14   3   4    0.17    1.68
 -13   3   4    5.41    1.91
  12  -3  -4   -2.12    4.64
 -12   3   4    1.07    1.36
 -11   3   4   43.29    4.68
  11  -3  -4   42.50    8.41
 -11   3   4   50.56    4.30
 -10   3   4   79.44    5.83
  10  -3  -4   85.79   10.48
 -10   3   4   75.93    5.73
   9  -3  -4    9.08    4.93
  -9   3   4    2.63    1.31
   8  -3  -4  116.77   11.66
  -8   3   4  113.58    6.84
   7  -3  -4    9.88    4.25
   6  -3  -4  358.29   24.95
   5  -3  -4  149.98   12.81
   4  -3  -4   20.49    3.18
   4  -3  -4   24.72    4.86
   3  -3  -4 1892.66  112.64
   2  -3  -4  836.77   51.38
   2  -3  -4  842.15   43.92
  -1   3   4  327.52   18.57
   1  -3  -4  344.42   19.67
  -1   3   4  417.78   22.26
   1  -3  -4  333.69   15.85
   0  -3  -4    2.65    0.82
   0  -3  -4    3.81    1.77
   0   3   4    3.75    1.47
  -1  -3  -4   11.99    2.34
   1   3   4   10.43    2.00
  -1  -3  -4   12.90    1.60
  -2  -3  -4  626.12   32.82
   2   3   4  587.86   37.01
  -2  -3  -4  618.09   27.88
  -3  -3  -4   91.67    7.00
  -3  -3  -4  101.35    6.05
   3   3   4   98.29    7.76
  -4  -3  -4   68.73    4.74
   4   3   4   58.54    5.92
  -4  -3  -4   52.75    5.11
  -5  -3  -4  118.83    7.35
   5   3   4  107.52    9.32
  -5  -3  -4  110.57    8.18
  -6  -3  -4  227.18   12.68
  -6  -3  -4  224.81   14.24
  -7  -3  -4  107.50    8.14
  -7  -3  -4   89.01    7.06
  -8  -3  -4   38.37    4.97
  -8  -3  -4   38.63    5.03
  -9  -3  -4   92.39    7.68
 -10  -3  -4    4.23    2.39
 -11  -3  -4   -0.94    1.90
 -12  -3  -4    4.92    2.74
 -13  -3  -4   -0.46    2.71
 -18   4   4   -0.27    2.04
 -17   4   4   -2.13    2.04
 -16   4   4   15.07    3.45
 -15   4   4    2.75    1.87
 -14   4   4   -0.03    1.51
  13  -4  -4   -3.42    4.53
 -13   4   4    0.08    1.24
 -12   4   4   19.97    3.32
  12  -4  -4   19.60    7.64
  11  -4  -4   78.76   11.02
 -11   4   4   81.03    6.07
  10  -4  -4  154.84   15.16
 -10   4   4  157.29    9.18
   9  -4  -4   23.64    6.35
  -9   4   4   25.76    3.01
  -8   4   4   73.39    4.80
   8  -4  -4   65.37    9.16
   7  -4  -4  240.32   18.88
  -7   4   4  240.03   11.80
   6  -4  -4  507.12   33.98
  -6   4   4  503.21   22.89
   5  -4  -4  615.59   32.09
  -5   4   4  549.10   25.94
   5  -4  -4  606.54   38.37
   4  -4  -4  163.35   14.67
   4  -4  -4  211.72   12.09
   3  -4  -4    7.94    2.16
   3  -4  -4    3.04    3.55
   2  -4  -4    8.31    2.33
   2  -4  -4    8.82    3.36
   1  -4  -4   78.21    6.22
   1  -4  -4   77.94    4.07
   1   4   4  392.81   20.97
  -1  -4  -4  273.83   15.35
  -1  -4  -4  326.42   18.95
   2   4   4  263.65   17.49
  -2  -4  -4  274.80   16.22
  -2  -4  -4  276.64   13.41
  -3  -4  -4    0.69    0.84
  -3  -4  -4    0.99    1.39
   3   4   4    2.28    1.84
  -4  -4  -4    1.39    1.56
   4   4   4    1.09    1.98
  -4  -4  -4    0.18    0.95
  -5  -4  -4   17.49    3.00
  -5  -4  -4   19.23    3.48
  -6  -4  -4   78.70    7.21
  -6  -4  -4   92.75    6.68
  -7  -4  -4   78.30    6.30
  -7  -4  -4   72.62    6.98
  -8  -4  -4  279.34   15.98
  -8  -4  -4  272.37   17.64
  -9  -4  -4   28.56    4.79
 -10  -4  -4   -3.34    1.49
 -11  -4  -4   -1.59    1.92
 -12  -4  -4   -2.94    2.74
 -13  -4  -4    1.90    3.33
 -18   5   4    3.60    2.36
 -17   5   4    9.76    3.28
 -16   5   4   14.09    3.37
 -15   5   4    7.21    2.22
 -14   5   4    8.77    2.38
  14  -5  -4   13.23    7.17
  13  -5  -4   -0.27    5.20
 -13   5   4    0.35    1.30
  12  -5  -4    8.77    6.26
 -12   5   4    7.65    2.13
  11  -5  -4  450.41   34.21
 -11   5   4  471.84   22.90
  10  -5  -4  151.45   15.89
 -10   5   4  178.20    9.67
  -9   5   4    0.26    0.85
   9  -5  -4   -0.14    3.91
   8  -5  -4   13.62    5.61
  -8   5   4   27.95    2.63
  -7   5   4  152.79    7.91
   7  -5  -4  156.46   14.26
   6  -5  -4   74.52    6.57
  -6   5   4   73.22    4.10
   6  -5  -4   72.49    9.25
   5  -5  -4  237.02   18.54
   5  -5  -4  235.00   14.49
   4  -5  -4   48.94    4.75
   4  -5  -4   42.31    6.66
   3  -5  -4 1473.44   99.33
   3  -5  -4 1829.60   85.61
   2  -5  -4  467.20   20.70
   2  -5  -4  472.63   26.17
   1  -5  -4    0.37    1.43
   1  -5  -4    1.37    2.49
   1  -5  -4    0.37    0.47
   0   5   4  197.52   11.22
   0  -5  -4  201.29    9.70
   0  -5  -4  220.09   12.86
   0   5   4  181.94   13.11
  -1  -5  -4  197.08   13.42
   1   5   4  231.32   14.46
   2   5   4  507.22   31.35
  -2  -5  -4  505.90   23.84
  -2  -5  -4  515.82   28.61
  -3  -5  -4    7.77    2.49
  -3  -5  -4    7.03    1.79
   3   5   4    6.95    2.22
  -4  -5  -4    3.57    1.44
  -4  -5  -4    3.69    2.04
  -5  -5  -4    1.27    1.85
  -5  -5  -4   -0.57    1.17
  -6  -5  -4  116.20    8.05
  -6  -5  -4  115.30    9.33
  -7  -5  -4   41.08    5.68
  -7  -5  -4   47.57    5.39
  -8  -5  -4   21.01    3.94
  -8  -5  -4   11.41    3.24
  -9  -5  -4   54.11    6.51
 -10  -5  -4    6.84    2.71
 -11  -5  -4    1.51    2.31
 -12  -5  -4    2.71    3.02
 -19   6   4    4.60    2.04
 -18   6   4   -2.25    2.06
 -17   6   4    4.32    2.10
 -16   6   4   17.44    3.54
  15  -6  -4   33.61   10.31
 -15   6   4   38.90    5.11
  14  -6  -4   -2.02    4.37
 -14   6   4    5.98    2.02
 -13   6   4    4.14    1.65
  13  -6  -4    5.96    6.03
  12  -6  -4    4.00    6.34
 -12   6   4    4.92    1.61
 -11   6   4  404.08   19.37
  11  -6  -4  353.54   29.60
 -10   6   4  193.50   10.55
  10  -6  -4  195.70   18.29
  -9   6   4    4.55    1.40
   9  -6  -4    8.06    5.23
   8  -6  -4  468.81   33.26
  -8   6   4  460.80   21.52
   7  -6  -4  902.00   58.10
  -7   6   4  918.86   40.16
   7  -6  -4  884.43   48.55
   6  -6  -4   26.05    3.90
   6  -6  -4   19.55    5.91
  -6   6   4   21.44    1.69
   5  -6  -4  278.91   20.77
   5  -6  -4  253.25   15.89
   4  -6  -4   10.66    2.55
   4  -6  -4   10.31    4.51
   3  -6  -4  156.32   10.12
   3  -6  -4  120.46   12.27
   2  -6  -4   47.90    6.12
   2  -6  -4   32.36    4.33
   2  -6  -4   35.22    2.14
   1  -6  -4    3.22    2.92
   1  -6  -4    1.72    1.68
   1  -6  -4    1.58    0.67
   0   6   4  143.25   10.11
   0   6   4  131.79    8.45
   0  -6  -4  141.09    7.32
   0  -6  -4  147.91   10.20
  -1  -6  -4   39.28    5.02
   1   6   4   44.86    4.48
   2   6   4   38.14    4.18
  -2  -6  -4   39.77    3.41
  -2  -6  -4   40.64    5.13
  -3  -6  -4  156.19   11.05
  -3  -6  -4  158.16    8.87
   3   6   4  141.98   10.73
  -4  -6  -4    0.76    1.32
  -4  -6  -4    4.55    2.31
  -5  -6  -4   -1.39    0.97
  -5  -6  -4    2.79    2.17
  -6  -6  -4   50.80    5.44
  -6  -6  -4   54.96    6.48
  -7  -6  -4    2.85    2.05
  -7  -6  -4   10.55    3.02
  -8  -6  -4    4.14    2.32
  -8  -6  -4    8.20    3.06
  -9  -6  -4    6.47    2.68
 -10  -6  -4    0.03    2.11
 -11  -6  -4   -1.67    2.54
 -12  -6  -4   -1.80    3.95
 -18   7   4    8.14    2.80
 -17   7   4   -3.98    1.93
 -16   7   4   92.20    7.57
  16  -7  -4   92.30   15.35
 -15   7   4   78.93    6.57
  15  -7  -4   62.53   13.01
  14  -7  -4   -0.94    5.23
 -14   7   4    0.03    1.27
 -13   7   4    0.49    1.34
  13  -7  -4   -1.78    5.38
  12  -7  -4   -1.63    5.26
 -12   7   4    2.08    1.44
 -11   7   4  138.73    8.32
  11  -7  -4  140.81   16.09
  10  -7  -4   67.27   11.10
 -10   7   4   68.03    4.77
   9  -7  -4   84.46   11.62
  -9   7   4   74.98    4.89
  -8   7   4  212.50   10.62
   8  -7  -4  218.56   19.19
  -7   7   4  156.29    7.85
   7  -7  -4  159.53   11.32
   7  -7  -4  165.65   15.66
   6  -7  -4    1.01    1.71
  -6   7   4    1.07    0.47
   6  -7  -4    1.37    3.96
   5  -7  -4   17.74    3.43
   5  -7  -4   23.13    6.30
   4  -7  -4   46.85    8.11
   4  -7  -4   72.56    6.29
   3  -7  -4    1.44    1.67
   3  -7  -4    1.09    3.72
   2  -7  -4    0.58    0.44
   2  -7  -4    0.32    1.58
   2  -7  -4    5.28    3.62
   1  -7  -4  227.17   14.90
   1  -7  -4  235.25   11.13
   0   7   4  205.27   12.49
   0  -7  -4  239.75   11.05
   0   7   4  212.01   14.78
   0  -7  -4  225.84   14.62
   1   7   4  217.32   14.87
  -1  -7  -4  226.52   14.79
   2   7   4    2.08    1.63
  -2  -7  -4   -0.12    0.83
  -2  -7  -4    0.64    2.02
  -3  -7  -4   80.25    5.64
  -3  -7  -4   72.94    7.25
  -4  -7  -4   11.00    3.31
  -4  -7  -4    9.55    2.31
  -5  -7  -4    1.19    1.27
  -5  -7  -4    4.78    2.39
  -6  -7  -4    4.26    2.22
  -6  -7  -4    4.25    1.78
  -7  -7  -4    8.98    3.12
  -7  -7  -4    2.35    1.95
  -8  -7  -4    3.01    2.43
  -8  -7  -4   -0.21    1.85
  -9  -7  -4   31.29    5.21
 -10  -7  -4   31.66    5.68
 -11  -7  -4   10.44    4.17
  16  -8  -4  142.30   19.12
  15  -8  -4   22.76    9.58
  14  -8  -4   26.59    9.55
 -14   8   4   21.09    3.57
  13  -8  -4   33.42    9.80
 -13   8   4   19.84    3.13
  12  -8  -4   18.23    8.42
 -12   8   4   18.32    2.94
  11  -8  -4   48.29   10.53
 -11   8   4   45.83    3.94
  10  -8  -4   40.19    9.55
 -10   8   4   46.81    3.64
   9  -8  -4  210.67   20.70
  -9   8   4  239.55   11.64
   8  -8  -4  304.92   24.39
   8  -8  -4  280.84   18.37
  -8   8   4  295.61   13.88
   7  -8  -4   35.25    4.99
  -7   8   4   40.97    2.54
   7  -8  -4   38.58    8.23
   6  -8  -4   52.00    5.81
   6  -8  -4   67.87    9.71
   5  -8  -4  297.38   24.16
   5  -8  -4  329.08   19.31
   4  -8  -4   23.77    6.18
   4  -8  -4   21.54    4.00
   3  -8  -4  144.68   10.80
   2  -8  -4  292.58   17.26
   2  -8  -4  253.69   12.33
   1  -8  -4    5.70    1.19
   1  -8  -4    8.42    4.00
   1  -8  -4    4.59    2.47
   0   8   4   50.75    4.24
   0  -8  -4   57.08    3.76
   0   8   4   45.55    5.02
   0  -8  -4   51.71    6.35
  -1  -8  -4   47.90    6.22
  -1  -8  -4   47.92    3.71
   1   8   4   43.33    4.74
  -2  -8  -4   25.81    3.14
  -2  -8  -4   26.02    4.84
  -3  -8  -4  150.39    9.03
  -3  -8  -4  144.48   11.54
  -4  -8  -4    1.56    2.17
  -4  -8  -4   -0.24    1.07
  -5  -8  -4   20.98    3.63
  -5  -8  -4   15.08    4.08
  -6  -8  -4    3.68    2.70
  -6  -8  -4    1.61    1.57
  -7  -8  -4   57.55    6.58
  -7  -8  -4   62.67    7.97
  -8  -8  -4   39.39    6.62
  -8  -8  -4   49.05    6.26
  -9  -8  -4   18.44    4.07
 -10  -8  -4   29.06    5.76
  17  -9  -4   72.62   15.03
  16  -9  -4   89.64   15.98
  15  -9  -4  -11.41    5.01
  14  -9  -4   39.19   10.91
  13  -9  -4   62.96   12.55
  12  -9  -4   47.82   10.95
  11  -9  -4   72.65   12.65
  10  -9  -4   63.62   11.58
   9  -9  -4    9.60    6.58
   8  -9  -4   15.47    3.80
   8  -9  -4    8.80    6.30
   7  -9  -4    3.29    2.24
   7  -9  -4   -2.48    4.95
   6  -9  -4    3.97    2.40
   6  -9  -4    8.13    5.39
   5  -9  -4    6.01    2.66
   5  -9  -4    0.28    4.28
   4  -9  -4   13.47    3.63
   4  -9  -4   24.83    6.56
   3  -9  -4    6.94    4.69
   3  -9  -4    4.83    2.55
   2  -9  -4  165.82   12.46
   2  -9  -4  216.11   15.70
   2  -9  -4  162.05    8.46
   1  -9  -4  151.92    7.92
   1  -9  -4  149.88   11.68
   0  -9  -4   58.39    6.99
   0  -9  -4   62.59    4.18
   0   9   4   54.11    5.56
   0   9   4   52.85    4.57
  -1  -9  -4   52.20    6.81
  -1  -9  -4   57.57    4.34
  -3  -9  -4   16.65    3.00
  -3  -9  -4   17.94    4.47
  -4  -9  -4    5.43    1.97
  -4  -9  -4    2.58    2.76
  -5  -9  -4   99.94    9.68
  -5  -9  -4  105.39    7.86
  -6  -9  -4   81.31    9.35
  -6  -9  -4   86.04    7.26
  -7  -9  -4    2.17    2.60
  -7  -9  -4    4.67    2.29
  -8  -9  -4    7.68    3.01
  -8  -9  -4   14.98    4.30
  -9  -9  -4   21.36    4.71
 -10  -9  -4   15.24    4.98
  18 -10  -4   -0.56    8.05
  17 -10  -4   91.17   16.60
  16 -10  -4   65.58   14.54
  15 -10  -4    9.38    7.73
  14 -10  -4   -6.15    5.57
  13 -10  -4   11.64    7.83
  12 -10  -4    4.10    6.18
  11 -10  -4  121.50   16.28
  10 -10  -4   77.87    7.64
   9 -10  -4   44.98    9.98
   9 -10  -4   38.34    5.88
   8 -10  -4    2.01    5.75
   8 -10  -4   -0.96    1.69
   7 -10  -4   75.00   11.66
   7 -10  -4   63.56    6.96
   6 -10  -4   44.11    5.71
   6 -10  -4   44.21    9.48
   5 -10  -4  285.57   23.53
   4 -10  -4   11.56    5.76
   4 -10  -4    4.09    2.45
   3 -10  -4   39.84    5.91
   3 -10  -4   51.07    8.29
   2 -10  -4  319.35   24.03
   2 -10  -4  336.15   21.09
   1 -10  -4    9.88    3.53
   0 -10  -4   14.73    4.32
  -1 -10  -4  115.49   10.70
  -1 -10  -4  137.92    7.93
  -3 -10  -4   41.33    4.67
  -3 -10  -4   50.33    7.15
  -4 -10  -4   44.21    5.08
  -4 -10  -4   39.61    6.67
  -5 -10  -4   88.09   10.22
  -5 -10  -4  116.93    8.25
  -6 -10  -4   56.72    6.29
  -6 -10  -4   44.76    7.32
  -7 -10  -4    9.27    2.81
  -7 -10  -4    8.02    3.65
  -8 -10  -4   18.31    4.15
  -8 -10  -4   18.38    4.90
  -9 -10  -4   10.00    3.68
  19 -11  -4    2.05    9.94
  18 -11  -4   14.11    9.90
  17 -11  -4   40.26   12.73
  16 -11  -4    2.20    7.85
  15 -11  -4   29.94   10.74
  14 -11  -4   23.47    9.85
  13 -11  -4   34.62   10.87
  12 -11  -4    2.78    6.71
  11 -11  -4   80.37   13.85
  10 -11  -4   -1.37    1.41
  10 -11  -4    5.26    6.30
   9 -11  -4    1.58    2.57
   9 -11  -4    4.96    6.40
   8 -11  -4    4.06    2.87
   8 -11  -4   -1.18    5.27
   7 -11  -4   11.32    3.64
   7 -11  -4    6.94    6.56
   6 -11  -4   99.63    9.35
   6 -11  -4  108.93   13.88
   5 -11  -4   30.72    5.69
   5 -11  -4   67.34   10.61
   4 -11  -4    1.57    5.49
   4 -11  -4    2.41    2.60
   3 -11  -4   72.76    9.96
   3 -11  -4   63.04    7.77
   2 -11  -4  106.85    9.89
   2 -11  -4  104.58   11.68
   1 -11  -4   46.96    6.99
   0 -11  -4  101.58    9.86
  -1 -11  -4  207.57   15.70
  -2 -11  -4   23.63    5.45
  -3 -11  -4   56.90    8.07
  -4 -11  -4   35.04    6.43
  -5 -11  -4   51.51    7.83
  -6 -11  -4   -2.28    1.94
  -7 -11  -4   18.99    5.33
  -8 -11  -4    7.62    3.93
  19 -12  -4  -10.03   10.29
  18 -12  -4    0.36    8.67
  17 -12  -4    1.26    7.90
  16 -12  -4   -4.59    6.88
  15 -12  -4    3.33    7.85
  14 -12  -4   15.58    9.49
  13 -12  -4   47.59   12.36
  12 -12  -4    8.61    7.79
  11 -12  -4   23.60    8.81
  10 -12  -4   17.30    8.44
  10 -12  -4   11.14    4.22
   9 -12  -4   11.97    4.08
   9 -12  -4    2.47    5.96
   8 -12  -4   63.32   12.39
   8 -12  -4   55.61    7.00
   7 -12  -4   45.36   10.82
   7 -12  -4   50.27    6.69
   6 -12  -4   25.45    5.29
   6 -12  -4   54.81   10.20
   5 -12  -4   31.68    8.37
   5 -12  -4   11.34    3.92
   4 -12  -4   11.74    4.44
   4 -12  -4    9.94    6.44
   3 -12  -4  161.16   15.60
   3 -12  -4  148.72   12.70
   2 -12  -4    2.96    2.88
   1 -12  -4   16.71    5.03
   0 -12  -4   28.56    6.04
  -1 -12  -4    4.16    3.01
  -2 -12  -4    7.51    3.66
  -3 -12  -4    0.87    2.38
  -4 -12  -4   10.20    3.95
  -5 -12  -4   59.43    8.70
  -6 -12  -4   -0.50    2.91
  -7 -12  -4   12.75    4.20
  18 -13  -4    6.53   10.73
  17 -13  -4    3.48    8.59
  16 -13  -4    9.34    8.66
  15 -13  -4   23.95   10.60
  14 -13  -4    5.69    7.56
  13 -13  -4   -5.59    6.46
  12 -13  -4   26.51    9.42
  11 -13  -4    4.27    6.91
  10 -13  -4   28.48    5.61
  10 -13  -4   15.92    8.11
   9 -13  -4  165.02   18.87
   9 -13  -4  164.47   13.14
   8 -13  -4  243.21   23.39
   8 -13  -4  241.80   17.19
   7 -13  -4   25.57    8.17
   7 -13  -4   11.36    3.75
   6 -13  -4   59.77   11.03
   6 -13  -4   30.12    6.02
   5 -13  -4  191.36   17.74
   5 -13  -4  139.37   12.88
   4 -13  -4  317.10   23.02
   4 -13  -4  383.11   27.51
   3 -13  -4   13.42    4.67
   2 -13  -4    4.33    3.00
   1 -13  -4    9.81    4.43
   0 -13  -4   57.47    8.35
  -1 -13  -4   52.84    8.21
  -2 -13  -4   -2.77    2.20
  -3 -13  -4   11.63    4.20
  -4 -13  -4   38.75    7.55
  -5 -13  -4    2.37    3.26
  -6 -13  -4   12.72    4.34
  17 -14  -4    6.25    6.13
  16 -14  -4    1.74    7.53
  15 -14  -4   -3.60    6.95
  14 -14  -4   -0.14    7.08
  13 -14  -4    0.98    6.56
  12 -14  -4    4.14    6.49
  11 -14  -4   10.75    7.42
  10 -14  -4   -1.17    2.27
  10 -14  -4    1.07    5.63
   9 -14  -4    6.67    7.23
   9 -14  -4    7.21    3.25
   8 -14  -4  146.94   12.32
   8 -14  -4  130.41   16.97
   7 -14  -4    7.03    5.90
   7 -14  -4    4.15    3.34
   6 -14  -4   61.62    8.59
   6 -14  -4   91.98   13.04
   5 -14  -4  556.20   34.50
   4 -14  -4   19.34    5.43
   3 -14  -4  119.26   11.73
   2 -14  -4    2.79    3.55
   1 -14  -4    0.21    3.21
   0 -14  -4   18.36    4.98
  -1 -14  -4    1.83    2.92
  -2 -14  -4   21.11    5.58
  -3 -14  -4    4.16    3.11
  -4 -14  -4    3.33    3.22
  17 -15  -4    1.70    7.26
  16 -15  -4    1.64    6.38
  15 -15  -4   13.36    9.87
  14 -15  -4   -1.57    6.58
  13 -15  -4   12.75    9.60
  12 -15  -4   -1.83    5.19
  11 -15  -4    5.40    7.08
  10 -15  -4    1.91    6.47
  10 -15  -4    8.37    3.78
   9 -15  -4   56.31    7.50
   9 -15  -4   21.29    9.05
   8 -15  -4  217.33   21.18
   8 -15  -4  171.40   14.78
   7 -15  -4   15.58    7.61
   7 -15  -4    9.62    4.09
   6 -15  -4  140.03   16.05
   6 -15  -4   97.00   11.49
   5 -15  -4  348.19   24.38
   4 -15  -4   56.58    8.68
   3 -15  -4   -1.04    3.04
   2 -15  -4   95.65   11.39
   1 -15  -4   27.23    6.63
   0 -15  -4    0.30    2.28
  -1 -15  -4    5.89    3.50
  -2 -15  -4   -3.45    2.18
  -3 -15  -4   10.74    4.38
  16 -16  -4    2.07    6.53
  15 -16  -4   12.93    9.89
  14 -16  -4   78.38   16.43
  13 -16  -4   54.12   14.20
  12 -16  -4   -1.01    6.16
  11 -16  -4   21.14    9.70
  10 -16  -4   33.10   10.99
  10 -16  -4   26.90    6.02
   9 -16  -4   23.32    9.08
   9 -16  -4   22.41    5.65
   8 -16  -4   -3.29    4.13
   8 -16  -4   -0.64    2.25
   7 -16  -4   42.89   10.21
   7 -16  -4   19.09    5.71
   6 -16  -4  125.69   14.95
   6 -16  -4   81.84   10.76
   5 -16  -4   57.31    8.96
   4 -16  -4   11.51    5.12
   3 -16  -4   21.79    6.29
   2 -16  -4   19.65    6.20
   1 -16  -4    0.87    3.96
   0 -16  -4   -1.99    2.44
  -1 -16  -4   11.58    4.47
  15 -17  -4   61.82   15.78
  14 -17  -4   17.82   10.56
  13 -17  -4   16.00    9.02
  12 -17  -4    2.41    6.31
  11 -17  -4   63.91   13.70
  10 -17  -4    0.97    5.25
  10 -17  -4   10.05    4.00
   9 -17  -4    0.99    2.98
   9 -17  -4    6.76    6.19
   8 -17  -4   20.69    5.58
   8 -17  -4   16.61    7.80
   7 -17  -4   10.64    4.40
   7 -17  -4   16.09    7.36
   6 -17  -4    2.91    3.45
   5 -17  -4   -0.49    3.23
   4 -17  -4    0.54    6.17
   3 -17  -4    8.90    4.67
   2 -17  -4   -0.22    2.91
   1 -17  -4    4.10    3.67
   0 -17  -4    2.33    2.61
  14 -18  -4   -1.10    5.65
  13 -18  -4    9.62    6.94
  12 -18  -4   21.93    9.42
  11 -18  -4   -5.17    5.06
  10 -18  -4    0.60    5.15
   9 -18  -4    6.37    3.56
   9 -18  -4    0.34    5.63
   8 -18  -4   22.79    6.07
   7 -18  -4   -4.45    2.44
   6 -18  -4    2.94    4.05
   5 -18  -4   12.36    5.65
   4 -18  -4    1.61    3.41
   3 -18  -4   -2.94    2.64
   2 -18  -4    0.21    4.01
  13 -19  -4    7.52    7.75
  12 -19  -4    8.81    7.86
  11 -19  -4   -4.61    4.81
  10 -19  -4    0.56    5.07
   9 -19  -4   -0.46    3.11
   8 -19  -4    1.64    3.52
   7 -19  -4    8.17    5.07
   6 -19  -4    6.00    5.15
   5 -19  -4    0.97    3.75
  11 -20  -4   -4.17    5.21
   9 -20  -4    5.51    5.08
   8 -20  -4   21.82    7.34
   7 -20  -4    0.48    4.96
   3 -20   5    3.69    4.89
   4 -20   5   35.19    8.16
   5 -20   5   43.02    8.34
   9 -20   5    4.71    7.52
  10 -20   5    6.84    7.31
  11 -20   5   35.53   10.23
   1 -19   5   -1.44    3.58
   2 -19   5   -0.61    4.32
   3 -19   5    5.07    4.25
   4 -19   5   42.85    7.92
   5 -19   5   37.18    7.51
   8 -19   5   21.46    8.74
   9 -19   5   -3.14    5.56
  10 -19   5   27.17    9.14
  11 -19   5   11.27    7.70
  12 -19   5   -6.33    5.34
   0 -18   5    0.87    3.37
   1 -18   5   -1.09    4.07
   2 -18   5    7.60    3.94
   3 -18   5    9.89    4.53
   4 -18   5    5.35    3.30
   5 -18   5   11.31    4.27
   6 -18   5   54.82    7.89
   7 -18   5    7.21    7.21
   8 -18   5   57.64   12.21
   9 -18   5    5.81    6.41
  10 -18   5    1.45    5.88
  11 -18   5    1.26    5.77
  12 -18   5   -2.76    6.06
  13 -18   5    9.53    8.53
  -2 -17   5   -3.46    2.70
  -1 -17   5   -0.33    2.83
   0 -17   5    4.60    4.12
   1 -17   5   28.08    6.69
   2 -17   5   31.76    6.37
   3 -17   5   82.05    9.82
   4 -17   5    6.12    3.28
   5 -17   5    9.36    3.71
   6 -17   5   43.97    6.93
   6 -17   5   58.88   11.97
   7 -17   5   10.97    7.42
   8 -17   5   18.08    8.51
   9 -17   5   19.58    8.23
  10 -17   5    6.74    7.67
  11 -17   5    1.72    4.87
  12 -17   5   10.10    6.98
  13 -17   5   -5.87    5.37
  14 -17   5    7.14    7.81
  -4 -16   5   29.29    6.23
  -3 -16   5   -2.51    2.59
  -2 -16   5    2.48    3.57
  -1 -16   5   69.59    9.29
   0 -16   5    1.81    3.26
   1 -16   5   95.07   10.39
   2 -16   5   42.40    6.96
   3 -16   5   95.93   10.17
   4 -16   5   22.17    5.16
   5 -16   5  170.53   17.11
   5 -16   5  113.39   11.02
   6 -16   5   17.99    4.58
   6 -16   5   14.47    7.55
   7 -16   5    2.51    6.29
   8 -16   5    9.02    6.93
   9 -16   5   13.13    7.82
  10 -16   5    1.25    6.06
  11 -16   5   -7.28    5.95
  12 -16   5   -0.12    6.70
  13 -16   5   -4.56    5.41
  14 -16   5   -7.49    6.46
  15 -16   5   -0.38    7.83
  -5 -15   5   20.61    5.40
  -4 -15   5    4.40    3.35
  -3 -15   5   17.46    5.31
  -2 -15   5   76.76    9.65
  -1 -15   5    2.89    2.75
   0 -15   5   33.35    6.40
   1 -15   5   11.34    3.89
   2 -15   5   20.27    4.99
   3 -15   5    2.55    2.56
   4 -15   5   67.12    7.82
   4 -15   5   80.69   12.29
   5 -15   5  118.35   10.89
   5 -15   5  181.23   17.26
   6 -15   5   41.49    5.97
   6 -15   5   40.80   10.32
   7 -15   5   25.29    8.71
   8 -15   5   -1.49    5.57
   9 -15   5   -6.58    4.66
  10 -15   5    1.74    5.37
  11 -15   5   -9.23    4.41
  12 -15   5    3.63    6.61
  13 -15   5   -0.62    6.46
  14 -15   5    3.88    8.78
  15 -15   5   -2.55    5.95
  -6 -14   5    7.44    3.84
  -5 -14   5    9.89    3.89
  -4 -14   5    3.53    2.94
  -3 -14   5   49.70    7.69
  -2 -14   5   81.09    9.35
  -1 -14   5   25.79    5.72
   0 -14   5   74.87    8.68
   1 -14   5   31.21    5.71
   2 -14   5   47.18    6.56
   3 -14   5   30.33    5.26
   3 -14   5   36.00    8.36
   4 -14   5   -0.30    5.18
   4 -14   5    1.00    2.08
   5 -14   5   18.63    7.81
   5 -14   5   17.01    4.00
   6 -14   5    6.71    5.95
   6 -14   5    9.93    3.19
   7 -14   5    8.77    6.62
   8 -14   5   18.74    8.16
   9 -14   5   41.23   10.97
  10 -14   5   -2.24    6.01
  11 -14   5  100.99   16.59
  12 -14   5   -1.51    5.93
  13 -14   5   -5.48    6.09
  14 -14   5   20.42   10.89
  15 -14   5   -2.37    5.84
  16 -14   5    4.83    7.83
  -8 -13   5   14.79    4.55
  -7 -13   5   38.73    7.12
  -6 -13   5    1.91    2.52
  -5 -13   5   10.04    3.90
  -4 -13   5   31.48    5.93
  -3 -13   5   42.92    6.94
  -2 -13   5    4.69    2.34
  -1 -13   5   42.40    6.57
   0 -13   5    4.50    2.75
   1 -13   5    2.53    2.30
   2 -13   5    3.77    2.31
   2 -13   5    8.19    6.37
   3 -13   5   14.07    6.46
   3 -13   5   16.29    3.89
   4 -13   5    0.34    5.26
   4 -13   5    2.09    1.94
   5 -13   5   45.32    5.55
   5 -13   5   51.11   10.24
   6 -13   5   55.72   10.91
   6 -13   5   54.65    5.89
   7 -13   5    4.51    6.15
   8 -13   5   48.83   11.02
   9 -13   5   44.00   10.68
  10 -13   5   -2.19    5.14
  11 -13   5    6.18    7.01
  12 -13   5    4.14    7.81
  13 -13   5   21.35   10.93
  14 -13   5   26.02   11.85
  15 -13   5   13.89   10.11
  16 -13   5    0.75    7.96
  -9 -12   5    9.93    3.62
  -8 -12   5   38.40    6.94
  -7 -12   5   -0.10    2.17
  -6 -12   5    4.54    2.81
  -5 -12   5   44.71    6.93
  -4 -12   5    4.39    2.54
  -3 -12   5   10.36    3.61
  -2 -12   5   20.42    4.74
  -1 -12   5   14.43    3.85
   0 -12   5  125.09   10.43
   1 -12   5    1.80    2.06
   2 -12   5    3.46    2.45
   2 -12   5    9.49    5.91
   3 -12   5    6.95    2.66
   3 -12   5   12.59    6.40
   4 -12   5   46.64    9.03
   4 -12   5   33.14    4.63
   5 -12   5    5.72    5.65
   5 -12   5    4.90    2.08
   6 -12   5   64.82   11.07
   7 -12   5   68.04   11.71
   8 -12   5    1.37    4.95
   9 -12   5   20.16    8.38
  10 -12   5    0.59    6.03
  11 -12   5   16.37    8.97
  12 -12   5    9.48    8.32
  13 -12   5    1.04    7.23
  14 -12   5   74.38   16.09
  15 -12   5   10.34   10.12
  16 -12   5    0.79    9.41
  17 -12   5   18.86   12.72
 -10 -11   5   -2.39    3.17
 -10 -11   5   -0.26    2.12
  -9 -11   5   25.51    5.50
  -8 -11   5   17.58    4.72
  -7 -11   5    1.56    2.12
  -6 -11   5   -2.29    1.55
  -5 -11   5   10.52    3.43
  -4 -11   5   98.08    8.89
  -3 -11   5    4.54    2.19
  -2 -11   5    3.10    1.95
  -1 -11   5    7.94    2.90
   0 -11   5   13.72    3.58
   1 -11   5  318.81   20.43
   1 -11   5  357.06   25.23
   2 -11   5  175.64   12.29
   3 -11   5  102.36    8.15
   4 -11   5   32.53    4.29
   4 -11   5   37.27    8.18
   5 -11   5   12.77    2.67
   5 -11   5   20.66    7.06
   6 -11   5   95.17   12.86
   6 -11   5   94.02    7.16
   7 -11   5   62.80   11.13
   8 -11   5   26.70    8.59
   9 -11   5    7.09    6.96
  10 -11   5    6.66    7.26
 -10  11  -5    7.53    2.65
 -11  11  -5   10.16    3.03
  11 -11   5    7.05    7.13
 -12  11  -5    2.07    2.00
  12 -11   5   -2.08    6.65
  13 -11   5    6.01    7.69
 -13  11  -5    6.46    2.55
  14 -11   5   10.30    9.03
 -14  11  -5    6.12    3.04
 -15  11  -5   -0.53    2.47
  15 -11   5    5.69    9.13
  16 -11   5   11.10   10.11
  17 -11   5    7.12   11.79
 -11 -10   5    2.16    2.41
 -11 -10   5    1.49    3.37
 -10 -10   5    8.67    3.59
 -10 -10   5   11.99    3.76
  -9 -10   5    4.32    2.94
  -8 -10   5   -0.93    2.10
  -7 -10   5   25.02    4.98
  -6 -10   5   -0.12    1.68
  -5 -10   5   13.29    3.56
  -4 -10   5    9.70    3.13
  -3 -10   5   -0.72    1.35
  -2 -10   5    6.25    2.56
  -1 -10   5   85.10    7.57
   0 -10   5   12.19    3.07
   0 -10   5   12.66    5.13
   1 -10   5  247.88   18.70
   1 -10   5  218.47   14.57
   2 -10   5   17.71    3.31
   2 -10   5   21.68    5.98
   3 -10   5   47.33    5.05
   4 -10   5  139.32   14.04
   4 -10   5  149.50    9.91
   5 -10   5  270.67   16.21
   5 -10   5  286.88   22.52
   6 -10   5  116.97    8.02
   6 -10   5  118.10   13.48
   7 -10   5    9.68    5.61
   8 -10   5   -1.77    5.08
  -9  10  -5  289.92   16.31
   9 -10   5  305.53   26.11
 -10  10  -5    7.57    2.34
  10 -10   5    1.98    7.11
 -11  10  -5   27.68    4.35
  11 -10   5   16.66    8.45
  12 -10   5   11.31    8.42
 -12  10  -5   12.17    3.13
 -13  10  -5   17.33    3.71
  13 -10   5    8.45    8.10
  14 -10   5   -0.60    6.64
 -14  10  -5    1.00    2.26
  15 -10   5   -6.75    7.13
 -15  10  -5   -4.65    1.77
 -16  10  -5    2.14    2.63
  16 -10   5   -2.76    8.27
 -17  10  -5    0.65    2.71
  17 -10   5   -2.60    8.81
 -11  -9   5    2.44    2.73
 -11  -9   5    9.92    3.74
 -10  -9   5   42.11    6.71
  -9  -9   5    4.77    2.56
  -8  -9   5   23.88    4.92
  -7  -9   5    9.65    3.30
  -6  -9   5   -1.65    1.40
  -5  -9   5  108.49    9.21
  -4  -9   5    0.50    1.59
  -3  -9   5   83.93    7.35
  -2  -9   5   74.42    6.76
  -1  -9   5   17.37    3.41
  -1  -9   5   22.19    4.81
   0  -9   5   -1.45    3.37
   0  -9   5    3.28    1.86
   1  -9   5   46.35    4.96
   1  -9   5   49.20    7.18
   2  -9   5   28.57    5.58
   2  -9   5   15.77    2.91
   3  -9   5    5.31    3.90
   3  -9   5    2.14    1.36
   4  -9   5  401.84   28.62
   5  -9   5   25.51    6.71
   5  -9   5   37.52    3.54
   6  -9   5   21.57    6.56
   6  -9   5   30.29    3.11
   7  -9   5   36.27    8.05
  -8   9  -5  304.65   16.20
   8  -9   5  284.57   24.57
   9  -9   5    9.27    6.71
  -9   9  -5    4.09    2.12
 -10   9  -5   91.53    7.18
  10  -9   5   90.55   13.99
 -11   9  -5   64.17    6.46
  11  -9   5   63.47   12.53
  12  -9   5   50.39   12.00
 -12   9  -5   51.37    5.96
 -13   9  -5    0.13    1.86
  13  -9   5    2.21    7.53
 -14   9  -5   11.88    3.25
  14  -9   5   16.63    9.30
 -15   9  -5   -0.36    2.02
  15  -9   5   -4.32    7.70
  16  -9   5   10.96    8.94
 -16   9  -5    0.94    2.42
 -17   9  -5    0.38    2.63
 -12  -8   5    2.95    2.91
 -11  -8   5    4.35    2.54
 -11  -8   5    5.31    2.71
 -10  -8   5    2.53    2.53
  -9  -8   5   -2.24    1.66
  -8  -8   5    2.45    2.20
  -7  -8   5   50.71    6.31
  -6  -8   5  254.53   16.77
  -5  -8   5   50.98    6.13
  -4  -8   5   90.02    7.80
  -3  -8   5  378.75   22.46
  -2  -8   5   43.02    5.24
  -2  -8   5   37.15    4.80
  -1  -8   5   67.22    7.37
  -1  -8   5   71.41    6.16
   0  -8   5  203.92   15.92
   0  -8   5  235.77   13.93
   1  -8   5  133.26    8.99
   2  -8   5   44.86    4.33
   3  -8   5  351.61   20.00
   3  -8   5  370.98   25.62
   4  -8   5  239.87   13.67
   4  -8   5  225.22   18.50
   5  -8   5   58.04    8.48
   5  -8   5   56.92    4.35
   6  -8   5   32.95    2.84
   6  -8   5   28.27    6.78
  -6   8  -5   22.90    3.48
   7  -8   5  142.07   14.71
  -7   8  -5  146.68    9.14
  -8   8  -5   66.59    5.58
   8  -8   5   69.13   10.77
  -9   8  -5    8.71    2.49
   9  -8   5   12.84    6.71
 -10   8  -5   15.21    3.26
  10  -8   5    9.44    7.75
 -11   8  -5    3.14    2.02
  11  -8   5   -1.57    6.18
 -12   8  -5    8.80    2.60
  12  -8   5    4.72    6.72
 -13   8  -5    9.76    3.18
  13  -8   5    9.21    7.97
  14  -8   5   39.11   11.48
 -14   8  -5   31.69    4.89
 -15   8  -5   14.37    3.69
  15  -8   5    9.90    8.46
 -16   8  -5   10.44    3.76
 -17   8  -5    9.83    3.08
 -13  -7   5   -2.47    2.83
 -12  -7   5    0.26    2.81
 -11  -7   5   10.07    3.54
 -11  -7   5   15.61    3.65
 -10  -7   5    2.98    2.31
  -9  -7   5   10.00    3.04
  -8  -7   5    5.18    2.54
  -7  -7   5  115.62    9.55
  -6  -7   5   71.62    6.88
  -5  -7   5   48.39    5.68
  -4  -7   5  303.79   18.45
  -3  -7   5  218.79   13.88
  -2  -7   5    0.48    2.27
  -2  -7   5    1.35    1.41
  -1  -7   5 1044.33   55.13
  -1  -7   5 1054.21   63.25
   0  -7   5 1324.44   80.25
   0  -7   5 1348.07   69.36
   1  -7   5   35.05    3.79
   2  -7   5  145.56    9.90
   2  -7   5  193.67   13.95
   4  -7   5    3.33    3.80
   4  -7   5    7.76    1.57
   5  -7   5  299.40   22.92
   5  -7   5  306.94   16.49
   6  -7   5  133.84   13.65
   6  -7   5  144.59    8.22
  -6   7  -5  143.46    8.75
  -7   7  -5    4.03    1.53
   7  -7   5    1.95    4.46
   8  -7   5    3.66    4.60
  -8   7  -5    2.66    1.59
   9  -7   5   20.39    7.34
  -9   7  -5   17.08    3.18
 -10   7  -5   63.28    6.02
  10  -7   5   50.31   10.56
  11  -7   5   49.88   10.34
 -11   7  -5   38.30    5.12
 -12   7  -5   10.54    2.95
  12  -7   5    9.23    7.12
 -13   7  -5    3.65    2.07
  13  -7   5   -6.57    6.69
 -14   7  -5  104.06    8.64
  14  -7   5   92.62   16.24
 -15   7  -5    6.29    2.71
 -16   7  -5    8.05    3.15
 -17   7  -5   18.30    4.48
 -13  -6   5   -0.44    2.28
 -12  -6   5    7.27    3.31
 -11  -6   5   21.54    4.69
 -10  -6   5    3.14    2.36
  -9  -6   5   73.30    7.78
  -8  -6   5   16.22    3.85
  -7  -6   5    2.69    1.86
  -6  -6   5  132.02    9.82
  -5  -6   5  246.73   15.50
  -4  -6   5  413.05   23.69
  -3  -6   5    8.79    2.45
  -3  -6   5    9.14    2.38
  -2  -6   5  728.20   44.95
  -2  -6   5  765.07   39.91
  -1  -6   5  278.08   18.77
  -1  -6   5  291.65   16.54
   0  -6   5  224.66   13.30
   1  -6   5   36.37    3.62
   1  -6   5   47.15    5.77
   2  -6   5  357.33   24.34
   2  -6   5  360.54   19.60
   3  -6   5    0.79    0.81
   3  -6   5    2.98    2.99
   4  -6   5   25.76    2.32
   4  -6   5   30.71    5.87
   5  -6   5    1.56    0.61
  -5   6  -5   -0.88    0.99
   5  -6   5    0.54    3.32
  -6   6  -5   13.78    2.51
   6  -6   5   14.79    5.23
  -7   6  -5    1.85    1.22
   7  -6   5    1.82    3.93
   8  -6   5    3.78    4.75
  -8   6  -5    1.50    1.43
   9  -6   5    0.66    5.52
  -9   6  -5    4.53    1.94
  10  -6   5   30.72    8.54
 -10   6  -5   29.72    4.27
 -11   6  -5   56.56    6.17
  11  -6   5   69.92   11.57
 -12   6  -5    1.51    1.98
  12  -6   5    3.47    6.26
  13  -6   5   32.73   10.81
 -13   6  -5   40.38    5.68
  14  -6   5  171.42   21.02
 -14   6  -5  177.06   12.44
 -15   6  -5    4.42    2.40
 -16   6  -5   16.53    4.19
 -14  -5   5    1.07    2.89
 -13  -5   5    8.03    3.36
 -12  -5   5   15.63    3.52
 -12  -5   5   15.94    3.90
 -11  -5   5   35.47    5.61
 -10  -5   5    4.16    2.08
  -9  -5   5  160.03   11.70
  -8  -5   5    0.00    1.30
  -7  -5   5   -0.43    1.30
  -6  -5   5  256.62   15.88
  -5  -5   5  851.22   45.53
  -4  -5   5   46.64    4.51
  -3  -5   5   66.33    5.33
  -3  -5   5   61.77    5.29
  -2  -5   5   13.28    2.66
  -2  -5   5   10.73    2.16
  -1  -5   5  893.27   50.07
  -1  -5   5  762.80   43.23
   0  -5   5   45.63    3.85
   1  -5   5  281.83   19.76
   1  -5   5  296.93   16.05
   2  -5   5    0.16    2.73
   2  -5   5    1.21    0.64
   3  -5   5  358.29   24.81
   3  -5   5  366.24   19.21
   4  -5   5    9.78    1.17
   4  -5   5    7.79    3.51
  -4   5  -5    5.55    1.78
  -5   5  -5   31.18    3.46
   5  -5   5   30.66    5.84
   6  -5   5    3.67    4.02
  -6   5  -5    9.61    2.05
  -7   5  -5   35.26    3.87
   7  -5   5   31.16    6.65
   8  -5   5   29.98    7.20
  -8   5  -5   21.18    3.33
   9  -5   5    4.11    4.87
  -9   5  -5    4.81    1.92
 -10   5  -5    0.45    1.49
  10  -5   5    1.03    5.67
 -11   5  -5   -0.17    1.61
  11  -5   5    8.22    6.27
  12  -5   5   42.89   10.40
 -12   5  -5   42.05    5.68
 -13   5  -5  149.92   10.96
  13  -5   5  159.14   18.61
 -14   5  -5   31.68    5.51
 -15   5  -5   -2.03    1.89
 -16   5  -5   18.96    4.56
 -14  -4   5   -2.66    2.03
 -13  -4   5   18.15    4.24
 -12  -4   5   18.21    4.08
 -11  -4   5    2.96    2.00
 -10  -4   5  352.43   21.56
  -9  -4   5  427.28   25.17
  -8  -4   5    7.64    2.59
  -7  -4   5  330.69   19.62
  -6  -4   5 1221.15   64.01
  -5  -4   5   47.28    4.88
  -4  -4   5   12.53    1.90
  -4  -4   5   11.44    2.42
  -3  -4   5   96.23    7.05
  -3  -4   5   98.74    6.92
  -2  -4   5 1053.89   59.55
  -2  -4   5  949.93   51.96
  -1  -4   5   80.39    5.58
   0  -4   5  124.58   10.70
   0  -4   5  160.48    8.72
   1  -4   5   12.59    3.35
   1  -4   5   13.74    1.73
   2  -4   5   83.91    5.07
   2  -4   5   74.95    7.99
   3  -4   5   78.49    4.55
  -3   4  -5   68.96    5.01
   3  -4   5   71.65    8.06
   4  -4   5   79.65    8.56
  -4   4  -5   76.06    5.24
  -5   4  -5    0.83    1.11
   5  -4   5   -0.44    2.82
   6  -4   5    3.47    3.56
  -6   4  -5    1.91    1.27
   7  -4   5    7.74    4.70
  -7   4  -5    3.31    1.43
  -8   4  -5   50.21    4.91
   8  -4   5   40.97    7.94
   9  -4   5   -3.51    4.47
  -9   4  -5    2.89    1.63
  10  -4   5    2.33    5.76
 -10   4  -5    7.15    2.18
 -11   4  -5    3.09    1.91
  11  -4   5   -2.46    4.70
 -12   4  -5    9.24    2.71
  12  -4   5    2.30    6.28
 -13   4  -5   23.07    4.27
 -14   4  -5   -1.30    1.94
 -15   4  -5   39.47    6.05
 -16   4  -5   50.02    7.02
 -15  -3   5    0.08    1.91
 -14  -3   5   14.14    3.15
 -13  -3   5   44.99    6.20
 -12  -3   5    1.14    1.84
 -11  -3   5  214.44   14.39
 -10  -3   5  115.61    8.99
  -9  -3   5   52.73    5.72
  -8  -3   5    3.43    1.79
  -7  -3   5   46.89    4.99
  -6  -3   5   25.53    2.61
  -6  -3   5   22.69    3.41
  -5  -3   5   41.96    4.14
  -5  -3   5   49.55    3.86
  -4  -3   5    5.13    1.57
  -4  -3   5    4.54    1.32
  -3  -3   5   90.53    6.28
  -3  -3   5   93.15    6.65
  -2  -3   5  708.08   41.99
  -2  -3   5  693.35   36.64
  -1  -3   5  413.29   21.92
  -1  -3   5  406.63   25.65
   0  -3   5  380.27   18.51
   0  -3   5  305.94   22.02
  -2   3  -5   74.04    4.96
   2  -3   5   76.13    4.47
   2  -3   5   74.72    7.63
   3  -3   5  667.44   41.68
  -3   3  -5  650.15   30.44
   3  -3   5  673.23   33.77
  -4   3  -5    1.93    1.14
   4  -3   5    3.22    2.75
  -5   3  -5    4.32    1.43
   5  -3   5    9.82    4.08
   6  -3   5   -1.64    3.13
  -6   3  -5    2.77    1.39
  -7   3  -5  390.83   19.93
   7  -3   5  401.45   28.22
  -8   3  -5  465.28   22.93
   8  -3   5  444.96   32.17
  -9   3  -5   12.52    2.74
   9  -3   5    8.10    5.40
  10  -3   5    9.70    5.78
 -10   3  -5    9.61    2.59
  11  -3   5    4.90    5.62
 -11   3  -5    2.25    1.84
 -12   3  -5    4.22    2.11
 -13   3  -5   -2.63    1.68
 -14   3  -5   52.41    6.86
 -15   3  -5   64.09    8.05
 -15  -2   5   46.64    6.43
 -14  -2   5   47.36    6.33
 -13  -2   5    7.10    2.65
 -12  -2   5    0.91    1.61
 -11  -2   5   21.98    3.75
 -10  -2   5    2.84    1.56
  -9  -2   5   -1.40    1.01
  -8  -2   5  168.13   11.27
  -7  -2   5  435.30   24.33
  -6  -2   5   79.52    6.25
  -6  -2   5   88.74    6.39
  -6  -2   5   86.93    5.32
  -5  -2   5   77.27    5.75
  -5  -2   5   74.69    4.76
  -5  -2   5   77.73    5.69
  -4  -2   5   -0.91    0.87
  -4  -2   5    1.06    1.12
  -3  -2   5  118.02    8.14
  -3  -2   5  118.70    7.47
  -2  -2   5   10.57    2.09
  -2  -2   5    8.54    1.58
  -1  -2   5 1851.75  108.62
   0  -2   5   19.91    3.28
   1  -2   5 1665.81   98.57
  -2   2  -5  267.60   13.12
   2  -2   5  268.14   18.26
  -3   2  -5  139.83    7.74
   3  -2   5  143.30   11.38
  -4   2  -5   23.44    2.14
  -4   2  -5   22.51    2.73
   4  -2   5   22.60    4.48
  -5   2  -5  394.13   18.54
  -5   2  -5  359.57   19.57
   5  -2   5  377.07   25.69
  -6   2  -5   56.55    4.54
   6  -2   5   56.28    7.55
  -6   2  -5   54.00    3.84
  -7   2  -5   95.01    6.57
   7  -2   5   91.55   10.20
  -8   2  -5  183.73   11.12
   8  -2   5  189.74   16.52
   9  -2   5    0.13    4.59
  -9   2  -5    3.00    1.39
  10  -2   5   23.63    6.75
 -10   2  -5   12.50    2.98
 -11   2  -5    1.92    1.64
 -12   2  -5    3.77    2.16
 -13   2  -5    3.54    2.26
 -14   2  -5   89.06    9.27
 -15   2  -5   -1.65    2.33
 -16  -1   5   83.40    9.25
 -15  -1   5    3.90    2.56
 -14  -1   5   23.84    4.26
 -13  -1   5   12.97    3.04
 -12  -1   5    3.49    2.00
 -11  -1   5    9.12    2.32
 -10  -1   5    4.65    1.96
  -9  -1   5   24.82    3.61
  -8  -1   5   12.62    2.41
   8   1  -5   11.98    3.36
  -7  -1   5   21.70    2.96
   7   1  -5   19.71    3.81
   6   1  -5   60.60    6.17
  -6  -1   5   61.82    4.96
  -5  -1   5  105.05    7.04
  -4  -1   5   25.69    2.43
  -4  -1   5   25.13    2.91
  -4  -1   5   30.04    2.97
  -3  -1   5  136.02    9.22
  -2  -1   5  586.31   35.26
  -1  -1   5  528.56   32.08
   0  -1   5  114.94    8.63
  -1   1  -5  458.85   21.50
   1  -1   5  477.11   29.26
  -2   1  -5   60.01    4.38
  -2   1  -5   61.11    4.03
   2  -1   5   56.29    6.36
  -3   1  -5  281.23   14.04
   3  -1   5  288.47   19.44
  -3   1  -5  284.10   15.39
   4  -1   5  269.64   18.70
  -4   1  -5  261.55   14.43
  -4   1  -5  264.62   13.44
  -5   1  -5   27.53    2.71
  -5   1  -5   26.67    3.17
   5  -1   5   27.45    5.08
   6  -1   5  407.38   28.36
  -6   1  -5  424.85   20.75
  -6   1  -5  418.24   22.33
  -7   1  -5  303.79   15.81
   7  -1   5  268.18   21.47
  -7   1  -5  306.21   16.44
   8  -1   5    5.23    2.96
  -8   1  -5   32.48    4.04
 -10   1  -5   85.69    7.12
 -11   1  -5   52.49    6.20
 -12   1  -5   12.54    3.22
 -13   1  -5    7.31    3.31
 -14   1  -5    9.92    2.95
 -15   1  -5   -1.23    2.12
 -16   0   5   24.22    4.45
 -15   0   5    5.37    2.42
 -14   0   5    0.53    1.76
 -13   0   5   13.35    3.21
 -12   0   5   71.13    7.07
 -11   0   5   29.31    4.26
 -11   0   5   28.51    4.01
 -10   0   5   32.99    4.03
  -9   0   5  117.45    8.21
   9   0  -5  118.66   11.60
  -8   0   5   43.35    4.02
   8   0  -5   36.44    5.91
  -7   0   5   86.76    6.41
   7   0  -5   93.74    8.88
  -6   0   5    0.80    1.00
   6   0  -5   -1.91    2.03
   5   0  -5    0.47    0.89
   4   0  -5    3.39    2.02
  -3   0   5 1173.54   58.56
  -3   0   5 1162.37   68.97
  -2   0   5    2.96    1.37
  -1   0   5 2918.41  170.20
   0   0  -5 6712.41  286.83
   0   0  -5 6479.59  333.18
   0   0   5 6687.91  384.77
   1   0   5   22.84    3.56
  -1   0  -5   24.15    2.25
  -1   0  -5   24.53    2.82
  -2   0  -5   14.80    1.98
   2   0   5   13.65    3.07
  -2   0  -5   11.42    2.00
   3   0   5   35.30    4.87
  -3   0  -5   39.94    3.28
  -3   0  -5   42.09    3.59
  -4   0  -5   64.82    4.68
   4   0   5   58.74    6.83
  -4   0  -5   67.92    4.92
  -5   0  -5  125.93    7.89
   5   0   5  118.56   10.45
  -5   0  -5  129.35    7.68
  -6   0  -5   50.95    4.30
  -6   0  -5   44.37    4.05
  -7   0  -5  242.21   13.95
   7   0   5  225.72   18.09
  -7   0  -5  238.45   13.23
   8   0   5   16.99    5.49
  -8   0  -5   15.67    3.16
  -9   0  -5  116.51    8.44
 -10   0  -5   30.39    4.68
 -11   0  -5   21.51    4.18
 -12   0  -5    7.75    3.03
 -13   0  -5   31.22    5.64
 -14   0  -5    0.56    2.40
 -17   1   5    9.19    3.01
 -16   1   5    6.77    2.91
 -15   1   5    3.99    2.28
 -14   1   5    6.01    2.42
 -13   1   5   22.28    3.88
 -12   1   5  119.78    8.63
 -11   1   5   37.49    4.34
 -11   1   5   49.73    5.24
 -10   1   5   26.57    3.44
  -9   1   5    4.48    1.67
   9  -1  -5    4.99    3.94
  -8   1   5    3.84    1.38
   8  -1  -5   -2.20    1.22
   7  -1  -5   14.77    3.37
   6  -1  -5  307.34   21.36
   5  -1  -5  294.78   20.17
   4  -1  -5   42.57    5.44
  -2   1   5 1561.01   91.95
  -2   1   5 1565.60   78.02
  -1   1   5 3037.24  179.17
   1  -1  -5 3109.68  155.66
   0   1   5  182.06   12.49
   0  -1  -5  177.92    9.05
   0  -1  -5  195.47   11.11
  -1  -1  -5   34.99    2.82
  -1  -1  -5   37.15    3.54
   1   1   5   36.61    4.17
   2   1   5    1.17    1.80
  -2  -1  -5    2.56    1.48
  -2  -1  -5    1.28    0.91
  -3  -1  -5   79.26    5.59
  -3  -1  -5   71.06    4.90
  -4  -1  -5  131.42    7.87
  -4  -1  -5  140.84    8.78
   5   1   5   95.87    8.91
  -5  -1  -5   98.44    6.91
  -5  -1  -5   95.15    6.40
   6   1   5  171.66   13.66
  -6  -1  -5  162.89    9.82
  -6  -1  -5  164.43   10.55
  -7  -1  -5    7.53    2.28
   7   1   5   11.05    4.50
  -7  -1  -5   14.16    2.72
  -8  -1  -5   84.60    6.79
  -9  -1  -5   56.94    6.18
 -10  -1  -5   25.24    4.40
 -11  -1  -5   26.29    4.69
 -12  -1  -5    2.23    2.42
 -13  -1  -5    0.72    3.16
 -14  -1  -5   -2.33    2.82
 -17   2   5   18.44    3.91
 -16   2   5    0.54    2.11
 -15   2   5    0.05    1.78
 -14   2   5    7.63    2.37
 -13   2   5   16.61    3.47
 -12   2   5    0.68    1.45
 -11   2   5   25.54    3.75
 -11   2   5   29.56    3.68
 -10   2   5    2.25    1.25
  10  -2  -5    2.43    2.14
 -10   2   5    1.91    1.28
   9  -2  -5   27.83    6.20
  -9   2   5   22.53    3.00
   8  -2  -5  133.85   12.47
   7  -2  -5  714.44   45.51
   6  -2  -5  406.19   27.50
   5  -2  -5   52.64    6.69
   4  -2  -5  354.65   23.83
   3  -2  -5 1897.12  112.49
  -2   2   5 1021.76   61.56
   2  -2  -5 1057.58   54.05
  -2   2   5 1029.16   52.25
   1  -2  -5 6905.53  286.30
   1  -2  -5 6504.60  332.99
  -1   2   5 6440.78  384.02
   0   2   5   93.88    7.60
   0  -2  -5  115.47    7.25
  -1  -2  -5   -0.09    0.66
  -1  -2  -5    2.57    1.54
   1   2   5   -1.32    1.20
  -2  -2  -5   68.43    5.44
  -2  -2  -5   68.08    4.46
   3   2   5   10.72    2.66
  -3  -2  -5    8.27    2.06
  -3  -2  -5   10.59    1.92
   4   2   5  168.18   12.18
  -4  -2  -5  154.57   10.15
  -4  -2  -5  150.82    8.90
  -5  -2  -5   16.18    2.88
   5   2   5   19.85    4.07
  -5  -2  -5   16.44    2.75
  -6  -2  -5   37.64    4.21
  -6  -2  -5   36.99    4.29
   6   2   5   30.71    5.61
  -7  -2  -5    2.79    1.97
  -7  -2  -5   -0.47    1.13
  -8  -2  -5   10.27    2.69
  -9  -2  -5   93.07    7.71
 -10  -2  -5    0.82    1.80
 -11  -2  -5   -0.47    1.82
 -12  -2  -5    6.99    3.21
 -13  -2  -5   -1.16    2.38
 -18   3   5   14.87    3.17
 -17   3   5   -4.18    2.00
 -16   3   5   24.33    4.22
 -15   3   5    7.89    2.69
 -14   3   5   36.97    5.13
 -13   3   5   49.57    5.67
 -12   3   5   44.72    4.97
  12  -3  -5   37.22    8.46
  11  -3  -5  232.06   19.50
 -11   3   5  225.36   12.46
 -11   3   5  207.23   13.19
 -10   3   5   39.75    3.90
 -10   3   5   44.37    4.36
  10  -3  -5   47.53    8.38
   9  -3  -5   21.99    5.89
   8  -3  -5   83.37    9.83
   7  -3  -5  309.23   22.65
   6  -3  -5  373.74   25.92
   5  -3  -5   72.58    8.40
   4  -3  -5   40.54    6.01
   4  -3  -5   38.42    4.47
   3  -3  -5   40.49    6.01
   3  -3  -5   51.90    5.03
   2  -3  -5  706.71   37.59
   1  -3  -5  599.38   32.12
  -1   3   5  625.55   36.51
  -1   3   5  571.84   30.86
   1  -3  -5  597.67   26.61
   0   3   5   80.70    6.17
   0  -3  -5   60.06    5.62
  -1  -3  -5   -0.13    1.20
   1   3   5   -0.43    0.39
  -1  -3  -5    0.58    0.71
  -2  -3  -5    1.71    1.00
   2   3   5    0.84    1.54
  -2  -3  -5    1.04    1.42
  -3  -3  -5  122.57    7.03
  -3  -3  -5  120.61    8.38
   3   3   5  105.94    9.00
  -4  -3  -5    6.83    1.77
  -4  -3  -5    4.97    2.07
   4   3   5    2.96    2.51
  -5  -3  -5  134.44    9.42
  -5  -3  -5  126.53    8.06
   5   3   5  124.68   10.62
  -6  -3  -5    1.38    2.10
  -6  -3  -5    2.86    1.57
  -7  -3  -5    9.63    2.52
  -7  -3  -5   16.25    3.40
  -8  -3  -5   -1.31    1.45
  -9  -3  -5   11.43    3.28
 -10  -3  -5    5.11    2.35
 -11  -3  -5    3.15    2.63
 -12  -3  -5    3.89    2.74
 -13  -3  -5    1.08    3.27
 -18   4   5   -0.55    2.30
 -17   4   5    0.22    2.20
 -16   4   5    1.84    1.75
 -15   4   5   30.06    4.74
 -14   4   5  140.28    9.75
 -13   4   5    6.01    2.07
  13  -4  -5    6.30    5.80
 -12   4   5   87.39    6.37
  12  -4  -5   66.84   11.15
  11  -4  -5  318.76   25.65
 -11   4   5  331.08   16.98
 -10   4   5   11.98    2.32
  10  -4  -5    9.49    5.74
  -9   4   5   12.47    2.11
   9  -4  -5   19.00    5.91
   8  -4  -5  601.85   40.98
  -8   4   5  621.09   28.25
   7  -4  -5  406.20   28.78
   6  -4  -5   86.40    9.80
   5  -4  -5   63.64    8.24
   5  -4  -5   74.95    6.57
   4  -4  -5   71.26    8.32
   4  -4  -5   71.00    6.19
   3  -4  -5  124.90   11.87
   3  -4  -5  156.08    9.74
   2  -4  -5   45.93    5.98
   2  -4  -5   42.52    2.60
   2  -4  -5   41.31    4.45
   1  -4  -5   10.26    2.57
  -1   4   5    8.69    1.82
   1  -4  -5    9.31    1.20
  -1   4   5   15.28    2.49
   0  -4  -5   92.41    7.29
   0   4   5  101.42    7.50
   0  -4  -5   93.44    5.26
  -1  -4  -5    8.58    1.52
  -1  -4  -5   10.73    2.60
   1   4   5   10.29    2.33
  -2  -4  -5    8.33    2.51
   2   4   5    3.63    1.90
  -2  -4  -5    4.48    1.32
  -3  -4  -5  131.96    9.32
   3   4   5  119.93    9.70
  -3  -4  -5  133.46    7.65
  -4  -4  -5   39.72    3.97
  -4  -4  -5   34.45    4.56
   4   4   5   35.80    4.84
  -5  -4  -5    0.49    1.67
  -5  -4  -5   -0.88    1.05
  -6  -4  -5   71.42    6.90
  -6  -4  -5   74.89    6.00
  -7  -4  -5    3.26    1.63
  -7  -4  -5    0.65    2.05
  -8  -4  -5    2.71    2.11
  -9  -4  -5    7.74    2.64
 -10  -4  -5    8.30    2.94
 -11  -4  -5   12.10    3.66
 -12  -4  -5   -0.52    2.66
 -18   5   5    0.45    2.15
 -17   5   5    0.25    1.88
 -16   5   5    7.66    2.50
 -15   5   5   51.80    6.13
  14  -5  -5    4.06    6.16
 -14   5   5    1.55    1.60
 -13   5   5   18.56    3.17
  13  -5  -5   15.73    7.21
 -12   5   5  114.44    7.82
  12  -5  -5  130.23   15.11
 -11   5   5  155.11    9.01
  11  -5  -5  129.60   15.23
 -10   5   5   27.59    3.22
  10  -5  -5   29.25    7.61
   9  -5  -5  171.25   16.24
  -9   5   5  175.80    9.40
   8  -5  -5  253.66   20.64
  -8   5   5  257.55   12.62
  -7   5   5  133.41    7.01
   7  -5  -5  141.56   13.42
  -6   5   5   90.39    4.83
   6  -5  -5  102.24    8.07
   6  -5  -5   87.90   10.32
   5  -5  -5   44.72    4.92
  -5   5   5   36.60    2.16
   5  -5  -5   40.68    6.88
   4  -5  -5   59.81    8.43
   4  -5  -5   89.27    6.78
   3  -5  -5   53.20    7.33
   3  -5  -5   68.79    5.85
   2  -5  -5    9.04    0.97
   2  -5  -5    7.86    2.48
   2  -5  -5   10.42    3.75
   1  -5  -5    1.70    1.79
   1  -5  -5    0.44    0.58
  -1   5   5    0.34    0.93
  -1   5   5    2.42    1.49
   0  -5  -5   16.38    1.81
   0  -5  -5   16.46    3.23
   1   5   5   94.32    7.33
  -1  -5  -5   88.34    7.42
  -2  -5  -5  108.02    8.85
  -2  -5  -5  121.03    7.05
   2   5   5  128.49    9.28
  -3  -5  -5   97.19    6.08
  -3  -5  -5   81.76    7.38
   3   5   5   89.42    7.63
  -4  -5  -5    3.57    1.50
  -4  -5  -5    5.39    2.43
  -5  -5  -5    2.13    1.38
  -5  -5  -5    2.72    2.19
  -6  -5  -5   69.25    6.99
  -6  -5  -5   52.79    5.54
  -7  -5  -5    4.75    2.13
  -7  -5  -5    8.74    2.84
  -8  -5  -5    0.36    1.67
  -9  -5  -5   38.95    5.62
 -10  -5  -5   35.42    5.66
 -11  -5  -5    0.99    2.65
 -12  -5  -5    0.52    3.07
 -19   6   5    6.98    2.21
 -18   6   5   -2.99    1.97
 -17   6   5   -1.31    1.92
 -16   6   5   13.85    3.11
  15  -6  -5   15.03    8.31
 -15   6   5   26.13    4.18
  14  -6  -5   25.38    8.39
 -14   6   5   21.09    3.52
 -13   6   5   89.42    6.69
  13  -6  -5   92.22   13.62
 -12   6   5   27.92    3.72
  12  -6  -5   23.68    8.52
 -11   6   5    4.22    1.64
  11  -6  -5    3.71    5.48
  10  -6  -5   64.09   10.55
 -10   6   5   71.03    4.95
  -9   6   5  102.50    6.15
   9  -6  -5  107.11   12.75
   8  -6  -5   46.23    8.35
  -8   6   5   53.30    3.55
   7  -6  -5   64.71    6.85
   7  -6  -5   73.44   10.02
  -7   6   5   72.01    4.09
  -6   6   5  152.33    7.38
   6  -6  -5  151.31   14.56
   6  -6  -5  165.35   11.21
   5  -6  -5    1.25    3.53
   5  -6  -5    0.23    1.69
   4  -6  -5   13.45    2.96
   4  -6  -5   17.92    5.38
   3  -6  -5    9.93    4.20
   3  -6  -5    9.20    2.70
   2  -6  -5   10.51    1.07
   2  -6  -5   12.97    4.15
   2  -6  -5   10.80    2.90
  -1   6   5    5.59    1.90
   1  -6  -5    7.00    1.13
   1  -6  -5    2.82    1.92
  -1   6   5    3.31    1.42
   0   6   5   23.23    2.84
   0  -6  -5   33.05    2.60
   0  -6  -5   23.92    4.09
   0   6   5   24.91    3.47
   1   6   5  467.16   28.35
  -1  -6  -5  430.92   26.01
  -2  -6  -5   34.82    5.07
   2   6   5   37.43    4.46
  -2  -6  -5   41.65    3.69
  -3  -6  -5    4.30    1.57
  -3  -6  -5    5.64    2.55
   3   6   5    4.35    2.19
  -4  -6  -5    3.94    2.54
  -4  -6  -5    6.61    1.93
  -5  -6  -5    1.56    1.36
  -5  -6  -5    0.26    1.95
  -6  -6  -5  149.20    9.89
  -6  -6  -5  147.36   11.55
  -7  -6  -5   17.09    4.29
  -7  -6  -5   24.09    4.12
  -8  -6  -5   42.62    5.81
  -9  -6  -5   74.47    7.90
 -10  -6  -5    4.14    2.94
 -11  -6  -5   -0.05    2.80
  16  -7  -5   41.36   11.37
 -16   7   5   30.23    4.39
  15  -7  -5    4.61    6.77
 -15   7   5   -0.20    1.47
 -14   7   5   24.75    3.72
  14  -7  -5   21.09    8.78
  13  -7  -5  180.76   18.64
 -13   7   5  154.30    9.78
 -12   7   5   41.20    4.22
  12  -7  -5   40.68    9.96
  11  -7  -5    4.16    6.55
 -11   7   5    4.06    1.41
  10  -7  -5  210.66   20.13
 -10   7   5  218.73   11.32
  -9   7   5  165.27    8.59
   9  -7  -5  150.75   16.19
   8  -7  -5   22.25    4.35
  -8   7   5   21.43    2.01
   8  -7  -5   16.00    6.54
  -7   7   5   45.77    2.81
   7  -7  -5   47.73    8.90
   7  -7  -5   48.21    5.79
   6  -7  -5   51.58    8.50
   6  -7  -5   48.76    5.63
   5  -7  -5   54.18    8.57
   4  -7  -5  482.78   36.55
   4  -7  -5  602.96   31.03
   3  -7  -5   51.45    5.88
   2  -7  -5    0.45    1.69
   2  -7  -5    6.06    4.01
   2  -7  -5    2.49    0.66
   1  -7  -5    3.77    1.03
   1  -7  -5    4.50    2.37
   0  -7  -5    7.36    1.51
   0   7   5    9.33    2.06
   0  -7  -5   11.87    3.13
   0   7   5    9.48    2.51
  -1  -7  -5  275.14   17.83
   1   7   5  278.42   18.40
  -2  -7  -5   39.43    5.67
   2   7   5   40.57    4.86
  -2  -7  -5   45.50    3.75
  -3  -7  -5    9.34    2.16
  -3  -7  -5    9.25    3.22
  -4  -7  -5   15.78    4.00
  -4  -7  -5   20.60    3.25
  -5  -7  -5  180.86   10.62
  -5  -7  -5  150.72   12.41
  -6  -7  -5   69.43    7.99
  -6  -7  -5   75.93    6.41
  -7  -7  -5   36.74    5.13
  -7  -7  -5   35.83    5.94
  -8  -7  -5   87.75    8.34
  -9  -7  -5   83.61    8.64
 -10  -7  -5    2.90    2.68
 -11  -7  -5   20.98    5.73
  17  -8  -5   53.38   12.74
  16  -8  -5    3.88    7.79
  15  -8  -5   34.87   10.78
  14  -8  -5  403.80   33.81
  13  -8  -5   95.58   14.57
  12  -8  -5   17.76    8.31
  11  -8  -5   90.94   13.51
  10  -8  -5   27.85    8.76
   9  -8  -5   -0.53    4.94
   8  -8  -5   15.52    3.94
   8  -8  -5   19.40    7.27
   7  -8  -5    8.66    2.97
   7  -8  -5    7.24    5.64
   6  -8  -5   -5.17    3.24
   6  -8  -5    0.30    1.62
   5  -8  -5    0.42    1.78
   5  -8  -5    5.40    4.73
   4  -8  -5    6.25    4.43
   4  -8  -5   -1.33    1.45
   3  -8  -5   29.55    6.39
   3  -8  -5   26.90    4.66
   2  -8  -5    2.43    0.70
   2  -8  -5    2.12    2.12
   2  -8  -5    1.94    3.99
   1  -8  -5   37.32    5.38
   0   8   5   12.40    2.85
   0  -8  -5   20.12    2.25
   0  -8  -5   12.36    3.79
   0   8   5   13.84    2.43
   1   8   5    5.91    2.33
  -1  -8  -5    8.19    3.03
  -1  -8  -5    3.80    1.45
  -2  -8  -5   27.03    3.27
  -2  -8  -5   33.72    5.51
  -3  -8  -5   52.79    6.85
  -3  -8  -5   53.56    4.99
  -4  -8  -5  143.01    9.09
  -4  -8  -5  134.29   11.36
  -5  -8  -5   23.63    4.89
  -5  -8  -5   26.78    4.03
  -6  -8  -5   48.56    5.78
  -6  -8  -5   52.87    7.22
  -7  -8  -5   30.49    4.96
  -7  -8  -5   30.91    6.01
  -8  -8  -5  106.99    8.78
  -9  -8  -5   13.14    3.71
 -10  -8  -5   -0.40    2.86
  17  -9  -5   14.33    9.63
  16  -9  -5   36.27   11.44
  15  -9  -5   16.91    8.47
  14  -9  -5  179.53   20.96
  13  -9  -5   -1.27    6.14
  12  -9  -5   18.51    8.61
  11  -9  -5   39.71   10.12
  10  -9  -5   47.37   10.46
   9  -9  -5   -1.12    2.07
   9  -9  -5    1.36    5.49
   8  -9  -5    4.53    2.86
   8  -9  -5    4.80    5.33
   7  -9  -5    6.84    5.85
   7  -9  -5    4.25    2.57
   6  -9  -5   84.14   11.72
   6  -9  -5   92.31    8.22
   5  -9  -5    9.77    5.51
   5  -9  -5    8.48    3.07
   4  -9  -5  168.73   12.61
   3  -9  -5  201.31   14.34
   2  -9  -5   27.33    5.00
   2  -9  -5   22.59    5.82
  -1   9   5   65.87    6.54
   1  -9  -5   78.84    7.99
  -1   9   5   71.25    5.53
   1  -9  -5   72.66    4.55
   0   9   5   44.34    4.94
   0  -9  -5   52.63    6.66
   0  -9  -5   58.45    3.92
   0   9   5   36.61    4.07
  -1  -9  -5   43.84    3.95
  -1  -9  -5   45.78    6.61
  -3  -9  -5   66.33    8.18
  -3  -9  -5   77.97    5.94
  -4  -9  -5   -1.08    1.98
  -4  -9  -5    0.33    1.47
  -5  -9  -5   79.21    6.58
  -5  -9  -5   74.72    8.90
  -6  -9  -5    7.51    2.52
  -6  -9  -5    5.41    3.10
  -7  -9  -5   51.18    6.26
  -7  -9  -5   41.83    7.15
  -8  -9  -5   38.82    5.89
  -9  -9  -5   -3.91    2.24
  18 -10  -5    6.92    9.27
  17 -10  -5    6.90    8.82
  16 -10  -5   59.59   14.07
  15 -10  -5   21.67    9.12
  14 -10  -5   24.25    9.82
  13 -10  -5    8.34    8.28
  12 -10  -5    9.55    6.73
  11 -10  -5   36.58   10.37
  10 -10  -5   16.37    7.95
  10 -10  -5   14.91    4.35
   9 -10  -5   15.13    7.47
   9 -10  -5   23.37    4.97
   8 -10  -5   16.86    7.87
   8 -10  -5   19.45    4.49
   7 -10  -5    0.32    5.17
   7 -10  -5    4.76    2.73
   6 -10  -5    7.77    6.23
   6 -10  -5    9.24    3.39
   5 -10  -5  443.58   26.89
   4 -10  -5   28.70    7.27
   4 -10  -5   30.95    5.62
   3 -10  -5    7.14    5.41
   3 -10  -5    7.36    3.46
   2 -10  -5   16.66    4.67
   2 -10  -5   35.26    6.99
   1 -10  -5  215.93   14.80
  -1  10   5  194.37   11.69
  -1  10   5  179.49   13.65
   0 -10  -5  153.53   12.39
  -1 -10  -5   10.20    3.93
  -2 -10  -5  269.66   18.87
  -3 -10  -5   18.12    4.77
  -4 -10  -5   39.03    6.71
  -5 -10  -5   -1.28    2.21
  -6 -10  -5   49.90    7.77
  -7 -10  -5    8.55    3.77
  19 -11  -5   23.02   12.73
  18 -11  -5   -3.70    7.75
  17 -11  -5   12.41    8.99
  16 -11  -5   25.01   10.85
  15 -11  -5   -0.03    7.40
  14 -11  -5   54.41   13.09
  13 -11  -5    4.17    6.65
  12 -11  -5    2.46    6.09
  11 -11  -5   60.83   12.69
  10 -11  -5   43.58    6.79
  10 -11  -5   53.20   11.39
   9 -11  -5   -2.42    2.14
   9 -11  -5    5.46    6.22
   8 -11  -5   83.39    8.81
   8 -11  -5  108.57   14.38
   7 -11  -5   47.69    6.41
   7 -11  -5   48.10   10.15
   6 -11  -5   32.47    8.81
   6 -11  -5   42.47    6.13
   5 -11  -5  319.71   24.70
   5 -11  -5  253.26   18.73
   4 -11  -5   49.73    8.84
   4 -11  -5   43.09    6.70
   3 -11  -5   28.75    5.74
   3 -11  -5   28.57    7.38
   2 -11  -5   -1.88    2.35
   1 -11  -5  138.32   11.84
   0 -11  -5  144.28   12.27
  -1 -11  -5  145.96   12.50
  -2 -11  -5  111.22   10.78
  -3 -11  -5    2.49    3.28
  -4 -11  -5   -2.74    2.08
  -5 -11  -5   18.20    4.88
  -6 -11  -5    7.35    3.80
  -7 -11  -5    2.02    2.51
  19 -12  -5   25.19   13.74
  18 -12  -5   12.94   10.56
  17 -12  -5   21.32   11.61
  16 -12  -5   -1.68    6.95
  15 -12  -5    6.64    8.56
  14 -12  -5   12.57    8.62
  13 -12  -5   39.43   12.20
  12 -12  -5   35.38   10.92
  11 -12  -5  100.34   10.08
  11 -12  -5   79.10   14.35
  10 -12  -5   -1.00    2.49
  10 -12  -5    3.81    6.34
   9 -12  -5  120.91   10.94
   9 -12  -5  140.48   17.33
   8 -12  -5  165.03   18.43
   8 -12  -5  172.85   13.33
   7 -12  -5    2.69    5.53
   7 -12  -5    4.39    3.08
   6 -12  -5   11.51    7.12
   6 -12  -5   11.39    4.06
   5 -12  -5   54.13    7.81
   5 -12  -5   80.45   11.25
   4 -12  -5    2.78    2.96
   4 -12  -5   -2.31    5.16
   3 -12  -5  135.66   13.95
   3 -12  -5  131.05   11.99
   2 -12  -5  108.30   10.69
   1 -12  -5  141.51   12.35
   0 -12  -5    2.57    2.76
  -1 -12  -5  109.07   11.30
  -2 -12  -5   54.66    8.27
  -3 -12  -5    3.87    3.11
  -4 -12  -5   16.97    5.02
  -5 -12  -5   15.49    4.74
  -6 -12  -5   -1.38    2.40
  -7 -12  -5   -5.30    2.08
  18 -13  -5   12.89   12.42
  17 -13  -5   -1.43    8.48
  16 -13  -5   43.55   13.29
  15 -13  -5   -4.57    7.10
  14 -13  -5   17.22    9.89
  13 -13  -5   18.83    9.83
  12 -13  -5    5.94    7.27
  11 -13  -5    4.08    3.05
  11 -13  -5    1.84    5.84
  10 -13  -5   32.52   10.34
  10 -13  -5   30.15    5.95
   9 -13  -5   59.14    7.67
   9 -13  -5   58.02   12.00
   8 -13  -5    7.84    6.00
   8 -13  -5    0.46    2.19
   7 -13  -5   15.55    4.44
   7 -13  -5   21.57    8.30
   6 -13  -5   28.71    6.00
   6 -13  -5   52.84   10.02
   5 -13  -5   56.11    8.38
   5 -13  -5   83.22   11.33
   4 -13  -5  180.38   15.41
   4 -13  -5  220.23   18.65
   3 -13  -5  229.11   17.61
   2 -13  -5   13.38    4.87
   1 -13  -5    3.60    3.09
   0 -13  -5   -2.26    2.21
  -1 -13  -5   36.01    6.76
  -2 -13  -5    4.55    2.88
  -3 -13  -5    4.55    2.85
  -4 -13  -5   -2.58    2.34
  -5 -13  -5   12.53    4.79
  -6 -13  -5   -2.97    2.30
  17 -14  -5    3.60    6.63
  16 -14  -5   -2.49    7.53
  15 -14  -5    5.57    7.82
  14 -14  -5   25.70   10.40
  13 -14  -5   18.80    9.05
  12 -14  -5    3.53    7.20
  11 -14  -5   14.98    7.97
  10 -14  -5    2.05    5.65
  10 -14  -5    4.54    3.13
   9 -14  -5    8.53    3.46
   9 -14  -5   -2.08    5.02
   8 -14  -5    2.51    2.87
   8 -14  -5   -1.66    5.16
   7 -14  -5   51.65   10.69
   7 -14  -5   23.22    5.58
   6 -14  -5    4.72    5.08
   6 -14  -5    2.70    3.02
   5 -14  -5    7.65    4.09
   5 -14  -5    7.76    5.32
   4 -14  -5    4.56    3.56
   3 -14  -5    2.71    3.09
   2 -14  -5   40.33    7.83
   1 -14  -5   10.39    4.28
   0 -14  -5   13.71    4.71
  -1 -14  -5   51.43    8.47
  -2 -14  -5   10.30    4.37
  -3 -14  -5    1.27    2.81
  -4 -14  -5    3.60    3.37
  17 -15  -5    2.22    6.73
  16 -15  -5    4.28    6.11
  15 -15  -5   -0.20    7.88
  14 -15  -5   -0.69    6.64
  13 -15  -5   -5.57    5.73
  12 -15  -5   12.39    7.86
  11 -15  -5   23.80    9.52
  10 -15  -5    6.06    3.45
  10 -15  -5   11.84    7.35
   9 -15  -5    5.62    3.30
   9 -15  -5    5.55    6.52
   8 -15  -5   74.26    9.53
   8 -15  -5  108.64   15.46
   7 -15  -5    4.91    3.43
   7 -15  -5    3.80    5.68
   6 -15  -5   35.00    8.76
   6 -15  -5   19.93    5.55
   5 -15  -5   60.17    9.13
   4 -15  -5   -0.94    2.75
   3 -15  -5    5.75    4.10
   2 -15  -5   54.56    9.21
   1 -15  -5   44.27    8.48
   0 -15  -5    6.88    3.86
  -1 -15  -5   -1.01    2.46
  -2 -15  -5    7.58    4.38
  -3 -15  -5    6.76    3.85
  16 -16  -5   -0.53    7.03
  15 -16  -5   42.93   13.90
  14 -16  -5   20.07   10.20
  13 -16  -5   26.69   10.81
  12 -16  -5   -8.14    5.63
  11 -16  -5   24.56    9.46
  10 -16  -5    4.44    7.29
  10 -16  -5   17.85    5.54
   9 -16  -5   21.13    8.40
   9 -16  -5   19.93    5.46
   8 -16  -5   43.98    7.58
   8 -16  -5   44.65   10.48
   7 -16  -5  121.24   15.24
   7 -16  -5   97.04   11.33
   6 -16  -5   30.29    7.05
   5 -16  -5   27.26    6.71
   4 -16  -5   -0.86    3.09
   3 -16  -5    1.91    3.54
   2 -16  -5   -4.62    2.69
   1 -16  -5   -0.58    3.16
   0 -16  -5   13.14    5.48
  -1 -16  -5    5.21    3.86
  15 -17  -5   47.29   13.58
  14 -17  -5   18.71   10.37
  13 -17  -5   34.19   11.22
  12 -17  -5    5.50    7.25
  11 -17  -5   -0.73    5.59
  10 -17  -5   10.04    6.69
  10 -17  -5   -0.66    2.34
   9 -17  -5    4.37    3.28
   9 -17  -5   11.18    7.06
   8 -17  -5   31.86    7.01
   8 -17  -5   41.64   10.33
   7 -17  -5   14.52    5.16
   6 -17  -5    4.82    3.50
   5 -17  -5    1.64    3.50
   4 -17  -5    3.56    3.87
   3 -17  -5    3.58    4.36
   2 -17  -5    0.29    3.14
   1 -17  -5    0.12    3.86
  14 -18  -5   27.41   11.12
  13 -18  -5    3.55    6.85
  12 -18  -5   12.30    7.64
  11 -18  -5   17.55    8.50
  10 -18  -5   -3.98    5.08
  10 -18  -5   -5.42    2.05
   9 -18  -5    4.22    6.38
   9 -18  -5    0.34    3.06
   8 -18  -5    0.87    3.47
   7 -18  -5    2.18    3.48
   6 -18  -5    2.22    3.67
   5 -18  -5   -1.13    3.78
   4 -18  -5   -0.08    3.16
   3 -18  -5   -0.06    3.57
  13 -19  -5  -11.37    4.23
  12 -19  -5   -0.93    5.60
  11 -19  -5    1.98    6.22
  10 -19  -5    0.75    3.79
  10 -19  -5   -2.62    4.91
   9 -19  -5   -0.77    3.16
   8 -19  -5   13.93    6.07
   7 -19  -5   42.88    8.85
   6 -19  -5    2.37    5.01
   5 -19  -5    0.07    3.77
  11 -20  -5    1.42    4.97
   9 -20  -5   11.36    6.25
   8 -20  -5    6.71    5.96
   3 -20   6    9.54    6.15
   4 -20   6   -5.50    3.57
   5 -20   6   23.34    6.67
   9 -20   6   17.69    8.19
  10 -20   6   33.15   10.54
  11 -20   6   15.89    7.32
   1 -19   6    1.14    3.68
   2 -19   6   61.71    9.88
   3 -19   6    9.86    4.98
   4 -19   6   -6.25    2.37
   5 -19   6   21.70    5.93
   8 -19   6   15.95    7.73
   9 -19   6   11.01    7.05
  10 -19   6   -2.30    4.80
  11 -19   6    6.04    6.85
  12 -19   6   12.79    7.51
  -1 -18   6   -0.07    3.57
   0 -18   6   -2.13    2.84
   1 -18   6    7.03    4.40
   2 -18   6   17.01    5.68
   3 -18   6    0.98    2.64
   4 -18   6   61.60    8.71
   5 -18   6   76.29    9.34
   7 -18   6   12.68    7.80
   8 -18   6   11.94    6.63
   9 -18   6   23.79    8.51
  10 -18   6   -0.39    5.43
  11 -18   6    6.80    6.38
  12 -18   6    5.85    6.78
  13 -18   6   15.59    8.55
  -2 -17   6   -2.14    2.49
  -1 -17   6    0.93    3.33
   0 -17   6    5.49    3.97
   1 -17   6   42.56    7.46
   2 -17   6   -1.03    2.30
   3 -17   6   19.86    5.20
   4 -17   6   25.91    5.77
   5 -17   6   47.60    7.19
   6 -17   6    1.37    5.79
   7 -17   6   12.84    7.65
   8 -17   6   -3.85    5.75
   9 -17   6    2.04    5.35
  10 -17   6   13.90    7.72
  11 -17   6   14.11    8.48
  12 -17   6   15.37    8.42
  13 -17   6   19.50   10.14
  14 -17   6   12.84    9.94
  -4 -16   6   39.07    7.40
  -3 -16   6   -1.22    2.49
  -2 -16   6    3.97    3.74
  -1 -16   6    6.74    4.16
   0 -16   6   90.98   10.42
   1 -16   6    7.19    3.77
   2 -16   6    3.05    2.61
   3 -16   6    6.69    3.36
   4 -16   6   31.47    5.81
   5 -16   6    6.81    5.45
   5 -16   6    3.04    2.64
   6 -16   6   10.84    3.55
   6 -16   6    5.84    6.67
   7 -16   6    7.54    6.94
   8 -16   6   11.63    6.81
   9 -16   6   48.97   12.23
  10 -16   6   14.13    8.17
  11 -16   6    2.73    6.81
  12 -16   6   77.91   15.69
  13 -16   6    3.73    6.77
  14 -16   6   25.70   11.34
  -5 -15   6   10.57    3.66
  -4 -15   6   23.47    5.38
  -3 -15   6    5.14    3.59
  -2 -15   6   12.64    4.66
  -1 -15   6   59.99    8.21
   0 -15   6    8.57    3.58
   1 -15   6   34.44    6.13
   2 -15   6   63.57    7.89
   3 -15   6    4.14    2.82
   4 -15   6   30.84    8.98
   5 -15   6   43.43    9.63
   5 -15   6   17.84    4.41
   6 -15   6   48.50   10.73
   6 -15   6   38.37    5.71
   7 -15   6   24.69    9.34
   8 -15   6   61.93   12.52
   9 -15   6    6.55    7.05
  10 -15   6    9.03    7.62
  11 -15   6   20.12   10.03
  12 -15   6   12.83    8.73
  13 -15   6    7.19    8.55
  14 -15   6   -3.15    6.09
  15 -15   6    0.89    7.24
  -7 -14   6    2.40    2.49
  -6 -14   6    2.29    2.89
  -5 -14   6    9.66    4.01
  -4 -14   6    0.55    2.08
  -3 -14   6    1.72    2.78
  -2 -14   6    0.75    2.39
  -1 -14   6   -0.70    2.40
   0 -14   6   93.97    9.67
   1 -14   6   99.14    9.35
   2 -14   6    1.59    2.14
   3 -14   6   -1.43    1.56
   3 -14   6    0.43    5.17
   4 -14   6    1.71    5.59
   4 -14   6    3.44    2.25
   5 -14   6   44.49    5.79
   5 -14   6   36.66    9.58
   6 -14   6    5.64    5.90
   6 -14   6   14.64    3.46
   7 -14   6   13.78    7.08
   8 -14   6    1.75    5.72
   9 -14   6   -0.52    5.67
  10 -14   6   20.02    8.51
  11 -14   6   26.15    9.67
  12 -14   6    8.57    7.23
  13 -14   6   43.37   13.45
  14 -14   6   15.29   10.73
  15 -14   6   -3.24    5.73
  16 -14   6   -5.81    7.53
  -8 -13   6   12.73    4.02
  -7 -13   6   -1.78    1.93
  -6 -13   6    7.92    3.94
  -5 -13   6   11.78    4.11
  -4 -13   6    1.54    2.62
  -3 -13   6    2.28    2.58
  -2 -13   6   14.78    4.32
  -1 -13   6    7.16    3.45
   0 -13   6  217.64   15.67
   1 -13   6    6.28    2.92
   2 -13   6   -1.45    1.38
   2 -13   6    6.23    5.99
   3 -13   6    0.18    5.30
   3 -13   6    3.55    2.17
   4 -13   6    6.46    5.97
   4 -13   6    5.03    2.41
   5 -13   6   24.75    8.45
   5 -13   6   27.81    4.29
   6 -13   6   20.24    8.19
   7 -13   6    3.06    5.93
   8 -13   6  167.02   18.31
   9 -13   6  107.47   15.61
  10 -13   6   24.08    9.56
  11 -13   6    4.24    6.32
  12 -13   6   24.74   10.90
  13 -13   6   27.04   10.89
  14 -13   6   50.56   14.97
  15 -13   6   -0.35    6.61
  16 -13   6    3.58    7.89
  -9 -12   6    8.70    3.40
  -8 -12   6    9.10    3.84
  -7 -12   6   -0.69    2.08
  -6 -12   6    2.97    2.34
  -5 -12   6   43.51    6.75
  -4 -12   6    3.69    2.35
  -3 -12   6    2.06    2.67
  -2 -12   6    9.47    3.34
  -1 -12   6    8.53    3.10
   0 -12   6   28.67    4.99
   1 -12   6   60.01    6.96
   1 -12   6   82.45   10.64
   2 -12   6   42.41    5.69
   2 -12   6   41.35    8.44
   3 -12   6   23.77    7.57
   3 -12   6   17.88    3.73
   4 -12   6   13.27    6.72
   4 -12   6   31.27    4.32
   5 -12   6   82.42    6.93
   5 -12   6   90.44   12.36
   6 -12   6   62.05    5.70
   6 -12   6   70.72   11.56
   7 -12   6   50.34   10.59
   8 -12   6   83.99   13.29
   9 -12   6   29.58    9.34
  10 -12   6   18.40    8.45
  11 -12   6   24.95   10.12
 -11  12  -6   13.21    3.52
 -12  12  -6   70.89    7.34
  12 -12   6   71.10   14.90
  13 -12   6   17.19   10.05
  14 -12   6    6.12    8.74
  15 -12   6    4.82    9.54
  16 -12   6    4.91   11.74
 -10 -11   6   28.63    6.38
  -9 -11   6    0.03    2.07
  -8 -11   6   -0.24    1.78
  -7 -11   6    0.06    2.07
  -6 -11   6    8.59    3.33
  -5 -11   6   40.05    6.28
  -4 -11   6    9.46    3.39
  -3 -11   6   -0.84    1.56
  -2 -11   6   -0.81    1.56
  -1 -11   6   46.95    5.98
   0 -11   6  235.94   15.59
   1 -11   6  367.78   27.23
   1 -11   6  390.81   22.75
   2 -11   6  320.79   19.49
   3 -11   6  137.71   13.72
   3 -11   6  112.28    9.02
   4 -11   6  394.83   29.27
   4 -11   6  395.19   22.85
   5 -11   6   97.08   12.42
   6 -11   6    0.51    0.96
   6 -11   6    0.19    4.73
   7 -11   6  340.28   27.51
   8 -11   6    6.89    6.37
   9 -11   6   23.51    8.86
 -10  11  -6  105.28    8.31
  10 -11   6  110.68   16.04
  11 -11   6    6.00    7.96
 -11  11  -6    8.08    2.98
  12 -11   6    2.29    7.59
 -12  11  -6    1.43    1.98
  13 -11   6   -0.76    7.16
 -13  11  -6    4.00    2.50
 -14  11  -6    4.41    2.61
  14 -11   6    4.06    7.98
 -15  11  -6   -4.67    2.32
  15 -11   6    0.81    9.47
  16 -11   6  -10.57    7.76
 -16  11  -6    2.10    2.97
  17 -11   6   -0.46   11.46
 -11 -10   6    6.23    4.16
 -11 -10   6    1.70    3.08
 -10 -10   6    5.15    3.10
  -9 -10   6   11.72    3.90
  -8 -10   6    1.64    2.11
  -7 -10   6    2.76    2.04
  -6 -10   6   15.06    4.14
  -4 -10   6    3.71    2.30
  -3 -10   6   13.06    3.33
  -2 -10   6  103.33    8.62
  -1 -10   6  287.94   18.05
   0 -10   6  419.88   25.33
   0 -10   6  459.97   30.16
   1 -10   6    5.70    2.23
   1 -10   6   15.77    5.31
   2 -10   6   49.97    4.98
   3 -10   6   90.40    7.25
   3 -10   6  107.40   11.15
   4 -10   6  210.86   18.10
   4 -10   6  213.88   13.22
   5 -10   6   46.45    8.45
   5 -10   6   44.59    4.29
   6 -10   6   70.26    5.55
   6 -10   6   76.83   10.76
   7 -10   6  274.65   23.11
   8 -10   6    7.37    5.88
  -9  10  -6   64.63    6.32
   9 -10   6   51.32   11.13
 -10  10  -6  100.97    7.96
  10 -10   6  100.25   14.95
 -11  10  -6   77.25    7.16
  11 -10   6   56.39   12.76
  12 -10   6   23.91   10.39
 -12  10  -6   11.05    3.12
  13 -10   6   12.21    8.91
 -13  10  -6   12.04    3.58
  14 -10   6   -1.00    6.84
 -14  10  -6    2.27    2.48
  15 -10   6   -3.82    7.80
 -15  10  -6    0.66    2.41
 -16  10  -6    3.79    2.89
  16 -10   6   -5.78    8.42
  17 -10   6   -1.12   10.93
 -17  10  -6   13.39    3.72
 -12  -9   6    2.52    2.21
 -11  -9   6   -0.89    2.14
 -10  -9   6   20.61    4.71
  -9  -9   6   22.36    4.96
  -8  -9   6    0.77    1.88
  -7  -9   6   34.81    5.76
  -6  -9   6   78.41    7.63
  -5  -9   6   21.51    4.36
  -4  -9   6   29.60    4.89
  -3  -9   6   -1.16    1.37
  -2  -9   6  371.29   22.25
  -1  -9   6  159.50   11.24
  -1  -9   6  160.50   12.97
   0  -9   6    0.94    3.21
   0  -9   6   -0.51    1.34
   1  -9   6    1.93    3.81
   1  -9   6    3.21    1.63
   2  -9   6   20.72    3.29
   2  -9   6   20.52    5.41
   3  -9   6   16.33    2.75
   3  -9   6   16.23    5.33
   4  -9   6    4.25    1.45
   4  -9   6   10.18    4.92
   5  -9   6   12.22    5.42
   5  -9   6   14.83    2.31
   6  -9   6    0.06    4.54
   6  -9   6    0.76    0.89
   7  -9   6    0.76    4.64
  -8   9  -6   33.84    4.53
   8  -9   6   24.62    7.89
   9  -9   6  289.28   25.86
  -9   9  -6  322.99   17.19
  10  -9   6   -1.67    6.10
 -10   9  -6    2.59    2.05
 -11   9  -6   36.91    5.26
  11  -9   6   41.94   10.68
  12  -9   6   -5.45    6.44
 -12   9  -6   -1.29    1.87
  13  -9   6   -8.15    6.33
 -13   9  -6    0.10    1.89
  14  -9   6   -5.48    6.82
 -14   9  -6   -5.10    1.77
  15  -9   6    1.11    7.79
 -15   9  -6   -4.69    1.97
 -16   9  -6    2.57    2.58
  16  -9   6    8.71   10.42
 -17   9  -6   19.43    4.31
 -12  -8   6   51.43    7.37
 -11  -8   6    5.77    3.10
 -10  -8   6    6.81    2.93
  -9  -8   6    4.47    2.45
  -8  -8   6  100.33    9.01
  -7  -8   6    5.16    2.66
  -6  -8   6  177.33   12.87
  -5  -8   6    7.09    2.76
  -4  -8   6   33.46    4.87
  -3  -8   6    6.45    2.57
  -2  -8   6    3.29    1.79
  -2  -8   6    7.23    3.08
  -1  -8   6   73.42    7.74
  -1  -8   6   77.30    6.46
   0  -8   6    0.26    3.00
   0  -8   6    0.86    1.33
   1  -8   6  102.41    7.49
   2  -8   6  420.71   25.18
   2  -8   6  513.26   31.38
   3  -8   6   42.36    6.59
   3  -8   6   18.98    2.69
   4  -8   6  240.20   13.74
   4  -8   6  236.20   18.98
   5  -8   6  330.84   25.43
   5  -8   6  344.83   18.60
   6  -8   6   87.86   11.02
   6  -8   6   80.32    5.34
  -7   8  -6   41.42    4.66
   7  -8   6   29.01    7.77
  -8   8  -6  106.15    7.45
   8  -8   6   92.88   12.97
   9  -8   6    6.20    6.19
  -9   8  -6    3.83    1.92
 -10   8  -6   -2.14    1.45
  10  -8   6   -0.09    6.02
 -11   8  -6   -1.43    1.51
  11  -8   6   -2.74    6.01
  12  -8   6   10.42    7.72
  13  -8   6  188.38   21.80
 -13   8  -6  175.00   12.19
  14  -8   6   19.49    9.65
 -14   8  -6   25.14    4.66
 -15   8  -6    6.44    2.64
  15  -8   6   -3.16    7.42
 -16   8  -6   25.61    4.83
 -13  -7   6   -2.02    2.82
 -12  -7   6    6.55    3.20
 -12  -7   6    2.88    2.78
 -11  -7   6    3.89    2.47
 -10  -7   6   21.99    4.68
  -9  -7   6   83.89    8.22
  -8  -7   6    4.11    2.49
  -7  -7   6   43.60    5.78
  -6  -7   6  437.00   25.70
  -5  -7   6  245.36   15.74
  -4  -7   6   25.66    4.05
  -3  -7   6  371.68   20.56
  -3  -7   6  325.81   21.81
  -2  -7   6  147.23   11.24
  -2  -7   6  157.39   10.39
  -1  -7   6   33.01    5.10
  -1  -7   6   30.16    3.86
   0  -7   6  199.30   13.29
   0  -7   6  252.93   16.52
   1  -7   6  405.82   22.49
   2  -7   6  144.84   12.78
   2  -7   6  160.12    9.69
   3  -7   6  156.71    9.68
   3  -7   6  165.75   14.13
   4  -7   6  278.53   14.96
   4  -7   6  252.07   20.41
   5  -7   6   13.74    1.65
   5  -7   6   14.09    5.19
   6  -7   6  117.46   12.48
   6  -7   6  116.72    6.71
  -6   7  -6  117.70    7.79
   7  -7   6  188.86   17.35
  -7   7  -6  185.30   10.97
  -8   7  -6    2.16    1.70
   8  -7   6   -6.01    4.30
  -9   7  -6   33.96    4.45
   9  -7   6   31.79    8.78
 -10   7  -6   70.93    6.71
  10  -7   6   74.13   12.01
  11  -7   6   -0.25    5.47
 -11   7  -6    3.61    1.88
  12  -7   6  219.19   21.92
 -12   7  -6  212.07   13.56
  13  -7   6  119.84   17.47
 -13   7  -6  107.05    8.81
 -14   7  -6    4.36    2.75
  14  -7   6    5.62    7.42
 -15   7  -6   47.10    6.85
 -16   7  -6   47.50    6.90
 -13  -6   6   -0.90    2.26
 -12  -6   6    1.50    2.63
 -12  -6   6    3.01    2.81
 -11  -6   6    8.19    3.12
 -10  -6   6   39.57    5.90
  -9  -6   6   -0.26    1.75
  -8  -6   6   54.12    6.37
  -7  -6   6    7.01    2.48
  -6  -6   6  597.58   33.54
  -5  -6   6    6.74    2.26
  -4  -6   6  207.52   13.23
  -3  -6   6  302.10   17.78
  -3  -6   6  302.32   19.29
  -2  -6   6  424.61   26.21
  -2  -6   6  403.41   23.16
  -1  -6   6    7.34    2.96
  -1  -6   6    8.37    2.03
   0  -6   6  198.38   11.91
   1  -6   6  219.72   16.53
   1  -6   6  230.33   13.15
   2  -6   6  310.46   21.72
   3  -6   6   70.25    4.81
   3  -6   6   67.03    8.28
   4  -6   6    6.72    4.11
   4  -6   6   10.17    1.38
  -5   6  -6  222.37   12.37
   5  -6   6  231.19   12.07
   5  -6   6  215.27   18.04
  -6   6  -6   21.19    3.19
   6  -6   6   15.62    5.61
   7  -6   6   97.32   11.53
  -7   6  -6   92.09    6.68
  -8   6  -6  456.94   22.60
   8  -6   6  429.45   32.62
   9  -6   6    2.84    5.60
  -9   6  -6    4.91    2.08
  10  -6   6    4.99    6.60
 -10   6  -6   15.61    3.21
 -11   6  -6   72.14    6.96
  11  -6   6   58.23   11.40
  12  -6   6  202.91   20.84
 -12   6  -6  190.66   12.64
  13  -6   6   13.28    8.29
 -13   6  -6   11.35    3.03
 -14   6  -6    5.78    2.51
 -15   6  -6   36.92    5.71
 -16   6  -6   14.17    3.76
 -14  -5   6   -0.81    2.93
 -13  -5   6    0.20    2.52
 -12  -5   6   11.51    3.43
 -11  -5   6   41.44    5.93
 -10  -5   6   37.97    5.47
  -9  -5   6    8.35    2.88
  -8  -5   6    0.30    1.45
  -7  -5   6  208.63   13.70
  -6  -5   6  137.41    9.79
  -5  -5   6   73.86    6.30
  -4  -5   6   10.40    2.24
  -4  -5   6   13.08    2.71
  -3  -5   6  283.07   18.20
  -3  -5   6  289.29   16.84
  -2  -5   6    9.97    2.49
  -2  -5   6    6.87    1.87
  -1  -5   6    4.68    1.62
  -1  -5   6    4.17    2.44
   0  -5   6    6.72    1.66
   0  -5   6    5.66    2.72
   1  -5   6  128.23    7.77
   1  -5   6  113.56   10.28
   2  -5   6  333.85   22.80
   2  -5   6  328.21   17.90
   3  -5   6  209.57   11.42
   3  -5   6  202.35   15.85
   4  -5   6    5.29    3.34
  -4   5  -6   12.87    2.52
   4  -5   6   10.21    1.23
   5  -5   6    1.09    3.50
  -5   5  -6    2.55    1.32
  -6   5  -6   49.40    4.59
   6  -5   6   49.52    7.81
  -7   5  -6  335.15   17.46
   7  -5   6  338.44   25.81
   8  -5   6   89.22   11.04
  -8   5  -6   65.62    5.65
  -9   5  -6    4.77    1.73
   9  -5   6    6.51    5.99
 -10   5  -6   28.85    4.45
  10  -5   6   35.38    8.79
 -11   5  -6   36.74    5.17
  11  -5   6   35.38    8.95
 -12   5  -6    1.49    2.01
  12  -5   6    1.35    6.19
 -13   5  -6    5.71    2.49
  13  -5   6   13.96    8.25
 -14   5  -6   18.47    4.18
 -15   5  -6   30.35    5.26
 -16   5  -6    3.67    2.78
 -14  -4   6    7.96    2.97
 -13  -4   6    3.74    2.70
 -12  -4   6   35.51    5.60
 -11  -4   6   54.21    6.44
 -10  -4   6    3.25    1.86
  -9  -4   6    4.81    2.05
  -8  -4   6  501.21   28.52
  -7  -4   6  240.67   15.27
  -6  -4   6   30.08    4.13
  -5  -4   6  122.90    8.53
  -5  -4   6  117.83    8.12
  -4  -4   6    1.67    1.38
  -4  -4   6    1.74    1.16
  -3  -4   6  146.49    9.05
  -3  -4   6  132.39    9.63
  -2  -4   6    5.12    1.61
  -2  -4   6    9.70    2.48
  -1  -4   6   13.18    3.02
  -1  -4   6   19.29    2.40
   0  -4   6  176.91    9.56
   0  -4   6  140.07   11.90
   1  -4   6    7.42    1.26
   1  -4   6   17.40    3.69
   2  -4   6   13.73    1.57
   2  -4   6    9.26    3.52
  -3   4  -6  429.99   21.62
   3  -4   6  464.27   23.40
   3  -4   6  456.73   29.96
  -4   4  -6  154.29    8.96
   4  -4   6  165.37   13.55
  -5   4  -6    1.12    1.13
   5  -4   6    4.96    3.67
   6  -4   6  451.18   30.76
  -6   4  -6  428.02   21.52
   7  -4   6  189.65   16.57
  -7   4  -6  190.69   11.05
  -8   4  -6    3.54    1.80
   8  -4   6   13.67    5.99
  -9   4  -6   69.46    5.97
   9  -4   6   70.38   10.66
 -10   4  -6   67.85    6.72
  10  -4   6   76.21   11.49
 -11   4  -6   90.77    7.48
  11  -4   6   73.77   11.78
  12  -4   6    5.74    6.41
 -12   4  -6    0.45    1.95
 -13   4  -6   63.00    7.26
 -14   4  -6    7.22    3.03
 -15   4  -6    3.49    2.66
 -15  -3   6   10.34    3.21
 -14  -3   6    2.38    2.00
 -13  -3   6   19.87    4.28
 -12  -3   6  136.86   10.61
 -11  -3   6   66.65    6.56
 -10  -3   6    3.85    1.93
  -9  -3   6   36.53    4.77
  -8  -3   6  321.70   19.39
  -7  -3   6  135.04    9.48
  -6  -3   6   32.74    3.87
  -6  -3   6   27.07    2.87
  -5  -3   6  178.58   11.53
  -5  -3   6  170.80   10.97
  -4  -3   6   37.05    3.57
  -4  -3   6   33.83    3.66
  -3  -3   6  498.55   26.93
  -3  -3   6  500.69   30.48
  -2  -3   6    8.16    2.23
  -2  -3   6    7.24    1.57
  -1  -3   6    0.83    0.88
  -1  -3   6    2.52    2.10
   0  -3   6    3.06    1.01
   0  -3   6    3.17    2.48
   1  -3   6   24.15    4.23
  -2   3  -6  169.50    9.41
   2  -3   6  178.29   13.45
  -3   3  -6  196.62   10.30
   3  -3   6  186.67   14.64
  -4   3  -6   45.06    3.86
   4  -3   6   55.15    6.73
  -5   3  -6  124.70    7.67
   5  -3   6  127.77   11.84
  -6   3  -6  187.13   10.71
   6  -3   6  186.66   15.71
  -7   3  -6  197.78   11.22
   7  -3   6  180.35   16.29
   8  -3   6   -2.12    4.20
  -8   3  -6    3.68    1.67
   9  -3   6   99.97   12.28
  -9   3  -6  103.05    7.62
 -10   3  -6  316.94   17.95
  10  -3   6  327.00   26.15
  11  -3   6   30.00    8.18
 -12   3  -6   86.13    8.42
 -13   3  -6   53.27    6.70
 -14   3  -6   53.19    7.07
 -15   3  -6   -0.92    2.35
 -16  -2   6   77.07    8.77
 -15  -2   6    9.38    3.05
 -14  -2   6    4.67    2.31
 -13  -2   6  150.38   10.93
 -12  -2   6   23.02    4.09
 -11  -2   6    0.11    1.19
 -10  -2   6   36.39    4.77
  -9  -2   6    4.36    1.85
  -8  -2   6  208.00   13.19
  -7  -2   6  189.19   12.20
  -7  -2   6  178.69   10.26
  -7  -2   6  171.87   11.43
  -6  -2   6   84.62    6.72
  -6  -2   6   91.57    7.00
  -6  -2   6  101.73    5.96
  -5  -2   6  243.42   14.02
  -5  -2   6  231.58   15.21
  -4  -2   6    1.83    1.30
  -4  -2   6    2.27    1.14
  -3  -2   6  212.27   13.77
  -3  -2   6  208.16   12.20
  -2  -2   6   11.04    2.26
  -1  -2   6  267.37   17.47
   0  -2   6   45.86    5.17
   1  -2   6   28.63    4.38
   2  -2   6    2.60    2.53
  -2   2  -6    1.27    1.06
   3  -2   6  146.31   12.35
  -3   2  -6  157.76    8.51
  -4   2  -6    2.03    1.06
  -4   2  -6    5.77    1.51
   4  -2   6    0.74    2.53
  -5   2  -6  736.10   39.81
  -5   2  -6  787.94   36.01
   5  -2   6  814.59   49.33
  -6   2  -6  657.65   31.96
   6  -2   6  727.06   44.28
  -6   2  -6  658.95   35.01
   7  -2   6  141.66   13.49
  -7   2  -6  139.94    8.93
   8  -2   6   84.12   10.70
  -8   2  -6   98.06    7.04
   9  -2   6   28.69    7.07
  -9   2  -6   22.28    3.79
  10  -2   6   27.18    7.25
 -10   2  -6   31.35    4.60
 -11   2  -6   17.39    3.59
 -12   2  -6   39.67    5.70
 -13   2  -6    6.69    2.82
 -14   2  -6   43.96    6.80
 -15   2  -6    4.68    2.99
 -16  -1   6   87.61    9.43
 -15  -1   6    6.42    2.55
 -14  -1   6   24.59    4.52
 -13  -1   6   52.13    6.37
 -12  -1   6   29.31    4.34
 -11  -1   6   38.15    4.85
 -10  -1   6   23.17    3.62
  -9  -1   6   10.22    2.48
   9   1  -6   10.39    3.56
  -8  -1   6   27.94    3.75
   8   1  -6   35.23    4.93
  -7  -1   6   87.80    6.56
   7   1  -6   84.88    7.90
  -6  -1   6    5.84    1.76
  -6  -1   6    7.11    1.43
  -6  -1   6    7.79    1.88
  -5  -1   6   44.32    4.11
  -5  -1   6   49.09    4.46
  -5  -1   6   49.82    3.73
  -4  -1   6   26.64    3.21
  -4  -1   6   30.71    2.75
  -3  -1   6  368.27   22.92
  -2  -1   6  111.59    8.21
  -1  -1   6   57.80    5.45
   0  -1   6  531.72   32.89
  -1   1  -6  190.44    9.92
   1  -1   6  191.43   13.77
   2  -1   6  256.23   18.04
  -2   1  -6  274.83   13.05
  -2   1  -6  255.03   14.58
  -3   1  -6    2.32    1.25
  -3   1  -6    1.76    1.03
   3  -1   6    2.09    2.56
  -4   1  -6    1.34    1.07
  -4   1  -6    0.96    1.07
   4  -1   6    0.08    2.27
  -5   1  -6  602.31   31.26
   5  -1   6  604.40   38.42
  -5   1  -6  574.02   28.15
   6  -1   6   79.72    8.88
  -6   1  -6   67.08    5.24
  -6   1  -6   76.01    5.61
  -7   1  -6   13.82    2.89
   7  -1   6    9.81    4.51
   8  -1   6   35.47    7.00
  -8   1  -6   25.31    3.91
  -9   1  -6   53.36    5.90
 -10   1  -6    4.68    2.24
 -11   1  -6   30.25    4.69
 -12   1  -6   22.88    4.10
 -13   1  -6    6.21    2.76
 -14   1  -6    4.69    3.09
 -16   0   6    3.35    2.12
 -15   0   6   -1.18    1.68
 -14   0   6    3.11    1.86
 -13   0   6   44.10    5.73
 -12   0   6   57.93    6.12
 -12   0   6   48.58    5.54
 -11   0   6    0.75    1.36
 -10   0   6   21.27    3.34
  10   0  -6   20.09    5.04
   9   0  -6   34.79    5.73
  -9   0   6   30.92    3.95
  -8   0   6   -0.70    0.91
   8   0  -6    2.97    3.07
  -7   0   6  242.33   14.19
   7   0  -6  232.39   17.04
   6   0  -6    0.52    1.03
  -4   0   6   87.75    5.98
  -4   0   6  101.59    7.29
  -3   0   6  189.87   10.55
  -3   0   6  179.63   12.33
  -2   0   6  469.31   28.91
  -1   0   6   83.77    6.90
   0   0  -6 6717.36  351.29
   0   0  -6 7193.74  302.51
   0   0   6 7042.36  405.71
  -1   0  -6 4060.16  208.45
   1   0   6 4212.78  241.13
  -1   0  -6 4120.68  179.52
  -2   0  -6    9.29    2.01
  -2   0  -6    7.21    1.60
   2   0   6    9.55    2.84
  -3   0  -6  137.64    7.87
  -3   0  -6  137.51    8.57
   3   0   6  139.10   11.12
  -4   0  -6  323.21   17.71
   4   0   6  304.59   21.62
  -4   0  -6  319.09   15.90
  -5   0  -6   76.06    5.86
  -5   0  -6   93.18    6.38
   5   0   6   95.42    9.06
  -6   0  -6    0.80    1.14
   6   0   6   -0.34    2.39
  -6   0  -6    3.28    1.50
   7   0   6   -1.23    1.13
  -7   0  -6    0.53    1.18
  -8   0  -6   -0.97    1.30
   8   0   6    2.00    3.94
  -9   0  -6    0.66    1.71
 -10   0  -6    4.33    2.37
 -11   0  -6    4.51    2.62
 -12   0  -6    2.69    2.59
 -13   0  -6    2.86    3.07
 -14   0  -6   -0.30    2.83
 -17   1   6    6.60    2.64
 -16   1   6    2.93    2.22
 -15   1   6    3.60    2.00
 -14   1   6    1.58    1.53
 -13   1   6   94.19    7.65
 -12   1   6   18.74    3.53
 -12   1   6   18.17    3.24
 -11   1   6    4.70    1.96
  11  -1  -6    6.56    5.12
 -10   1   6   74.55    6.26
  10  -1  -6   93.15   10.31
  -9   1   6    5.16    1.63
   9  -1  -6    6.56    3.86
   7  -1  -6 1307.10   79.37
   6  -1  -6    8.43    3.34
   5  -1  -6  213.71   15.63
  -3   1   6 1073.23   64.68
  -3   1   6 1102.77   54.97
  -2   1   6 1716.28  101.03
  -1   1   6 4749.46  280.56
   1  -1  -6 4896.60  243.58
   0  -1  -6 3642.09  159.35
   0   1   6 3700.96  214.09
   0  -1  -6 3659.84  185.53
  -1  -1  -6   43.94    4.11
   1   1   6   46.06    5.02
  -1  -1  -6   43.59    3.29
  -2  -1  -6  135.80    8.45
   2   1   6  129.60   10.09
  -2  -1  -6  120.43    7.14
  -3  -1  -6  157.61    8.90
   3   1   6  157.78   12.25
  -3  -1  -6  172.04   10.37
  -4  -1  -6    3.33    1.34
  -4  -1  -6    1.36    1.37
   4   1   6   -0.60    1.47
  -5  -1  -6   26.24    3.33
  -5  -1  -6   21.97    3.21
  -6  -1  -6   -1.89    1.34
  -6  -1  -6    1.35    1.31
   6   1   6   -2.04    2.90
   7   1   6    2.84    3.54
  -7  -1  -6    3.78    1.89
  -7  -1  -6    0.78    1.48
  -8  -1  -6   -0.58    1.32
  -9  -1  -6   20.10    3.85
 -10  -1  -6   16.32    3.71
 -11  -1  -6   10.69    3.33
 -12  -1  -6   10.16    3.43
 -13  -1  -6   -1.10    2.55
 -17   2   6    5.13    2.38
 -16   2   6    4.08    2.31
 -15   2   6    4.16    2.27
 -14   2   6    2.50    1.86
 -13   2   6    6.44    2.18
 -12   2   6    3.45    1.54
 -12   2   6    0.38    1.25
  12  -2  -6    3.34    4.47
 -11   2   6   26.66    3.85
 -11   2   6   34.92    4.00
 -10   2   6    8.24    2.12
  10  -2  -6    9.51    4.94
   9  -2  -6   26.48    6.15
   8  -2  -6  517.68   34.83
   7  -2  -6  150.10   13.30
   6  -2  -6   20.20    4.58
   5  -2  -6  203.63   15.47
   4  -2  -6   13.94    3.85
  -3   2   6  203.31   13.86
  -3   2   6  206.51   11.73
   2  -2  -6 9953.27  496.72
  -2   2   6 9678.17  572.63
  -2   2   6 9999.50  485.98
  -1   2   6 1992.68  116.94
   1  -2  -6 1984.64  101.73
   0   2   6  266.53   17.60
   0  -2  -6  256.00   12.71
   0  -2  -6  284.69   15.69
  -1  -2  -6   28.72    3.52
   1   2   6   34.68    4.11
  -1  -2  -6   27.62    2.65
  -2  -2  -6   21.57    3.14
  -2  -2  -6   21.78    2.50
   2   2   6   23.47    3.57
  -3  -2  -6  122.54    8.50
  -3  -2  -6  118.43    7.21
   4   2   6   97.13    8.76
  -4  -2  -6  102.01    6.40
  -4  -2  -6   85.13    6.91
  -5  -2  -6   38.79    4.13
  -5  -2  -6   39.30    4.37
   5   2   6   41.09    5.98
  -6  -2  -6   31.40    3.88
  -6  -2  -6   24.52    3.62
   6   2   6   16.13    4.67
  -7  -2  -6   10.69    2.68
  -7  -2  -6    7.44    2.52
  -8  -2  -6    3.64    2.07
  -9  -2  -6   89.66    7.55
 -10  -2  -6   43.14    5.88
 -11  -2  -6    2.21    2.30
 -12  -2  -6    6.83    3.35
 -13  -2  -6    0.35    2.64
 -18   3   6    2.94    2.27
 -17   3   6   -2.54    2.14
 -16   3   6   13.32    3.03
 -15   3   6    5.07    2.05
 -14   3   6   10.58    2.87
 -13   3   6   21.28    3.41
 -12   3   6    5.41    1.84
  12  -3  -6    3.36    5.13
 -11   3   6    4.06    1.71
  11  -3  -6    1.04    4.34
 -11   3   6    2.27    1.40
  10  -3  -6   58.62    8.99
   9  -3  -6   43.68    7.63
   8  -3  -6  558.68   37.56
   7  -3  -6  105.87   10.88
   6  -3  -6   88.19    9.67
   5  -3  -6  320.33   22.61
   4  -3  -6  881.03   47.16
   4  -3  -6  883.38   54.83
   3  -3  -6   94.43    9.09
   3  -3  -6   96.26    7.53
  -2   3   6 1054.82   62.63
  -2   3   6 1049.75   53.16
   2  -3  -6 1037.10   54.89
   1  -3  -6   63.90    3.75
   1  -3  -6   66.03    5.55
  -1   3   6   57.59    5.55
   0   3   6  423.48   26.87
   0  -3  -6  435.73   24.06
  -1  -3  -6    7.20    2.26
  -1  -3  -6    7.81    1.50
   1   3   6    5.67    2.10
  -2  -3  -6  146.30    9.61
  -2  -3  -6  125.81    7.52
  -3  -3  -6    2.73    1.81
  -3  -3  -6    0.61    0.98
   3   3   6    1.73    2.03
  -4  -3  -6    0.11    1.47
  -4  -3  -6    2.11    1.26
   4   3   6    0.12    2.61
  -5  -3  -6   49.84    4.83
  -5  -3  -6   53.67    5.58
   5   3   6   54.76    6.70
  -6  -3  -6    2.26    1.63
  -6  -3  -6    1.69    1.96
  -7  -3  -6   66.31    6.54
  -7  -3  -6   62.16    6.18
  -8  -3  -6   17.98    3.72
  -9  -3  -6   13.70    3.50
 -10  -3  -6   24.81    4.58
 -11  -3  -6   -2.12    1.77
 -12  -3  -6   -4.41    2.27
 -13  -3  -6    0.18    3.45
 -18   4   6   -2.78    2.04
 -17   4   6   33.71    5.11
 -16   4   6   25.05    4.31
 -15   4   6    0.79    1.90
 -14   4   6    6.77    2.36
 -13   4   6    5.78    1.88
  13  -4  -6    4.22    5.41
  12  -4  -6   24.72    7.57
 -12   4   6   25.59    3.51
 -11   4   6   27.86    3.56
  10  -4  -6  188.97   17.60
 -10   4   6  202.01   10.94
   9  -4  -6   60.15    9.02
   8  -4  -6  112.96   12.00
   7  -4  -6   61.16    8.56
   6  -4  -6  261.48   20.18
   5  -4  -6  356.83   21.02
   5  -4  -6  347.54   24.91
   4  -4  -6    6.46    3.64
   4  -4  -6    4.29    2.39
   3  -4  -6    6.64    3.59
   3  -4  -6    6.95    2.38
   2  -4  -6  159.22    7.42
   2  -4  -6  146.04   10.18
  -2   4   6  156.83    9.35
  -2   4   6  141.28   10.80
  -1   4   6  423.62   22.53
   1  -4  -6  431.42   19.21
   1  -4  -6  410.60   23.82
  -1   4   6  415.76   26.51
   0  -4  -6   22.51    2.21
   0   4   6   27.14    3.58
   0  -4  -6   30.72    4.06
  -1  -4  -6   50.71    5.38
  -1  -4  -6   48.87    3.60
  -2  -4  -6    4.75    2.14
   2   4   6    7.31    2.28
  -2  -4  -6    6.59    1.62
  -3  -4  -6    0.42    1.54
  -3  -4  -6    2.64    1.21
   3   4   6   -1.61    1.70
  -4  -4  -6    4.50    2.21
   4   4   6    1.67    2.80
  -4  -4  -6    1.95    1.40
  -5  -4  -6   23.90    3.48
  -5  -4  -6   22.32    4.10
  -6  -4  -6   38.77    5.20
  -6  -4  -6   40.86    4.82
  -7  -4  -6   44.87    5.32
  -7  -4  -6   40.50    5.62
  -8  -4  -6   38.30    5.21
  -9  -4  -6   74.64    7.60
 -10  -4  -6    8.95    3.03
 -11  -4  -6    8.24    3.18
 -12  -4  -6   -0.24    2.83
 -18   5   6   14.28    3.27
 -17   5   6   68.30    7.61
 -16   5   6   48.26    6.04
 -15   5   6   55.49    6.14
  14  -5  -6  154.28   17.90
 -14   5   6  173.88   10.84
 -13   5   6   55.76    5.50
  13  -5  -6   51.08   10.44
 -12   5   6   89.51    6.53
  12  -5  -6  109.50   13.75
 -11   5   6  153.43    9.33
  11  -5  -6  181.95   17.36
 -10   5   6  434.54   21.36
  10  -5  -6  459.95   33.19
   9  -5  -6   -3.51    4.01
  -9   5   6   -0.05    0.83
   8  -5  -6   54.47    8.50
  -8   5   6   48.17    3.46
   7  -5  -6  292.23   22.63
   6  -5  -6   81.68    7.73
   6  -5  -6   90.92   10.40
   5  -5  -6    1.24    1.84
   5  -5  -6    4.51    3.71
   4  -5  -6   29.77    5.76
   4  -5  -6   20.54    3.61
   3  -5  -6   18.58    4.83
   3  -5  -6   21.58    3.66
   2  -5  -6   21.87    1.74
  -2   5   6   20.86    3.40
   2  -5  -6   17.39    3.33
  -2   5   6   22.31    2.94
   1  -5  -6   86.59    5.22
   1  -5  -6   96.96    7.92
  -1   5   6  102.69    6.77
  -1   5   6  115.24    8.23
   0  -5  -6    0.79    1.56
   0   5   6   -0.02    1.24
   0  -5  -6    2.56    0.92
   1   5   6   13.18    2.87
  -1  -5  -6    7.50    2.69
  -2  -5  -6   44.94    5.38
  -2  -5  -6   49.76    3.91
   2   5   6   45.94    5.24
   3   5   6   28.51    4.24
  -3  -5  -6   31.17    4.59
  -3  -5  -6   30.02    3.45
  -4  -5  -6   75.86    5.74
  -4  -5  -6   73.62    7.17
  -5  -5  -6   33.38    4.11
  -5  -5  -6   26.69    4.80
  -6  -5  -6    7.79    3.19
  -6  -5  -6   12.67    2.87
  -7  -5  -6   53.30    6.78
  -7  -5  -6   79.23    7.04
  -8  -5  -6   41.77    5.71
  -9  -5  -6   70.37    7.56
 -10  -5  -6    1.67    2.42
 -11  -5  -6   20.82    4.71
 -12  -5  -6    4.67    4.54
 -18   6   6   46.47    6.17
 -17   6   6   16.17    3.41
 -16   6   6    0.11    1.66
  15  -6  -6  122.63   16.18
 -15   6   6  112.90    8.41
  14  -6  -6   79.50   12.99
 -14   6   6   92.98    6.89
  13  -6  -6   76.97   12.66
 -13   6   6   66.69    5.55
 -12   6   6   35.49    3.99
  12  -6  -6   31.10    8.95
  11  -6  -6  179.50   18.59
 -11   6   6  182.08   10.17
  10  -6  -6  243.47   22.45
 -10   6   6  269.19   13.36
   9  -6  -6    7.68    5.56
  -9   6   6    8.08    1.56
  -8   6   6    0.10    0.56
   8  -6  -6    1.16    3.91
  -7   6   6   64.02    3.64
   7  -6  -6   49.02    6.32
   7  -6  -6   77.82    9.99
   6  -6  -6    0.96    1.92
   6  -6  -6    1.05    3.81
  -6   6   6    0.50    0.39
   5  -6  -6  347.15   26.62
   5  -6  -6  387.84   22.04
   4  -6  -6    0.37    1.69
   4  -6  -6   -1.63    3.05
   3  -6  -6   77.62    7.23
   3  -6  -6  105.20   10.21
  -2   6   6   21.28    3.34
   2  -6  -6   20.35    3.85
   2  -6  -6   16.68    1.53
  -2   6   6   24.02    2.95
   1  -6  -6    1.86    0.76
  -1   6   6    2.91    1.83
   1  -6  -6    2.41    2.12
  -1   6   6    3.69    1.54
   0  -6  -6  110.00    9.02
   0  -6  -6  111.59    6.28
  -1  -6  -6   81.97    7.61
   1   6   6   88.76    7.51
  -2  -6  -6   43.65    5.71
  -2  -6  -6   51.17    4.10
   2   6   6   52.27    5.46
  -3  -6  -6  142.97   11.26
  -3  -6  -6  157.25    9.04
  -4  -6  -6   22.09    4.48
  -4  -6  -6   27.99    3.66
  -5  -6  -6    1.72    2.26
  -5  -6  -6    4.25    1.66
  -6  -6  -6   63.54    7.28
  -6  -6  -6   60.45    6.16
  -7  -6  -6  167.91   13.33
  -7  -6  -6  185.67   11.80
  -8  -6  -6   55.95    6.72
  -9  -6  -6   10.41    3.09
 -10  -6  -6   31.25    5.67
 -11  -6  -6   17.85    5.01
  16  -7  -6   20.69    8.78
 -15   7   6   66.70    6.36
  15  -7  -6   64.31   13.23
  14  -7  -6  216.55   22.62
 -14   7   6  234.21   13.13
  13  -7  -6   49.10   10.74
 -13   7   6   38.13    4.25
 -12   7   6   10.94    2.21
  12  -7  -6    1.36    6.26
  11  -7  -6   78.18   12.36
 -11   7   6   80.40    5.48
  10  -7  -6   68.93   11.31
 -10   7   6   58.84    4.30
  -9   7   6   10.69    1.60
   9  -7  -6    8.00    5.92
   8  -7  -6  130.40   14.34
   8  -7  -6  126.48   10.90
  -8   7   6  142.57    7.05
  -7   7   6    0.00    0.43
   7  -7  -6    0.40    1.88
   7  -7  -6    1.82    4.36
   6  -7  -6   74.93   10.40
   6  -7  -6   79.30    7.29
   5  -7  -6   16.36    3.62
   5  -7  -6   17.55    5.82
   4  -7  -6   -1.04    1.35
   4  -7  -6    2.31    4.01
   3  -7  -6    3.00    3.95
   3  -7  -6    4.73    2.40
  -2   7   6   10.39    2.73
   2  -7  -6   11.91    1.34
   2  -7  -6    9.73    3.09
  -2   7   6   15.23    2.64
   1  -7  -6  166.94   12.65
  -1   7   6  185.15   13.00
   1  -7  -6  168.87    8.99
  -1   7   6  196.88   11.14
   0  -7  -6   10.82    3.44
   0   7   6    9.00    2.62
   0  -7  -6    7.64    1.55
   1   7   6    7.61    2.51
  -1  -7  -6    7.73    1.58
  -1  -7  -6    4.57    2.64
  -2  -7  -6    2.60    2.30
  -2  -7  -6    0.89    1.05
   2   7   6   -2.11    1.52
  -3  -7  -6  198.73   11.39
  -3  -7  -6  207.90   14.56
  -4  -7  -6   20.46    4.73
  -4  -7  -6   23.19    3.52
  -5  -7  -6    8.17    3.38
  -5  -7  -6    3.97    1.87
  -6  -7  -6    0.57    2.12
  -6  -7  -6    3.09    1.76
  -7  -7  -6   34.95    5.27
  -8  -7  -6    4.30    2.22
  -9  -7  -6   13.60    3.65
 -10  -7  -6    2.31    3.02
  17  -8  -6   11.28    7.23
  16  -8  -6   52.41   12.57
  15  -8  -6   10.95    8.36
  14  -8  -6  169.99   19.58
  13  -8  -6   32.60    9.75
  12  -8  -6   45.01   10.67
  11  -8  -6   17.18    7.85
  10  -8  -6    3.11    5.70
   9  -8  -6   67.36   11.11
   8  -8  -6  621.13   43.46
   8  -8  -6  625.46   35.78
   7  -8  -6   12.26    5.96
   7  -8  -6   11.60    3.54
   6  -8  -6    1.59    2.16
   6  -8  -6   -2.74    3.64
   5  -8  -6   35.94    7.73
   5  -8  -6   39.38    5.37
   4  -8  -6  639.74   36.14
   3  -8  -6  303.12   19.48
   2  -8  -6  738.22   33.67
  -2   8   6  763.25   46.47
  -2   8   6  784.85   39.47
   2  -8  -6  736.53   42.28
   0   8   6   46.91    5.31
   0  -8  -6   47.46    6.37
   0  -8  -6   50.94    3.76
  -1  -8  -6    4.35    2.67
   1   8   6    4.33    2.17
  -1  -8  -6    5.69    1.52
  -2  -8  -6  213.39   11.67
  -3  -8  -6  260.10   17.77
  -3  -8  -6  254.72   14.00
  -4  -8  -6    2.24    2.37
  -4  -8  -6    1.79    1.73
  -5  -8  -6    3.18    1.69
  -5  -8  -6    7.67    3.41
  -6  -8  -6   30.77    4.75
  -6  -8  -6   37.41    6.32
  -7  -8  -6    3.83    2.32
  -7  -8  -6    3.13    2.84
  -8  -8  -6    4.63    2.23
  -9  -8  -6    0.79    2.72
 -10  -8  -6    2.11    3.85
  17  -9  -6    4.63    7.10
  16  -9  -6   28.68   10.68
  15  -9  -6    5.99    7.07
  14  -9  -6   42.04   11.26
  13  -9  -6   95.69   15.01
  12  -9  -6  104.83   15.16
  11  -9  -6   31.78    9.88
  10  -9  -6    9.98    6.99
   9  -9  -6   -7.36    4.12
   9  -9  -6    0.10    2.30
   8  -9  -6    4.47    5.68
   8  -9  -6   19.95    4.60
   7  -9  -6   16.30    4.15
   7  -9  -6   11.88    6.86
   6  -9  -6   92.22    8.13
   6  -9  -6   62.63   11.00
   5  -9  -6  283.78   18.16
   5  -9  -6  261.83   22.56
   4  -9  -6   46.94    6.26
   3  -9  -6   54.32    7.05
  -2   9   6  500.94   30.64
   2  -9  -6  446.02   28.62
  -2   9   6  479.29   25.84
   1  -9  -6  179.47   13.29
  -1   9   6  159.05   12.25
   0  -9  -6    0.22    0.97
   0   9   6    4.21    2.38
   0  -9  -6    3.32    2.89
  -1  -9  -6  303.55   15.41
  -1  -9  -6  300.25   20.12
  -3  -9  -6   28.78    5.70
  -3  -9  -6   31.26    3.97
  -4  -9  -6  106.78    7.71
  -4  -9  -6  100.65    9.93
  -5  -9  -6   62.69    6.27
  -5  -9  -6   53.22    7.58
  -6  -9  -6   33.90    5.01
  -6  -9  -6   29.14    5.90
  -7  -9  -6    0.60    2.64
  -7  -9  -6   -0.92    1.74
  -8  -9  -6    3.50    2.40
  -9  -9  -6    6.65    3.01
  18 -10  -6    8.67    9.18
  17 -10  -6   12.49    8.69
  16 -10  -6    9.24    7.76
  15 -10  -6    7.85    7.51
  14 -10  -6   27.09    9.99
  13 -10  -6   40.78   11.53
  12 -10  -6   -3.96    5.41
  11 -10  -6    6.04    7.15
  10 -10  -6    8.85    7.08
  10 -10  -6   13.84    4.68
   9 -10  -6  147.83   16.72
   9 -10  -6  140.44   11.90
   8 -10  -6   88.50    8.90
   8 -10  -6  118.48   14.59
   7 -10  -6   95.57   13.49
   7 -10  -6  110.67    9.67
   6 -10  -6  633.77   33.13
   6 -10  -6  469.92   39.00
   5 -10  -6  774.48   44.36
   5 -10  -6  805.74   52.78
   4 -10  -6    2.08    2.60
   4 -10  -6    3.01    5.14
   3 -10  -6  268.63   18.65
   2 -10  -6  404.89   23.12
  -2  10   6  343.93   18.99
  -2  10   6  295.49   22.07
   1 -10  -6   83.29    9.15
  -1  10   6   79.53    6.15
  -1  10   6   74.34    7.28
   0 -10  -6   15.36    4.60
  -1 -10  -6   89.50    9.64
  -2 -10  -6    8.14    3.43
  -3 -10  -6   40.50    6.75
  -4 -10  -6   46.32    7.46
  -5 -10  -6   47.96    7.53
  -6 -10  -6   18.44    4.76
  -7 -10  -6    8.58    3.83
  19 -11  -6    0.53   10.78
  18 -11  -6    6.26    9.45
  17 -11  -6   -0.72    6.67
  16 -11  -6    4.39    7.52
  15 -11  -6   27.95   10.46
  14 -11  -6    7.85    8.59
  13 -11  -6   -0.85    5.77
  12 -11  -6   -0.05    6.07
  11 -11  -6   27.78   10.22
  11 -11  -6   31.52    6.21
  10 -11  -6   18.48    5.11
  10 -11  -6   22.54    8.87
   9 -11  -6   18.69    8.28
   9 -11  -6   15.20    4.47
   8 -11  -6   38.96   10.05
   8 -11  -6   44.32    6.53
   7 -11  -6  330.01   21.12
   7 -11  -6  312.93   27.09
   6 -11  -6  309.37   19.46
   6 -11  -6  244.42   23.35
   5 -11  -6  224.82   19.28
   5 -11  -6  188.52   15.04
   4 -11  -6   30.13    7.76
   4 -11  -6   26.07    5.83
   3 -11  -6   51.56    7.62
   1 -11  -6   15.73    4.85
   0 -11  -6  104.75   10.32
  -1 -11  -6   77.62    9.25
  -2 -11  -6    1.59    2.30
  -3 -11  -6   21.13    5.28
  -4 -11  -6    2.52    2.60
  -5 -11  -6   37.28    6.80
  -6 -11  -6    9.97    3.91
  -7 -11  -6    5.00    3.23
  19 -12  -6    9.48   11.60
  18 -12  -6   -1.46    8.70
  17 -12  -6   -6.57    7.38
  16 -12  -6    6.29    8.09
  15 -12  -6   22.63    9.65
  14 -12  -6   10.47    8.44
  13 -12  -6   -0.13    6.71
  12 -12  -6   96.06   15.97
  11 -12  -6  168.65   19.32
  11 -12  -6  163.29   13.72
  10 -12  -6    0.54    5.51
  10 -12  -6   -0.70    2.38
   9 -12  -6    2.82    2.85
   9 -12  -6   -3.54    4.92
   8 -12  -6   42.27    6.49
   8 -12  -6   43.76   10.30
   7 -12  -6  277.62   19.24
   7 -12  -6  279.34   25.11
   6 -12  -6   19.25    4.83
   6 -12  -6   29.77    8.44
   5 -12  -6   34.51    8.24
   5 -12  -6   23.06    5.50
   4 -12  -6  150.50   13.23
   3 -12  -6  120.86   11.58
   2 -12  -6    0.43    2.69
   1 -12  -6    3.47    3.05
   0 -12  -6  106.97   11.35
  -1 -12  -6    2.49    2.52
  -2 -12  -6   14.58    4.32
  -3 -12  -6    2.91    2.63
  -4 -12  -6   22.53    5.67
  -5 -12  -6    4.36    2.81
  -6 -12  -6    1.20    2.84
  18 -13  -6   13.27   11.74
  17 -13  -6   -1.20    8.64
  16 -13  -6    6.72    8.14
  15 -13  -6    3.59    7.92
  14 -13  -6   31.80   11.28
  13 -13  -6   13.97    8.83
  12 -13  -6  203.03   22.26
  11 -13  -6   24.89    5.95
  11 -13  -6   21.68    8.86
  10 -13  -6    6.01    6.15
  10 -13  -6    5.98    3.54
   9 -13  -6   -0.68    5.41
   9 -13  -6    8.40    3.74
   8 -13  -6  183.47   14.78
   8 -13  -6  209.36   20.91
   7 -13  -6    2.00    5.10
   7 -13  -6    5.85    3.44
   6 -13  -6   76.37   11.70
   6 -13  -6   78.19    9.13
   5 -13  -6  232.51   18.49
   5 -13  -6  286.68   22.81
   4 -13  -6  474.38   31.85
   4 -13  -6  367.37   27.09
   3 -13  -6   65.01    9.05
   2 -13  -6   37.44    7.50
   1 -13  -6    3.69    2.98
   0 -13  -6   17.04    5.31
  -1 -13  -6    1.73    2.75
  -2 -13  -6    5.92    3.44
  -3 -13  -6   15.61    4.97
  -4 -13  -6   10.65    4.28
  -5 -13  -6    2.67    3.16
  17 -14  -6    2.14    6.60
  16 -14  -6   -0.08    7.74
  15 -14  -6    9.98    8.54
  14 -14  -6   11.81    8.68
  13 -14  -6   24.60    9.78
  12 -14  -6   71.65   14.22
  11 -14  -6   61.69    8.72
  11 -14  -6   52.84   12.80
  10 -14  -6    4.02    5.64
  10 -14  -6   -0.59    2.75
   9 -14  -6  142.18   12.54
   9 -14  -6  131.71   17.63
   8 -14  -6   64.43    8.42
   8 -14  -6   61.39   12.16
   7 -14  -6   40.45    9.60
   7 -14  -6   37.80    6.83
   6 -14  -6   14.62    4.88
   6 -14  -6   10.16    5.96
   5 -14  -6  162.46   14.96
   5 -14  -6  207.82   18.47
   4 -14  -6    7.43    3.99
   3 -14  -6    9.32    4.54
   2 -14  -6   11.43    5.10
   1 -14  -6    2.22    2.88
   0 -14  -6   -0.96    2.34
  -1 -14  -6    4.40    3.21
  -2 -14  -6   20.67    5.59
  -3 -14  -6    4.79    3.82
  -4 -14  -6    5.29    3.89
  17 -15  -6    0.11    6.09
  16 -15  -6   -3.73    5.15
  15 -15  -6   -6.50    6.80
  14 -15  -6   -5.21    6.22
  13 -15  -6   72.54   15.20
  12 -15  -6   15.10    8.85
  11 -15  -6    2.64    5.85
  11 -15  -6   -1.11    2.55
  10 -15  -6   81.12    9.97
  10 -15  -6  103.55   15.80
   9 -15  -6  159.63   14.03
   9 -15  -6  171.12   20.37
   8 -15  -6   18.93    5.61
   8 -15  -6   29.41    9.36
   7 -15  -6    7.33    3.70
   7 -15  -6    4.27    5.12
   6 -15  -6    5.78    4.90
   6 -15  -6   14.34    5.24
   5 -15  -6   31.10    7.14
   4 -15  -6    6.98    3.92
   3 -15  -6   14.28    5.46
   2 -15  -6   -0.49    3.06
   1 -15  -6    2.68    3.45
   0 -15  -6    3.90    3.28
  -1 -15  -6   50.11    8.93
  -2 -15  -6   23.31    6.16
  16 -16  -6    5.01    7.47
  15 -16  -6    2.59    7.72
  14 -16  -6   11.66    8.52
  13 -16  -6   68.87   15.22
  12 -16  -6   23.72    9.56
  11 -16  -6    4.49    6.28
  11 -16  -6    4.25    3.77
  10 -16  -6   85.61   15.23
  10 -16  -6   87.06   10.50
   9 -16  -6    6.62    6.27
   9 -16  -6    2.53    2.82
   8 -16  -6   18.79    5.35
   8 -16  -6   25.17    8.41
   7 -16  -6   -3.28    4.12
   7 -16  -6   -1.47    2.27
   6 -16  -6   10.70    4.80
   5 -16  -6    1.12    3.26
   4 -16  -6    8.49    4.77
   3 -16  -6   -3.03    2.79
   2 -16  -6    4.56    4.50
   1 -16  -6    2.44    2.57
   0 -16  -6   -0.52    2.14
  15 -17  -6    4.83    6.40
  14 -17  -6    4.43    7.52
  13 -17  -6   -2.18    7.46
  12 -17  -6   15.45    8.11
  11 -17  -6    4.05    6.34
  10 -17  -6   10.23    4.30
  10 -17  -6   13.72    7.30
   9 -17  -6    3.45    5.55
   9 -17  -6    5.13    3.39
   8 -17  -6    1.55    3.00
   8 -17  -6    3.78    5.38
   7 -17  -6    8.06    4.65
   6 -17  -6   -5.88    2.30
   5 -17  -6    1.87    3.62
   4 -17  -6    4.31    4.16
   3 -17  -6   -1.54    2.97
   2 -17  -6    0.40    2.97
   1 -17  -6    5.18    3.42
  14 -18  -6   14.87    8.00
  13 -18  -6   10.29    8.08
  12 -18  -6    4.52    6.91
  11 -18  -6   16.30    8.02
  10 -18  -6   14.17    7.68
  10 -18  -6    7.16    4.23
   9 -18  -6   -1.03    2.93
   9 -18  -6    0.39    4.55
   8 -18  -6   24.94    6.37
   7 -18  -6   21.00    6.69
   6 -18  -6    1.09    3.76
   5 -18  -6    1.35    2.67
   4 -18  -6    3.09    3.90
  12 -19  -6   21.59    8.60
  11 -19  -6    1.22    5.11
  10 -19  -6   18.09    7.21
  10 -19  -6    4.66    4.56
   9 -19  -6   18.68    6.16
   8 -19  -6  106.79   13.31
   7 -19  -6   10.38    6.00
   6 -19  -6   -1.99    3.68
  11 -20  -6    4.11    4.07
  10 -20  -6   15.16    6.61
   9 -20  -6   98.34   13.44
   3 -20   7    6.31    5.03
   4 -20   7    9.58    5.56
   9 -20   7   -0.63    5.33
  10 -20   7   12.94    7.28
   1 -19   7    5.89    5.38
   2 -19   7   -3.28    3.12
   3 -19   7    4.95    4.27
   4 -19   7   29.04    6.84
   5 -19   7   -0.98    2.64
   8 -19   7    2.42    6.03
   9 -19   7   -1.12    5.07
  10 -19   7   -1.10    5.70
  11 -19   7    1.96    5.62
  12 -19   7    9.68    7.06
  -1 -18   7   -1.37    3.01
   0 -18   7    2.22    3.29
   1 -18   7   -2.15    2.96
   2 -18   7   -1.62    3.03
   3 -18   7   34.39    6.68
   4 -18   7    0.80    2.48
   5 -18   7   14.61    4.72
   7 -18   7    4.85    5.92
   8 -18   7    5.12    6.38
   9 -18   7   59.96   12.66
  10 -18   7   19.77    8.26
  11 -18   7   35.35   10.98
  12 -18   7    5.10    7.22
  -2 -17   7   -1.23    2.91
  -1 -17   7    0.93    3.09
   0 -17   7    0.23    3.21
   1 -17   7    1.96    3.14
   2 -17   7   -0.60    2.12
   3 -17   7   11.11    4.25
   4 -17   7   10.33    3.84
   5 -17   7    4.37    2.78
   6 -17   7   -1.14    5.31
   7 -17   7   20.91    8.57
   8 -17   7   -2.97    5.31
   9 -17   7   14.18    7.81
  10 -17   7   35.91   10.29
  11 -17   7   -9.24    4.94
  12 -17   7   -1.49    6.38
  13 -17   7    7.05    7.30
  -4 -16   7    0.18    3.39
  -3 -16   7    1.56    2.58
  -2 -16   7    6.98    3.86
  -1 -16   7   37.60    7.04
   0 -16   7    7.63    3.85
   1 -16   7   -0.18    2.23
   2 -16   7   -0.60    1.87
   3 -16   7   11.47    4.14
   4 -16   7   15.57    4.51
   5 -16   7   49.28    6.94
   5 -16   7   73.08   12.44
   6 -16   7   45.60   11.00
   7 -16   7    2.13    6.09
   8 -16   7    4.14    6.09
   9 -16   7   20.71    8.76
  10 -16   7    9.58    7.70
  11 -16   7   19.39    9.58
  12 -16   7   18.74    9.29
  13 -16   7   16.70    9.67
  14 -16   7   -5.93    6.51
  -5 -15   7    1.86    2.86
  -4 -15   7    1.04    2.69
  -3 -15   7   -1.21    2.63
  -2 -15   7   14.70    4.95
  -1 -15   7   -3.51    2.08
   0 -15   7    2.04    2.50
   1 -15   7    5.05    3.06
   2 -15   7    0.98    2.23
   3 -15   7   -0.35    2.39
   4 -15   7   34.72    5.58
   4 -15   7   34.87    9.24
   5 -15   7  161.25   17.69
   5 -15   7  154.99   12.15
   6 -15   7    6.92    6.66
   7 -15   7    9.66    6.48
   8 -15   7   27.64    9.70
   9 -15   7   23.50    8.96
  10 -15   7    4.81    6.53
  11 -15   7   57.52   13.36
  12 -15   7  112.32   18.23
  13 -15   7   -1.37    8.99
  14 -15   7   -3.68    6.48
  15 -15   7   -3.09    7.14
  -7 -14   7    7.98    3.62
  -6 -14   7    6.97    3.33
  -5 -14   7    1.23    2.66
  -4 -14   7    6.78    3.48
  -3 -14   7    1.32    2.65
  -2 -14   7   -0.34    2.14
  -1 -14   7    6.06    3.28
   0 -14   7  102.44    9.80
   1 -14   7   73.42    8.26
   2 -14   7  109.90    9.67
   3 -14   7   32.52    8.47
   3 -14   7   29.50    5.06
   4 -14   7  116.38   10.01
   4 -14   7  138.18   15.26
   5 -14   7   18.90    4.01
   5 -14   7   31.91    9.13
   6 -14   7   32.48    9.34
   7 -14   7   20.73    8.36
   8 -14   7  256.99   24.30
   9 -14   7   -1.41    6.00
  10 -14   7   13.58    8.04
  11 -14   7   10.44    8.01
  12 -14   7    8.88    7.66
  13 -14   7   -8.03    8.17
  14 -14   7    1.12    8.72
  15 -14   7    5.46    8.08
  -8 -13   7    4.15    3.03
  -7 -13   7   -5.73    1.76
  -6 -13   7   10.78    3.44
  -5 -13   7   -0.49    2.20
  -4 -13   7   -0.06    2.07
  -3 -13   7    7.36    3.12
  -2 -13   7   27.44    5.43
  -1 -13   7  107.32    9.62
   0 -13   7   48.54    6.50
   1 -13   7   20.02    4.37
   2 -13   7   39.05    8.71
   2 -13   7   49.11    6.26
   3 -13   7   -0.74    5.25
   3 -13   7    0.68    1.70
   4 -13   7    5.86    2.54
   4 -13   7    5.16    5.71
   5 -13   7   38.49    9.44
   6 -13   7   19.53    8.20
   7 -13   7   98.39   14.24
   8 -13   7  193.26   20.26
   9 -13   7   10.46    7.08
  10 -13   7    9.09    7.20
  11 -13   7    5.05    6.96
  12 -13   7    1.16    7.51
  13 -13   7    8.81    9.52
  14 -13   7    3.70    9.71
  15 -13   7   -1.10    6.48
  16 -13   7    6.99   12.12
  -9 -12   7    6.95    3.25
  -8 -12   7   -3.15    1.97
  -7 -12   7   -1.15    2.16
  -6 -12   7    0.38    2.09
  -5 -12   7   17.16    4.57
  -4 -12   7   20.79    4.71
  -3 -12   7   26.36    5.27
  -2 -12   7   12.04    3.69
  -1 -12   7    9.53    3.36
   0 -12   7   15.04    3.79
   1 -12   7   13.54    3.41
   1 -12   7    8.45    5.98
   2 -12   7   38.18    8.40
   2 -12   7   26.11    4.52
   3 -12   7  135.06   14.41
   3 -12   7  122.95    9.76
   4 -12   7    8.09    2.51
   4 -12   7    9.00    5.82
   5 -12   7    9.21    5.96
   6 -12   7   26.12    8.04
   7 -12   7   76.14   12.20
   8 -12   7   87.47   13.24
   9 -12   7   -0.81    5.74
  10 -12   7    4.85    6.41
  11 -12   7    0.97    7.59
 -12  12  -7   78.61    8.04
  12 -12   7   93.74   16.46
  13 -12   7   20.26   10.40
 -13  12  -7   15.24    4.10
 -14  12  -7   65.02    8.05
  14 -12   7   66.73   16.03
  15 -12   7   -0.98    7.76
  16 -12   7  -18.68    8.08
 -10 -11   7   20.04    5.23
  -9 -11   7    3.94    2.86
  -8 -11   7    1.49    2.45
  -7 -11   7   13.48    3.88
  -6 -11   7   31.62    5.66
  -5 -11   7   86.72    8.43
  -4 -11   7    6.04    2.75
  -3 -11   7    0.98    1.96
  -2 -11   7   23.46    4.60
  -1 -11   7   12.28    3.43
   0 -11   7   35.11    5.04
   0 -11   7   29.33    6.86
   1 -11   7   88.56   10.72
   1 -11   7   90.78    7.76
   2 -11   7  485.14   30.83
   2 -11   7  380.22   24.29
   3 -11   7   57.76    5.54
   3 -11   7   59.94    9.27
   4 -11   7   24.25    7.13
   4 -11   7   22.57    3.45
   5 -11   7   -1.97    4.01
   5 -11   7    1.64    1.31
   6 -11   7    9.31    6.03
   7 -11   7  137.44   15.39
   8 -11   7  125.74   15.55
   9 -11   7   12.80    6.95
 -10  11  -7   21.31    4.01
  10 -11   7   15.93    8.29
 -11  11  -7   55.61    6.60
  11 -11   7   37.07   11.89
 -12  11  -7    3.72    2.67
  12 -11   7    9.74    9.32
  13 -11   7    6.69    9.08
 -13  11  -7    5.11    2.87
  14 -11   7  140.53   20.62
 -14  11  -7  112.79    9.65
 -15  11  -7   26.45    4.87
  15 -11   7   20.94   11.82
  16 -11   7   -7.53   10.23
 -16  11  -7    4.31    3.03
 -11 -10   7   18.90    4.80
 -10 -10   7   10.56    3.50
  -9 -10   7    8.63    3.84
  -8 -10   7    4.64    2.58
  -7 -10   7   52.42    7.13
  -6 -10   7  144.01   11.44
  -5 -10   7   42.85    6.17
  -4 -10   7    0.54    1.77
  -3 -10   7    3.28    2.37
  -2 -10   7   60.03    6.68
  -1 -10   7  274.64   17.44
   0 -10   7   18.37    5.38
   0 -10   7   12.12    3.08
   1 -10   7  179.16   12.23
   1 -10   7  194.90   15.80
   2 -10   7  234.23   18.72
   2 -10   7  225.29   14.37
   3 -10   7   -0.46    0.90
   3 -10   7    0.63    3.68
   5 -10   7    4.96    4.83
   5 -10   7    2.74    1.35
   6 -10   7   43.88    8.75
   7 -10   7   37.61    8.77
   8 -10   7   -1.64    4.78
   9 -10   7  150.48   17.30
  -9  10  -7  149.48   10.28
 -10  10  -7   -3.25    1.92
  10 -10   7   -4.19    6.12
  11 -10   7   37.25   11.05
 -11  10  -7   41.62    5.75
 -12  10  -7   -1.37    1.96
  12 -10   7   -4.27    6.83
  13 -10   7   -2.31    7.23
 -13  10  -7   -1.92    1.96
  14 -10   7    0.44    8.53
 -14  10  -7    0.31    2.48
  15 -10   7   -3.45    7.64
 -15  10  -7    6.45    3.27
 -16  10  -7   57.34    7.53
  16 -10   7   50.95   15.81
 -12  -9   7    2.45    2.51
 -11  -9   7   -1.65    2.47
 -10  -9   7   26.22    5.17
  -9  -9   7   44.64    6.88
  -8  -9   7   42.18    6.29
  -7  -9   7  136.86   11.29
  -6  -9   7  258.71   17.50
  -5  -9   7   22.34    4.47
  -4  -9   7    0.56    1.72
  -3  -9   7  298.05   18.66
  -2  -9   7  357.67   21.45
  -1  -9   7    3.87    3.65
  -1  -9   7    9.16    2.67
   0  -9   7  307.17   21.43
   0  -9   7  282.15   17.63
   1  -9   7   40.10    6.84
   1  -9   7   46.08    4.89
   2  -9   7  121.85    8.88
   2  -9   7  143.33   12.77
   3  -9   7   20.22    3.05
   3  -9   7   16.17    5.37
   4  -9   7   50.98    4.38
   4  -9   7   45.24    7.91
   5  -9   7   44.20    8.25
   5  -9   7   41.68    3.75
   6  -9   7    5.77    5.16
   7  -9   7    4.84    4.90
   8  -9   7   25.46    8.44
  -8   9  -7   28.56    4.29
   9  -9   7  140.64   17.16
  -9   9  -7  153.60   10.27
 -10   9  -7   13.25    3.07
  10  -9   7   12.60    7.74
  11  -9   7   16.40    8.27
 -11   9  -7   19.39    3.99
 -12   9  -7    5.40    2.80
  12  -9   7    1.29    7.41
 -13   9  -7   35.39    5.46
  13  -9   7   36.22   11.84
  14  -9   7   12.56    9.14
 -14   9  -7    6.78    3.00
  15  -9   7   35.80   12.91
 -15   9  -7   31.43    5.65
 -16   9  -7   28.09    5.65
  16  -9   7   38.63   13.82
 -12  -8   7    7.90    3.34
 -11  -8   7   20.58    4.88
 -10  -8   7  154.66   12.36
  -9  -8   7    2.70    2.28
  -8  -8   7    8.40    2.96
  -7  -8   7   51.31    6.57
  -6  -8   7  358.30   22.13
  -5  -8   7    2.78    1.99
  -4  -8   7  180.45   12.45
  -3  -8   7  332.35   20.02
  -2  -8   7    8.57    2.41
  -2  -8   7    7.50    3.18
  -1  -8   7  313.95   21.94
  -1  -8   7  329.99   19.13
   0  -8   7    0.10    1.02
   0  -8   7    2.60    3.20
   1  -8   7  201.23   14.74
   1  -8   7  155.23   10.85
   2  -8   7    2.77    1.52
   2  -8   7    6.39    4.04
   4  -8   7    5.85    1.55
   4  -8   7    6.84    4.32
   5  -8   7   17.97    2.24
   5  -8   7   13.39    5.56
   6  -8   7    8.75    5.21
  -7   8  -7   54.31    5.53
   7  -8   7   45.66    9.13
   8  -8   7   43.52    9.68
  -8   8  -7   49.29    5.41
  -9   8  -7    0.78    1.62
   9  -8   7   -3.08    5.38
 -10   8  -7    2.90    1.99
  10  -8   7    4.68    6.56
 -11   8  -7   25.69    4.40
  11  -8   7   24.07    9.04
 -12   8  -7   -1.23    1.72
  12  -8   7   10.05    8.03
 -13   8  -7   17.70    3.90
  13  -8   7   30.61   11.03
 -14   8  -7   20.40    4.43
  14  -8   7   17.93    9.68
  15  -8   7   70.59   14.87
 -15   8  -7   71.84    8.33
 -16   8  -7   19.08    4.74
 -13  -7   7    0.88    3.14
 -12  -7   7    9.94    3.71
 -11  -7   7   86.04    8.57
 -10  -7   7    8.73    3.12
  -9  -7   7    8.94    3.02
  -8  -7   7   14.36    3.46
  -7  -7   7  295.45   18.82
  -6  -7   7   19.14    3.83
  -5  -7   7   95.81    7.95
  -4  -7   7  119.18    8.89
  -3  -7   7  158.75   10.85
  -3  -7   7  159.68   11.63
  -2  -7   7  140.34   11.05
  -2  -7   7  143.67    9.78
  -1  -7   7  276.49   16.51
  -1  -7   7  282.77   19.29
   0  -7   7  282.29   18.09
   0  -7   7  368.36   22.39
   1  -7   7  111.65    7.55
   1  -7   7  107.90   10.45
   2  -7   7    0.45    0.94
   2  -7   7    2.49    3.57
   3  -7   7  108.93    7.09
   3  -7   7  106.83   11.04
   4  -7   7    4.38    1.24
   4  -7   7   -1.22    3.56
   5  -7   7   93.33   10.91
   5  -7   7   91.20    5.69
   6  -7   7   54.72    8.90
  -6   7  -7   48.03    5.07
  -7   7  -7  204.31   12.19
   7  -7   7  219.90   19.21
   8  -7   7   38.45    8.86
  -8   7  -7   41.52    4.92
   9  -7   7   -2.22    5.45
  -9   7  -7    2.16    1.71
 -10   7  -7    6.31    2.38
  10  -7   7    1.63    6.78
  11  -7   7  173.80   18.61
 -11   7  -7  162.53   11.22
  12  -7   7   27.21    9.91
 -12   7  -7   16.61    3.56
 -13   7  -7    8.65    3.15
  13  -7   7   13.24    8.27
  14  -7   7   57.55   13.68
 -14   7  -7   75.40    8.17
 -15   7  -7   62.48    7.86
 -16   7  -7    8.34    2.99
 -13  -6   7   -4.29    2.14
 -12  -6   7   38.56    6.28
 -11  -6   7   31.95    5.45
 -10  -6   7    3.80    2.35
  -9  -6   7   36.12    5.42
  -8  -6   7   37.43    5.44
  -7  -6   7   10.68    2.66
  -6  -6   7  315.22   19.25
  -5  -6   7  126.93    9.27
  -4  -6   7   58.10    5.18
  -4  -6   7   43.85    4.97
  -3  -6   7   10.57    2.61
  -3  -6   7   12.87    2.91
  -2  -6   7   52.74    5.81
  -2  -6   7   52.90    4.94
  -1  -6   7   13.28    3.34
  -1  -6   7   11.88    2.37
   0  -6   7    1.64    1.21
   0  -6   7   -2.44    2.12
   1  -6   7    5.60    1.66
   1  -6   7    3.81    3.13
   3  -6   7   50.95    3.86
   3  -6   7   49.96    7.29
   4  -6   7   54.21    3.78
   4  -6   7   52.13    7.69
  -5   6  -7    0.69    1.36
   5  -6   7    0.19    3.26
   5  -6   7    1.13    0.56
  -6   6  -7   39.29    4.23
   6  -6   7   26.89    6.62
  -7   6  -7  309.18   16.89
   7  -6   7  326.54   25.17
   8  -6   7   -2.40    4.43
  -8   6  -7    2.59    1.69
  -9   6  -7  333.00   18.11
   9  -6   7  329.93   27.14
  10  -6   7  209.49   20.35
 -10   6  -7  209.64   12.93
 -11   6  -7  138.08    9.77
  11  -6   7  123.75   16.05
 -12   6  -7   68.04    7.21
  12  -6   7   48.67   11.30
 -13   6  -7   60.76    7.37
  13  -6   7   84.08   14.00
 -14   6  -7   42.96    6.26
 -15   6  -7   33.36    5.67
 -16   6  -7   -0.43    2.26
 -14  -5   7   -0.94    2.40
 -13  -5   7    9.46    3.73
 -12  -5   7   46.59    6.54
 -11  -5   7   -0.09    1.87
 -10  -5   7   -1.74    1.32
  -9  -5   7   96.29    8.25
  -8  -5   7   20.27    3.83
  -7  -5   7    7.22    2.58
  -6  -5   7   30.95    4.45
  -5  -5   7   73.02    6.59
  -5  -5   7   84.13    6.38
  -4  -5   7  114.96    8.47
  -4  -5   7  109.90    8.15
  -3  -5   7  260.37   15.60
  -3  -5   7  265.47   17.32
  -2  -5   7   19.44    3.44
  -2  -5   7   17.45    2.75
  -1  -5   7  186.76   13.44
  -1  -5   7  179.06   11.04
   0  -5   7  152.60   12.14
   0  -5   7  160.93    9.63
   1  -5   7    3.73    2.83
   1  -5   7    4.54    1.34
   2  -5   7   56.22    4.08
   2  -5   7   57.38    7.04
   3  -5   7   79.32    9.15
   3  -5   7   92.51    5.59
  -4   5  -7   -1.35    1.03
   4  -5   7    0.44    0.41
   4  -5   7   -0.99    2.93
   5  -5   7   81.09    9.66
  -5   5  -7   83.95    6.00
   6  -5   7  421.24   30.87
  -6   5  -7  450.24   21.93
   7  -5   7  142.14   14.25
  -7   5  -7  129.13    8.61
  -8   5  -7    4.14    1.93
   8  -5   7    7.34    5.64
  -9   5  -7   25.96    4.04
   9  -5   7   19.94    7.26
 -10   5  -7   79.99    6.92
  10  -5   7   85.16   12.67
 -11   5  -7   18.51    3.75
  11  -5   7   28.40    8.94
  12  -5   7   85.31   13.75
 -12   5  -7   97.55    8.14
 -13   5  -7   48.46    6.34
 -14   5  -7    7.06    2.79
 -15   5  -7    4.13    2.56
 -15  -4   7    2.27    1.96
 -14  -4   7    3.63    2.26
 -13  -4   7   19.15    4.07
 -12  -4   7    6.84    2.61
 -11  -4   7   94.30    8.42
 -10  -4   7   95.73    8.26
  -9  -4   7  338.38   20.64
  -8  -4   7  149.32   10.91
  -7  -4   7   18.68    3.55
  -6  -4   7   71.34    6.15
  -5  -4   7    2.39    1.49
  -5  -4   7    0.39    1.07
  -4  -4   7    0.23    1.52
  -4  -4   7    0.32    0.99
  -3  -4   7  105.22    7.31
  -3  -4   7  106.53    8.20
  -2  -4   7    5.41    1.64
  -2  -4   7    4.17    2.22
  -1  -4   7  319.35   21.69
  -1  -4   7  342.02   18.35
   0  -4   7  289.22   20.07
   0  -4   7  302.66   16.37
   1  -4   7    6.93    3.23
   2  -4   7    4.09    3.07
   2  -4   7    6.28    1.18
   3  -4   7  304.74   22.32
   3  -4   7  329.44   16.82
  -3   4  -7  313.06   16.12
   4  -4   7    1.34    0.49
   4  -4   7    2.11    3.16
  -4   4  -7    0.46    1.06
   5  -4   7   71.03    8.55
  -5   4  -7   53.10    4.97
   6  -4   7  297.35   23.29
  -6   4  -7  326.24   16.52
  -7   4  -7   22.01    3.42
   7  -4   7   14.97    5.96
   8  -4   7   11.24    5.59
  -8   4  -7   16.17    3.00
   9  -4   7   95.14   12.71
  -9   4  -7   97.31    7.48
  10  -4   7  188.89   18.66
 -10   4  -7  179.54   11.85
 -11   4  -7    9.52    2.90
  11  -4   7   11.73    6.64
 -12   4  -7   17.31    3.73
  12  -4   7   21.99    8.49
 -13   4  -7   21.82    4.25
 -14   4  -7   14.35    3.86
 -15   4  -7    5.51    2.91
 -15  -3   7    0.19    1.72
 -14  -3   7   36.47    5.37
 -13  -3   7    8.90    2.71
 -12  -3   7   13.28    3.46
 -11  -3   7   90.16    7.93
 -10  -3   7   12.06    2.88
  -9  -3   7   69.53    6.41
  -8  -3   7   66.93    6.09
  -7  -3   7   -0.05    1.20
  -7  -3   7    0.91    1.34
  -6  -3   7   86.58    6.71
  -6  -3   7   93.49    6.95
  -5  -3   7   21.26    2.85
  -5  -3   7   21.29    3.15
  -4  -3   7   19.30    2.78
  -4  -3   7   21.09    2.95
  -3  -3   7   -1.23    1.23
  -3  -3   7    1.19    1.00
  -2  -3   7    0.87    1.66
  -2  -3   7    0.02    0.97
  -1  -3   7   -0.71    1.85
  -1  -3   7    1.07    0.95
   0  -3   7  116.98    9.70
   1  -3   7   18.03    4.00
  -2   3  -7  106.03    6.62
   2  -3   7  100.15    9.37
  -3   3  -7   81.55    5.70
   3  -3   7   94.87    9.12
   4  -3   7  111.77   10.43
  -4   3  -7  100.47    6.68
  -5   3  -7  262.65   13.88
   5  -3   7  261.27   19.87
  -6   3  -7    1.24    1.29
   6  -3   7   -0.05    3.50
   7  -3   7   24.52    6.33
  -7   3  -7   33.31    4.17
   8  -3   7   34.23    7.51
  -8   3  -7   34.33    4.52
  -9   3  -7   70.44    6.62
   9  -3   7   59.48   10.08
 -10   3  -7  149.96   10.38
  10  -3   7  151.90   16.29
  11  -3   7    9.59    6.46
 -11   3  -7    0.32    1.70
 -12   3  -7   -0.08    2.06
 -13   3  -7   -2.75    1.65
 -14   3  -7    8.80    3.46
 -15   3  -7   -3.89    2.07
 -16  -2   7    3.46    2.15
 -15  -2   7    6.98    2.70
 -14  -2   7   16.67    3.63
 -13  -2   7   -0.84    1.50
 -12  -2   7   -0.04    1.23
 -11  -2   7    7.74    2.53
 -10  -2   7    1.66    1.60
  -9  -2   7    1.15    1.44
  -8  -2   7   16.70    3.06
  -8  -2   7   15.98    2.75
  -8  -2   7   12.82    2.05
  -7  -2   7   40.58    3.40
  -7  -2   7   41.44    4.24
  -7  -2   7   40.16    4.55
  -6  -2   7   65.65    5.58
  -6  -2   7   63.83    5.39
  -5  -2   7  214.60   12.81
  -5  -2   7  206.20   13.90
  -4  -2   7  273.99   18.06
  -4  -2   7  291.96   16.26
  -3  -2   7  136.31    9.79
  -2  -2   7   40.44    4.56
  -1  -2   7  154.34   11.37
   0  -2   7  716.46   44.10
   1  -2   7   -0.25    2.20
  -2   2  -7  133.07    7.91
   2  -2   7  145.84   11.58
  -3   2  -7    0.03    1.02
   3  -2   7    1.39    2.50
  -4   2  -7  188.11   10.79
   4  -2   7  214.55   15.96
   5  -2   7   16.71    4.75
  -5   2  -7   24.36    3.24
  -5   2  -7   17.07    2.21
  -6   2  -7   20.64    3.21
   6  -2   7   14.57    5.09
  -6   2  -7   18.04    2.30
   7  -2   7    2.69    3.75
  -7   2  -7   -1.67    1.04
  -8   2  -7    6.60    2.06
   8  -2   7    9.88    5.36
  -9   2  -7    6.20    2.13
   9  -2   7    9.06    5.71
  10  -2   7   19.66    6.83
 -10   2  -7   19.53    3.77
 -11   2  -7    7.96    2.53
 -12   2  -7   53.54    6.69
 -13   2  -7    5.55    2.56
 -14   2  -7   26.73    5.31
 -16  -1   7   10.85    3.24
 -15  -1   7    9.49    2.73
 -14  -1   7    1.56    1.73
 -13  -1   7    9.36    3.04
 -12  -1   7    3.22    1.92
 -11  -1   7    1.78    1.21
 -10  -1   7    5.37    2.12
  -9  -1   7   52.61    5.03
  -8  -1   7   59.03    5.34
  -7  -1   7  421.92   27.72
  -7  -1   7  462.55   23.68
  -7  -1   7  452.94   24.96
  -6  -1   7    0.52    1.40
  -6  -1   7   -0.30    0.90
  -6  -1   7   -0.25    0.99
  -5  -1   7    7.27    2.00
  -5  -1   7   11.50    1.90
  -4  -1   7  282.49   18.26
  -3  -1   7   41.62    4.18
  -2  -1   7  365.91   23.23
  -1  -1   7  107.56    8.51
   0  -1   7 4734.24  276.09
   1  -1   7 1015.48   62.05
  -1   1  -7 1033.76   46.10
   2  -1   7  132.27   10.63
  -2   1  -7  126.83    8.21
  -2   1  -7  122.89    7.34
   3  -1   7    5.74    3.12
  -3   1  -7   11.07    2.11
  -3   1  -7   12.95    2.11
   4  -1   7  194.92   15.07
  -4   1  -7  198.13   10.70
  -4   1  -7  187.15   11.30
   5  -1   7    0.97    3.07
  -5   1  -7    3.77    1.65
  -5   1  -7    5.12    1.59
   6  -1   7   61.46    8.14
  -6   1  -7   60.47    5.45
  -6   1  -7   56.32    4.65
   7  -1   7   -2.20    3.62
  -7   1  -7    0.62    1.43
   8  -1   7   -1.17    3.95
  -8   1  -7    3.38    1.72
  -9   1  -7    1.41    1.53
   9  -1   7   -3.81    2.64
 -10   1  -7   32.22    4.98
 -11   1  -7   15.18    3.61
 -12   1  -7   25.42    4.71
 -13   1  -7    7.40    3.30
 -14   1  -7   23.94    5.41
 -17   0   7   14.56    3.58
 -16   0   7    6.88    2.46
 -15   0   7    0.02    1.99
 -14   0   7   12.41    3.22
 -13   0   7   49.26    6.04
 -12   0   7   -0.83    1.21
 -11   0   7    7.52    2.31
 -10   0   7   -1.85    1.11
  10   0  -7   -2.25    3.10
   9   0  -7   45.32    6.24
  -9   0   7   35.32    4.32
   8   0  -7    9.35    3.58
  -8   0   7   16.02    2.85
   7   0  -7    5.76    2.55
  -5   0   7   63.32    5.66
  -5   0   7   62.16    4.70
  -4   0   7   66.71    5.84
  -4   0   7   65.42    4.85
  -3   0   7  276.28   18.02
  -2   0   7    5.38    1.87
  -1   0   7 3333.83  194.88
   0   0  -7 5528.38  239.24
   0   0   7 5495.27  320.93
  -1   0  -7 1190.75   53.01
  -1   0  -7 1180.20   61.62
   1   0   7 1198.26   71.45
  -2   0  -7   -0.03    0.97
  -2   0  -7    0.79    1.29
   2   0   7    1.12    2.14
   3   0   7  167.48   13.17
  -3   0  -7  171.78   10.43
  -3   0  -7  169.82    9.43
  -4   0  -7    0.21    1.21
   4   0   7    0.77    2.69
  -4   0  -7    1.33    1.11
  -5   0  -7   13.60    2.58
  -5   0  -7   16.26    2.86
   5   0   7   15.47    4.39
  -6   0  -7   67.31    5.76
   6   0   7   76.04    8.69
  -6   0  -7   72.15    5.69
  -7   0  -7   28.23    3.94
  -8   0  -7    8.25    2.47
   8   0   7    2.33    2.83
  -9   0  -7   12.69    3.11
 -10   0  -7   -0.41    1.68
 -11   0  -7    3.74    2.23
 -12   0  -7   -0.05    2.37
 -13   0  -7    3.55    3.04
 -14   0  -7    0.73    3.50
 -17   1   7    1.02    2.34
 -16   1   7    1.60    2.25
 -15   1   7   -0.57    1.60
 -14   1   7   37.36    5.28
 -13   1   7  105.11    8.20
 -12   1   7   48.47    5.26
 -11   1   7   11.40    2.66
  11  -1  -7    9.34    4.74
  10  -1  -7   76.10    9.00
 -10   1   7   69.77    6.03
   8  -1  -7    8.42    3.73
   7  -1  -7   18.52    4.54
   6  -1  -7  490.45   31.99
  -4   1   7   67.57    6.11
  -4   1   7   71.21    5.12
  -3   1   7  309.58   19.92
  -3   1   7  304.29   16.85
  -2   1   7  839.89   50.70
  -1   1   7  270.75   17.77
   1  -1  -7  264.84   15.94
   0   1   7 1143.08   67.75
   0  -1  -7 1113.82   50.20
   0  -1  -7 1133.04   58.87
  -1  -1  -7  100.79    5.95
   1   1   7   98.53    8.48
  -1  -1  -7  104.26    7.29
   2   1   7   30.67    4.28
  -2  -1  -7   19.06    2.50
  -2  -1  -7   16.71    2.80
  -3  -1  -7   27.94    3.16
  -3  -1  -7   26.74    3.39
   3   1   7   25.97    4.42
   4   1   7   10.30    3.70
  -4  -1  -7    7.57    2.24
  -4  -1  -7    8.51    1.97
  -5  -1  -7   15.15    2.98
  -5  -1  -7   11.50    2.39
  -6  -1  -7   66.85    5.85
  -6  -1  -7   59.77    5.63
   7   1   7   41.97    7.04
  -7  -1  -7   34.02    4.54
  -8  -1  -7   25.68    4.21
  -9  -1  -7   31.50    5.04
 -10  -1  -7    2.70    2.07
 -11  -1  -7    9.24    3.09
 -12  -1  -7   27.64    5.19
 -13  -1  -7   -1.59    2.54
 -18   2   7   13.18    3.42
 -17   2   7    4.30    2.50
 -16   2   7   13.97    3.72
 -15   2   7   -2.17    1.70
 -14   2   7  278.88   16.37
 -13   2   7  100.73    7.78
 -12   2   7    3.71    1.60
 -12   2   7    1.64    1.40
  12  -2  -7    0.66    2.94
  11  -2  -7    1.36    2.09
 -11   2   7    6.35    2.11
  10  -2  -7  213.42   17.33
 -10   2   7  183.58   12.14
   9  -2  -7  231.74   18.59
   8  -2  -7  178.47   15.06
   7  -2  -7  303.70   22.01
   6  -2  -7  299.54   21.37
   5  -2  -7   18.14    4.36
  -4   2   7  101.37    8.13
  -4   2   7  105.85    6.92
  -3   2   7 1856.79  109.30
  -3   2   7 1846.05   92.75
   2  -2  -7  436.44   24.60
  -2   2   7  434.88   27.43
   1  -2  -7  754.05   38.49
  -1   2   7  680.99   43.56
   0  -2  -7  244.96   15.01
   0  -2  -7  260.27   12.40
   0   2   7  252.81   17.07
  -1  -2  -7  197.98   10.17
  -1  -2  -7  194.47   12.27
   1   2   7  198.84   14.05
  -2  -2  -7    0.22    0.88
  -2  -2  -7    1.67    1.62
   2   2   7    1.78    1.89
  -3  -2  -7    2.96    1.92
  -3  -2  -7    0.72    1.15
   3   2   7    0.33    2.12
  -4  -2  -7   53.92    5.26
  -4  -2  -7   48.41    4.56
   5   2   7   22.84    5.09
  -5  -2  -7   26.23    3.61
  -5  -2  -7   27.14    4.06
   6   2   7    0.07    3.28
  -6  -2  -7    3.80    2.08
  -6  -2  -7    3.10    1.50
  -7  -2  -7    1.42    1.70
  -8  -2  -7   34.88    4.99
  -9  -2  -7  104.30    8.48
 -10  -2  -7    4.36    2.53
 -11  -2  -7   54.00    7.06
 -13  -2  -7   -2.51    3.04
 -18   3   7    9.44    2.70
 -17   3   7    8.44    2.78
 -16   3   7   10.08    2.82
 -15   3   7  131.49    9.64
 -14   3   7  103.77    8.01
  13  -3  -7    2.37    5.04
 -13   3   7    1.98    1.47
  12  -3  -7   -2.64    4.43
 -12   3   7    1.62    1.46
 -12   3   7    0.88    1.24
  11  -3  -7  200.67   18.38
  10  -3  -7  157.64   15.46
   9  -3  -7    0.67    4.01
   8  -3  -7  186.16   15.95
   7  -3  -7  492.27   33.43
   6  -3  -7  326.24   23.49
   5  -3  -7  165.42   13.88
   4  -3  -7  103.73    8.17
   4  -3  -7   85.90    9.12
  -3   3   7    2.96    1.50
  -3   3   7    1.74    1.77
   3  -3  -7    2.27    2.18
  -2   3   7   77.32    5.87
   2  -3  -7   86.61    6.99
  -2   3   7   84.66    7.14
   1  -3  -7   57.27    3.54
  -1   3   7   47.51    5.29
   1  -3  -7   52.43    5.21
   0  -3  -7   18.47    3.32
   0   3   7   17.65    3.26
   1   3   7  175.44   12.74
  -1  -3  -7  170.29   11.43
  -1  -3  -7  176.71    9.28
  -2  -3  -7   47.25    3.77
  -2  -3  -7   43.51    5.03
  -3  -3  -7  216.51   14.15
  -3  -3  -7  226.65   11.99
   4   3   7  154.94   12.68
  -4  -3  -7  150.57   11.12
  -4  -3  -7  175.64    9.75
   5   3   7    0.97    2.89
  -5  -3  -7   -1.14    1.50
  -5  -3  -7   -0.86    0.98
  -6  -3  -7    2.20    2.20
  -6  -3  -7    0.26    1.35
  -7  -3  -7  206.85   12.58
  -8  -3  -7   17.02    3.54
  -9  -3  -7   23.73    4.48
 -10  -3  -7   10.72    3.28
 -11  -3  -7    1.53    2.31
 -12  -3  -7   -3.18    2.34
 -18   4   7   14.52    3.54
 -17   4   7    6.85    2.44
 -16   4   7    5.84    2.46
 -15   4   7  214.81   13.45
  14  -4  -7   30.10    8.71
 -14   4   7   23.40    3.85
  13  -4  -7    4.24    5.92
 -13   4   7    6.83    1.92
  12  -4  -7  149.02   15.93
 -12   4   7  132.98    8.69
  11  -4  -7  173.92   17.40
 -11   4   7  180.95   10.41
  10  -4  -7   29.86    7.40
   9  -4  -7  168.30   15.84
   8  -4  -7  252.03   20.57
   7  -4  -7   36.88    6.97
   6  -4  -7   50.26    7.25
   5  -4  -7  155.52   11.25
   5  -4  -7  151.11   13.45
   4  -4  -7   30.87    5.74
   4  -4  -7   32.84    4.54
  -3   4   7   36.86    4.52
   3  -4  -7   31.61    4.47
  -3   4   7   38.87    3.90
  -2   4   7    0.00    1.51
   2  -4  -7    3.63    2.05
  -2   4   7    1.53    1.28
   2  -4  -7    2.72    0.97
  -1   4   7   39.23    4.73
   1  -4  -7   43.20    2.98
   1  -4  -7   44.19    5.01
   0   4   7   54.15    5.52
   0  -4  -7   56.73    5.73
   1   4   7    1.30    1.45
  -1  -4  -7    0.15    1.67
  -1  -4  -7    1.18    0.80
  -2  -4  -7    2.55    1.92
   2   4   7    1.34    1.44
  -2  -4  -7    0.18    0.90
  -3  -4  -7    5.91    1.77
  -3  -4  -7    7.79    2.89
   3   4   7    9.57    3.09
   4   4   7  133.62   11.21
  -4  -4  -7  131.87    8.34
  -4  -4  -7  129.17    9.98
  -5  -4  -7   28.68    4.72
  -5  -4  -7   41.50    4.43
  -6  -4  -7   11.50    3.42
  -6  -4  -7    8.49    2.54
  -7  -4  -7    7.69    2.73
  -7  -4  -7    3.06    1.67
  -8  -4  -7   70.49    7.16
  -9  -4  -7   79.71    8.01
 -10  -4  -7   25.06    5.04
 -11  -4  -7    6.33    3.18
 -12  -4  -7   -2.11    3.28
 -19   5   7   -0.86    1.83
 -18   5   7   -4.48    1.90
 -17   5   7   17.19    3.50
 -16   5   7   35.24    5.00
 -15   5   7  162.82   10.80
 -14   5   7   46.61    5.36
  14  -5  -7   66.74   11.38
 -13   5   7   10.95    2.41
  13  -5  -7   10.25    6.88
  12  -5  -7   60.67   10.88
 -12   5   7   56.28    5.18
 -11   5   7  198.52   11.00
  11  -5  -7  197.87   19.17
  10  -5  -7   71.05   10.74
 -10   5   7   73.77    5.17
   9  -5  -7  299.68   23.92
   8  -5  -7    8.83    5.21
   7  -5  -7  342.42   25.77
   6  -5  -7   38.86    7.19
   6  -5  -7   43.69    5.71
   5  -5  -7   10.22    3.14
   5  -5  -7    5.19    4.12
   4  -5  -7   21.81    5.51
   4  -5  -7   25.43    4.17
   3  -5  -7  191.60   12.75
   2  -5  -7    7.99    1.17
  -2   5   7    9.01    2.20
   2  -5  -7    8.58    2.88
  -2   5   7    8.97    2.56
   1  -5  -7  391.85   19.30
   1  -5  -7  402.80   24.36
  -1   5   7  471.10   27.19
   0   5   7   12.84    2.95
   0  -5  -7   11.08    3.17
   0  -5  -7   10.90    1.74
  -1  -5  -7    8.56    1.66
  -1  -5  -7   23.58    4.06
  -2  -5  -7   43.09    3.89
  -2  -5  -7   43.62    5.56
   2   5   7   38.68    5.12
  -3  -5  -7  404.57   23.66
   3   5   7  370.85   25.68
  -3  -5  -7  401.32   19.58
  -4  -5  -7   44.98    4.70
  -4  -5  -7   57.24    6.36
  -5  -5  -7   10.83    3.41
  -5  -5  -7   11.83    2.77
  -6  -5  -7   73.05    6.66
  -6  -5  -7   71.67    7.54
  -7  -5  -7  100.16    8.99
  -7  -5  -7   96.86    7.83
  -8  -5  -7   43.66    5.83
  -9  -5  -7   82.94    8.35
 -10  -5  -7   21.21    4.56
 -11  -5  -7   11.29    3.82
 -17   6   7   28.18    4.52
 -16   6   7   68.69    6.82
 -15   6   7   38.05    4.97
  15  -6  -7   41.14   10.62
 -14   6   7   36.96    4.49
  14  -6  -7   26.70    8.85
  13  -6  -7   76.08   12.03
 -13   6   7   58.56    5.10
  12  -6  -7   11.42    6.90
 -12   6   7    8.24    1.97
  11  -6  -7    7.36    6.21
 -11   6   7   10.01    2.03
 -10   6   7    6.27    1.56
  10  -6  -7    3.39    5.40
  -9   6   7    4.79    1.22
   9  -6  -7    2.73    5.04
   8  -6  -7    0.10    4.11
  -8   6   7    1.07    0.61
   7  -6  -7  128.54   10.69
   7  -6  -7  133.27   14.07
  -7   6   7  138.23    6.74
   6  -6  -7  183.99   16.57
  -6   6   7  189.02    8.62
   6  -6  -7  182.50   13.18
   5  -6  -7   23.17    4.20
   5  -6  -7   21.49    5.83
   4  -6  -7  141.71   14.01
   4  -6  -7  174.05   11.64
   3  -6  -7   27.93    4.47
   2  -6  -7    3.69    0.87
   2  -6  -7    4.06    2.44
  -2   6   7    1.28    1.56
  -2   6   7    3.21    1.58
   1  -6  -7  479.86   29.59
  -1   6   7  539.90   27.72
   1  -6  -7  492.47   23.58
  -1   6   7  551.17   32.72
   0  -6  -7   -0.69    1.77
   0   6   7   -0.25    1.04
   0  -6  -7    1.58    1.00
   1   6   7   22.85    3.98
  -1  -6  -7   21.56    4.52
  -2  -6  -7  147.76   11.42
   2   6   7  141.74   11.49
  -2  -6  -7  154.76    8.74
  -3  -6  -7   73.77    7.73
  -3  -6  -7   76.11    5.65
  -4  -6  -7    5.40    2.70
  -4  -6  -7    1.66    1.41
  -5  -6  -7   57.32    7.11
  -5  -6  -7   69.08    6.19
  -6  -6  -7   50.05    5.59
  -6  -6  -7   38.98    5.92
  -7  -6  -7    1.04    2.26
  -7  -6  -7    0.17    1.85
  -8  -6  -7   39.99    5.74
  -9  -6  -7  107.55    9.06
 -10  -6  -7   18.27    4.62
 -11  -6  -7    0.12    3.62
  16  -7  -7   53.44   12.34
  15  -7  -7   18.22    8.98
  14  -7  -7    0.44    5.36
 -13   7   7   59.74    4.94
  13  -7  -7   58.93   11.55
  12  -7  -7   65.92   11.50
 -12   7   7   60.71    4.80
  11  -7  -7   98.00   13.26
 -11   7   7   90.40    5.94
  10  -7  -7   82.81   12.25
 -10   7   7   86.75    5.36
   9  -7  -7   71.91   11.29
  -9   7   7   72.42    4.43
   8  -7  -7   53.37    9.72
  -8   7   7   65.76    3.77
   8  -7  -7   63.81    7.53
   7  -7  -7    1.08    2.11
   7  -7  -7    2.10    4.68
   6  -7  -7    7.87    4.89
   6  -7  -7    9.34    3.20
   5  -7  -7   17.73    3.89
   5  -7  -7   12.74    5.54
   4  -7  -7   -0.12    1.76
   4  -7  -7   -2.05    3.74
   3  -7  -7   52.51    6.21
  -2   7   7   83.30    7.05
   2  -7  -7   76.10    7.66
  -2   7   7   73.31    5.83
   2  -7  -7   67.03    4.10
  -1   7   7  751.26   43.22
   1  -7  -7  662.77   31.36
   1  -7  -7  669.39   39.15
   0  -7  -7    2.73    1.17
   0  -7  -7    1.19    2.23
   0   7   7    0.92    1.17
  -1  -7  -7   58.61    4.32
  -1  -7  -7   46.32    6.59
   1   7   7   59.59    6.19
  -2  -7  -7  133.85    8.03
  -2  -7  -7  124.35   10.61
  -3  -7  -7   -2.20    1.68
  -3  -7  -7   -1.25    1.11
  -4  -7  -7  371.95   19.11
  -4  -7  -7  351.95   22.96
  -5  -7  -7   85.09    6.78
  -5  -7  -7   79.03    8.55
  -6  -7  -7   17.93    4.33
  -6  -7  -7   26.69    4.48
  -7  -7  -7   38.57    6.35
  -7  -7  -7   29.78    4.80
  -8  -7  -7   71.93    7.69
  -9  -7  -7    5.59    2.66
 -10  -7  -7    0.61    2.86
  17  -8  -7   39.68   11.91
  16  -8  -7    5.32    6.99
  15  -8  -7   -0.93    6.09
  14  -8  -7   49.03   11.33
  13  -8  -7    4.59    5.83
  12  -8  -7    7.37    6.47
  11  -8  -7    2.33    6.57
  10  -8  -7    7.70    6.49
   9  -8  -7    4.54    5.84
   8  -8  -7    6.51    6.24
   8  -8  -7    4.52    3.06
   7  -8  -7  342.58   27.22
   7  -8  -7  338.58   21.44
   6  -8  -7   27.28    7.25
   6  -8  -7   30.70    5.08
   5  -8  -7  247.44   15.78
   5  -8  -7  207.64   19.11
   4  -8  -7   24.03    6.54
   4  -8  -7   18.54    4.32
   3  -8  -7  116.36    9.92
  -2   8   7  447.46   26.98
  -2   8   7  428.27   22.81
   2  -8  -7  378.84   25.05
   2  -8  -7  390.23   18.91
  -1   8   7    3.79    2.04
   1  -8  -7    2.64    2.54
  -1   8   7    3.43    1.62
   1  -8  -7    6.41    1.35
   0   8   7    6.13    2.44
   0  -8  -7    6.12    3.04
   0  -8  -7    9.13    1.89
  -1  -8  -7  149.06    8.65
  -1  -8  -7  152.55   12.19
   1   8   7  146.22   11.67
  -2  -8  -7   30.01    5.50
  -2  -8  -7   11.01    2.24
  -3  -8  -7    3.05    1.60
  -3  -8  -7   -1.23    1.89
  -4  -8  -7  125.76   11.24
  -4  -8  -7  138.73    9.02
  -5  -8  -7   24.17    4.02
  -5  -8  -7   24.25    5.16
  -6  -8  -7   10.59    3.72
  -6  -8  -7    6.44    2.53
  -7  -8  -7    0.71    2.72
  -7  -8  -7    5.47    2.26
  -8  -8  -7    6.73    2.61
  -9  -8  -7    2.30    2.51
 -10  -8  -7    0.00    4.03
  18  -9  -7   13.96    9.69
  17  -9  -7   -6.38    6.61
  16  -9  -7   38.23   12.02
  15  -9  -7   16.01    7.75
  14  -9  -7   -0.44    6.17
  13  -9  -7   17.59    7.91
  12  -9  -7    8.56    6.80
  11  -9  -7   25.36    9.06
  10  -9  -7   45.15   10.61
   9  -9  -7   16.00    4.60
   9  -9  -7   12.98    7.11
   8  -9  -7    1.19    2.49
   8  -9  -7    5.51    5.33
   7  -9  -7  130.85   11.03
   7  -9  -7  133.25   15.47
   6  -9  -7  637.29   34.66
   6  -9  -7  546.62   41.18
   5  -9  -7    7.07    5.50
   5  -9  -7    8.56    3.46
   4  -9  -7  171.64   13.09
   3  -9  -7    8.46    3.63
  -2   9   7   17.71    2.93
  -2   9   7   11.46    3.05
   2  -9  -7   11.99    4.25
   0   9   7   61.89    6.47
   0  -9  -7   61.81    8.05
  -1  -9  -7  108.82   10.42
  -2  -9  -7    9.18    3.52
  -3  -9  -7   10.54    2.68
  -3  -9  -7   13.56    4.24
  -4  -9  -7   22.28    5.20
  -4  -9  -7   26.07    4.01
  -5  -9  -7    9.91    3.71
  -5  -9  -7    8.12    2.54
  -6  -9  -7    1.86    2.61
  -6  -9  -7    5.27    2.90
  -7  -9  -7    7.61    3.48
  -7  -9  -7   13.31    3.23
  -8  -9  -7   -2.96    2.39
  18 -10  -7   18.14   10.63
  17 -10  -7   13.45    8.18
  16 -10  -7   -4.88    6.03
  15 -10  -7    0.36    6.96
  14 -10  -7    2.12    6.39
  13 -10  -7    6.00    6.55
  12 -10  -7   16.53    8.93
  11 -10  -7   70.16   12.80
  10 -10  -7    5.88    6.56
  10 -10  -7    5.67    3.58
   9 -10  -7    6.19    6.26
   9 -10  -7    1.69    2.89
   8 -10  -7   88.05   13.16
   8 -10  -7   87.99    9.21
   7 -10  -7  345.40   28.95
   7 -10  -7  364.03   22.90
   6 -10  -7   10.84    6.73
   6 -10  -7   12.33    3.92
   5 -10  -7  240.87   20.54
   5 -10  -7  225.65   16.43
   4 -10  -7  166.16   13.33
   3 -10  -7    7.98    4.06
  -2  10   7    4.01    1.62
  -2  10   7    0.99    1.88
   2 -10  -7    0.38    2.55
  -1  10   7   20.20    3.24
   1 -10  -7   19.06    5.16
  -1  10   7   19.88    3.83
   0 -10  -7   46.94    7.43
  -1 -10  -7    3.04    3.06
  -2 -10  -7   -5.39    1.34
  -3 -10  -7    7.25    3.40
  -4 -10  -7    6.13    3.39
  -5 -10  -7    0.25    2.43
  -6 -10  -7   15.69    5.05
  19 -11  -7    2.13   10.24
  18 -11  -7   22.53   11.20
  17 -11  -7   -3.42    6.47
  16 -11  -7    1.10    6.78
  15 -11  -7    6.57    7.58
  14 -11  -7   20.56    8.57
  13 -11  -7   57.58   13.04
  12 -11  -7  321.82   29.06
  11 -11  -7  123.75   11.85
  11 -11  -7  121.59   16.80
  10 -11  -7    3.44    3.32
  10 -11  -7    5.46    6.32
   9 -11  -7    9.18    6.92
   9 -11  -7   11.26    4.32
   8 -11  -7  282.25   19.49
   8 -11  -7  290.32   25.84
   7 -11  -7  309.85   20.30
   7 -11  -7  284.07   25.48
   6 -11  -7  143.81   11.70
   6 -11  -7  112.24   14.52
   5 -11  -7  155.64   12.86
   4 -11  -7    1.65    5.00
   4 -11  -7    2.14    2.94
  -3  11   7   24.02    3.68
  -3  11   7   30.63    4.78
   3 -11  -7   24.05    5.88
  -2  11   7   -0.87    1.44
   2 -11  -7   20.42    5.46
   1 -11  -7   -0.06    2.67
   0 -11  -7    3.74    3.50
  -1 -11  -7   44.32    7.64
  -2 -11  -7    7.79    3.75
  -3 -11  -7    4.91    3.22
  -4 -11  -7   -3.33    2.08
  -5 -11  -7   29.94    6.62
  -6 -11  -7   41.27    7.67
  19 -12  -7    8.20   10.84
  18 -12  -7   -5.49    8.68
  17 -12  -7  -10.66    6.59
  16 -12  -7    2.09    7.10
  15 -12  -7    4.54    7.43
  14 -12  -7   29.43   10.46
  13 -12  -7  121.74   17.89
  12 -12  -7  188.76   21.39
  11 -12  -7   22.39    5.61
  11 -12  -7   16.18    7.93
  10 -12  -7   -6.06    4.67
  10 -12  -7    2.80    3.19
   9 -12  -7   82.58   13.64
   9 -12  -7   76.95    9.27
   8 -12  -7  371.21   31.00
   8 -12  -7  375.09   24.43
   7 -12  -7    4.14    6.38
   7 -12  -7    6.17    3.36
   6 -12  -7   11.79    4.13
   6 -12  -7   16.49    7.11
   5 -12  -7   12.66    6.25
   5 -12  -7    6.68    3.75
   4 -12  -7    3.17    3.40
   4 -12  -7    5.70    5.77
  -3  12   7   27.73    4.73
  -3  12   7   29.68    3.97
   3 -12  -7   26.67    6.52
   2 -12  -7  145.07   13.14
   1 -12  -7   13.59    4.60
   0 -12  -7    2.67    2.96
  -1 -12  -7    0.84    2.76
  -2 -12  -7    8.15    3.99
  -3 -12  -7   -1.69    2.42
  -4 -12  -7    1.26    2.94
  -5 -12  -7   19.95    5.31
  -6 -12  -7   10.31    4.37
  18 -13  -7   -5.76    8.45
  17 -13  -7   -7.00    5.85
  16 -13  -7    1.23    7.97
  15 -13  -7    4.35    8.38
  14 -13  -7   93.68   16.75
  13 -13  -7   85.32   15.93
  12 -13  -7   12.25    7.51
  11 -13  -7   -1.23    2.40
  11 -13  -7   -2.76    5.63
  10 -13  -7   -4.11    4.35
  10 -13  -7    3.00    2.89
   9 -13  -7   19.09    8.72
   9 -13  -7   17.12    5.06
   8 -13  -7   55.20   11.78
   8 -13  -7   72.51    8.71
   7 -13  -7   24.55    5.61
   7 -13  -7   19.17    7.25
   6 -13  -7   10.32    4.07
   6 -13  -7   13.37    6.17
   5 -13  -7    0.69    3.30
   5 -13  -7   -5.40    4.07
   4 -13  -7   80.00   10.64
   4 -13  -7  135.06   13.25
   3 -13  -7   81.51   10.57
   2 -13  -7   47.53    8.16
   1 -13  -7    4.95    3.13
   0 -13  -7    9.95    4.30
  -1 -13  -7   19.46    5.50
  -2 -13  -7   13.82    5.05
  -3 -13  -7    5.68    3.57
  -4 -13  -7   -2.42    2.50
  -5 -13  -7    8.90    4.04
  17 -14  -7    5.31    6.67
  16 -14  -7    6.09    7.94
  15 -14  -7   18.79    9.97
  14 -14  -7   66.70   15.10
  13 -14  -7    3.28    7.03
  12 -14  -7   -0.26    5.42
  11 -14  -7    5.78    6.35
  11 -14  -7    2.28    3.05
  10 -14  -7    0.48    2.87
  10 -14  -7   -5.51    5.70
   9 -14  -7   -3.80    2.06
   9 -14  -7    5.56    6.42
   8 -14  -7   54.58   11.43
   8 -14  -7   48.91    7.47
   7 -14  -7   16.64    7.14
   7 -14  -7   16.85    5.08
   6 -14  -7    4.56    4.60
   6 -14  -7   -0.43    2.62
   5 -14  -7   -0.28    3.21
   5 -14  -7    7.44    5.67
   4 -14  -7   15.63    5.33
   3 -14  -7   17.38    5.84
   2 -14  -7   40.20    8.04
   1 -14  -7    5.88    3.96
   0 -14  -7   34.59    7.80
  -1 -14  -7   40.24    8.12
  -2 -14  -7    2.94    3.21
  -3 -14  -7   -1.88    2.93
  17 -15  -7   -0.68    6.32
  16 -15  -7    3.25    6.18
  15 -15  -7   -1.28    7.38
  14 -15  -7   18.15    9.01
  13 -15  -7   -4.04    5.31
  12 -15  -7   -6.85    4.19
  11 -15  -7    9.36    6.91
  11 -15  -7    4.62    3.70
  10 -15  -7   -3.12    5.00
  10 -15  -7    1.58    2.92
   9 -15  -7    5.67    6.92
   9 -15  -7   20.00    5.60
   8 -15  -7   -5.23    4.24
   8 -15  -7    0.24    3.03
   7 -15  -7    1.09    3.20
   7 -15  -7    1.66    5.41
   6 -15  -7    3.50    3.04
   6 -15  -7    1.18    4.47
   5 -15  -7   18.16    5.85
   4 -15  -7   34.58    7.59
   3 -15  -7    2.26    3.66
   2 -15  -7   43.06    9.01
   1 -15  -7   73.03   10.71
   0 -15  -7   57.86    9.55
  -1 -15  -7   20.92    6.41
  -2 -15  -7   -3.71    2.31
  16 -16  -7   -0.93    6.50
  15 -16  -7   67.50   15.61
  14 -16  -7   18.21    8.57
  13 -16  -7   14.08    8.78
  12 -16  -7    3.30    6.58
  11 -16  -7   -0.41    6.32
  11 -16  -7    3.64    3.41
  10 -16  -7   27.65    6.45
  10 -16  -7   29.72    9.87
   9 -16  -7   -0.47    2.77
   9 -16  -7    8.52    6.29
   8 -16  -7   18.16    6.60
   8 -16  -7    5.78    3.65
   7 -16  -7   -7.46    1.89
   7 -16  -7   -0.02    4.61
   6 -16  -7   54.60    9.22
   5 -16  -7   86.06   11.48
   4 -16  -7   17.93    6.45
   3 -16  -7    7.38    5.10
   2 -16  -7    0.11    3.58
   1 -16  -7   29.12    7.35
   0 -16  -7   32.28    7.48
  15 -17  -7   16.02    8.97
  14 -17  -7    1.92    6.66
  13 -17  -7    4.27    7.28
  12 -17  -7   -6.22    4.12
  11 -17  -7    5.48    5.54
  11 -17  -7   -0.62    2.53
  10 -17  -7    9.07    6.44
  10 -17  -7   13.57    4.51
   9 -17  -7    8.37    6.52
   9 -17  -7   18.32    5.61
   8 -17  -7    1.24    4.88
   8 -17  -7    4.05    3.03
   7 -17  -7   30.60    7.59
   6 -17  -7   49.12    9.17
   5 -17  -7   55.49    9.78
   4 -17  -7    1.09    3.80
   3 -17  -7   -2.30    3.12
   2 -17  -7   -0.64    3.46
  14 -18  -7    8.30    7.24
  13 -18  -7   -2.24    5.52
  12 -18  -7   19.89    8.21
  11 -18  -7   12.58    6.82
  11 -18  -7    9.90    4.33
  10 -18  -7   11.78    4.66
  10 -18  -7    8.84    6.56
   9 -18  -7   36.88    9.31
   9 -18  -7   42.05    8.35
   8 -18  -7    0.51    3.56
   7 -18  -7   33.66    8.28
   6 -18  -7   -2.46    2.34
   5 -18  -7   -1.34    3.39
   4 -18  -7   -0.20    3.83
  12 -19  -7    6.93    6.14
  11 -19  -7   16.59    7.55
  10 -19  -7   34.42    9.03
  10 -19  -7   21.47    6.71
   9 -19  -7   27.85    7.50
   8 -19  -7   20.01    6.99
   7 -19  -7   42.74    9.83
   3 -20   8    5.36    4.78
   4 -20   8   -0.50    3.15
   9 -20   8    7.44    6.64
  10 -20   8    9.09    6.98
   1 -19   8   -2.22    3.98
   2 -19   8   -2.61    3.09
   3 -19   8   -1.45    3.06
   4 -19   8   -2.77    2.84
   8 -19   8   18.84    8.28
   9 -19   8    3.00    5.69
  10 -19   8    9.21    6.65
  11 -19   8   24.80    9.75
  -1 -18   8    0.94    3.33
   0 -18   8   -3.59    2.60
   1 -18   8   16.06    4.88
   2 -18   8   26.31    6.34
   3 -18   8   -0.21    2.81
   4 -18   8   23.59    5.42
   7 -18   8    2.55    5.96
   8 -18   8   19.94    8.35
   9 -18   8    0.52    5.67
  10 -18   8    1.44    6.08
  11 -18   8    0.20    6.03
  12 -18   8   45.41   12.82
  -2 -17   8   -0.41    2.70
  -1 -17   8    3.33    3.61
   0 -17   8   -2.48    2.43
   1 -17   8    3.12    3.22
   2 -17   8   -1.78    2.15
   3 -17   8    3.39    2.76
   4 -17   8    5.40    3.08
   5 -17   8   20.37    5.17
   6 -17   8    4.31    5.64
   7 -17   8    7.51    5.92
   8 -17   8   92.58   15.41
   9 -17   8   12.25    6.96
  10 -17   8   -1.80    5.23
  11 -17   8   15.60    9.04
  12 -17   8   92.68   17.80
  13 -17   8    9.21    8.61
  -4 -16   8   -0.50    3.17
  -3 -16   8   -1.39    2.37
  -2 -16   8   16.58    5.14
  -1 -16   8   41.86    7.33
   0 -16   8   22.41    5.35
   1 -16   8    4.44    2.61
   2 -16   8    1.80    2.52
   3 -16   8   37.98    6.36
   4 -16   8   25.65    5.28
   5 -16   8   88.89   13.83
   5 -16   8   65.99    7.85
   6 -16   8    6.98    7.05
   7 -16   8   62.05   12.60
   8 -16   8  150.56   19.00
   9 -16   8   20.28    9.42
  10 -16   8   13.35    8.05
  11 -16   8   20.56    9.34
  12 -16   8   12.27    8.58
  13 -16   8   16.24   10.15
  14 -16   8   -1.28    8.43
  -5 -15   8   14.14    4.51
  -4 -15   8   -5.47    2.70
  -3 -15   8   -5.99    2.10
  -2 -15   8    4.48    3.57
  -1 -15   8    1.98    2.79
   0 -15   8   28.86    5.81
   1 -15   8   -1.59    1.61
   2 -15   8   -2.40    1.77
   3 -15   8   93.88    8.90
   4 -15   8  240.10   22.03
   4 -15   8  238.05   16.57
   5 -15   8    3.69    2.38
   5 -15   8    7.67    6.30
   6 -15   8   82.28   13.78
   7 -15   8  131.57   17.19
   8 -15   8   26.55    9.41
   9 -15   8   37.03   10.98
  10 -15   8   41.17   11.60
  11 -15   8   39.01   12.05
  12 -15   8   34.69   11.47
  13 -15   8    0.12    8.32
  14 -15   8    2.80    8.46
  -7 -14   8    3.41    3.32
  -6 -14   8    1.27    2.41
  -5 -14   8    0.69    2.49
  -4 -14   8    3.94    3.24
  -3 -14   8   -3.89    1.78
  -2 -14   8  110.05   10.22
  -1 -14   8   65.36    8.02
   0 -14   8    0.68    2.21
   1 -14   8   38.90    6.08
   2 -14   8    4.90    2.81
   3 -14   8    6.57    2.76
   3 -14   8    7.50    6.06
   4 -14   8   64.88   11.37
   4 -14   8   72.31    7.12
   5 -14   8   13.36    3.32
   5 -14   8    8.76    6.82
   6 -14   8   24.50    8.83
   7 -14   8   23.25    8.85
   8 -14   8   -3.53    5.25
   9 -14   8  174.60   20.97
  10 -14   8   61.07   13.21
  11 -14   8    2.45    6.57
  12 -14   8   -3.40    7.41
  13 -14   8   14.69   10.64
  14 -14   8    0.38    5.78
  15 -14   8   -3.92    6.64
  -8 -13   8   -3.75    2.28
  -7 -13   8    2.58    2.43
  -6 -13   8   -3.18    2.04
  -5 -13   8   61.23    8.14
  -4 -13   8    2.34    2.71
  -3 -13   8    7.52    3.36
  -2 -13   8  255.50   17.70
  -1 -13   8   38.83    6.11
   0 -13   8   -0.38    1.61
   1 -13   8    2.52    2.01
   2 -13   8   16.91    6.74
   2 -13   8   20.33    4.13
   3 -13   8   59.70   10.39
   3 -13   8   70.72    7.30
   4 -13   8   37.70    5.03
   4 -13   8   36.67    8.89
   5 -13   8   12.65    6.47
   5 -13   8    8.15    2.51
   6 -13   8   -3.83    4.22
   7 -13   8   -2.35    4.58
   8 -13   8   11.89    7.43
   9 -13   8   30.40    9.54
  10 -13   8   18.08    8.81
  11 -13   8    7.72    7.86
  12 -13   8   -0.83    7.02
  13 -13   8   13.30    9.82
  14 -13   8   -4.97    7.94
  15 -13   8   -3.30    6.67
  -9 -12   8    2.13    3.22
  -8 -12   8   -1.95    1.93
  -7 -12   8   34.84    6.21
  -6 -12   8   31.64    5.86
  -5 -12   8   18.62    4.45
  -4 -12   8   -1.28    2.30
  -3 -12   8  107.27    9.73
  -2 -12   8  196.41   14.23
  -1 -12   8    8.82    3.27
   0 -12   8   66.28    7.15
   1 -12   8   97.71   11.21
   1 -12   8   74.45    7.31
   2 -12   8   41.02    5.26
   2 -12   8   40.90    8.30
   3 -12   8   23.04    7.20
   3 -12   8   27.33    4.22
   4 -12   8    3.21    5.06
   4 -12   8    4.35    2.04
   5 -12   8    8.84    5.51
   6 -12   8   -0.05    4.78
   7 -12   8   -4.01    4.70
   8 -12   8   -3.87    4.34
   9 -12   8    8.35    6.49
  10 -12   8   60.22   12.55
  11 -12   8    7.69    8.47
  12 -12   8   52.55   13.71
 -12  12  -8   53.84    6.90
 -13  12  -8    0.06    2.59
  13 -12   8   -2.27    7.88
  14 -12   8   -0.67    7.94
 -14  12  -8   -2.84    2.44
  15 -12   8    0.84    9.14
 -15  12  -8    0.79    3.13
  16 -12   8   19.39   13.36
 -10 -11   8    4.97    3.21
  -9 -11   8   27.57    5.64
  -8 -11   8    4.57    2.79
  -7 -11   8   19.52    4.76
  -6 -11   8   16.23    4.18
  -5 -11   8    1.70    1.93
  -4 -11   8    0.16    2.12
  -3 -11   8   26.47    4.91
  -2 -11   8   10.73    3.39
  -1 -11   8    7.86    2.84
   0 -11   8  110.93    8.94
   0 -11   8  116.32   11.80
   1 -11   8  240.14   18.86
   1 -11   8  227.22   15.06
   2 -11   8   25.01    3.90
   2 -11   8    9.59    5.76
   3 -11   8  282.44   22.62
   3 -11   8  278.37   17.12
   4 -11   8   52.38    8.92
   4 -11   8   41.72    4.69
   5 -11   8   15.58    6.50
   5 -11   8   14.72    2.72
   6 -11   8   35.25    8.83
   7 -11   8    0.42    5.16
   8 -11   8   25.79    8.41
   9 -11   8   51.54   11.09
 -10  11  -8    1.06    2.43
  10 -11   8    8.15    7.29
 -11  11  -8    8.64    3.27
  11 -11   8    7.57    8.04
  12 -11   8   15.58   10.04
 -12  11  -8   13.39    3.77
 -13  11  -8   14.38    3.92
  13 -11   8   12.14    9.70
  14 -11   8   -6.27    7.57
 -14  11  -8    0.20    2.50
  15 -11   8   15.83   11.33
 -15  11  -8   21.41    4.92
 -16  11  -8   10.52    3.73
  16 -11   8    3.69   10.60
 -11 -10   8   28.10    5.70
 -10 -10   8    7.24    3.33
  -9 -10   8    2.79    2.37
  -8 -10   8   36.79    6.01
  -7 -10   8   37.00    5.85
  -6 -10   8   43.31    6.45
  -5 -10   8    9.73    3.28
  -4 -10   8   10.86    3.46
  -3 -10   8   20.68    4.23
  -2 -10   8    7.36    2.81
  -1 -10   8   31.85    6.21
  -1 -10   8   31.54    4.71
   0 -10   8  199.27   16.58
   0 -10   8  211.17   13.74
   1 -10   8   -1.79    1.09
   1 -10   8   -1.24    3.78
   2 -10   8    2.21    4.12
   2 -10   8    2.61    1.48
   3 -10   8  111.29   12.41
   3 -10   8  116.82    8.40
   4 -10   8   73.95   10.48
   5 -10   8   11.90    6.22
   5 -10   8    8.95    2.21
   6 -10   8   39.94    8.76
   7 -10   8   57.68   10.46
   8 -10   8    2.15    5.29
   9 -10   8  210.73   21.61
  -9  10  -8  224.61   13.78
  10 -10   8   20.96    8.75
 -10  10  -8   28.27    4.74
  11 -10   8   14.00    8.51
 -11  10  -8    8.73    3.23
  12 -10   8   11.63    8.25
 -12  10  -8   15.16    3.73
  13 -10   8   -5.75    6.27
 -13  10  -8    4.36    2.68
  14 -10   8   71.10   15.61
 -14  10  -8   61.11    7.75
 -15  10  -8   71.39    8.77
  15 -10   8   66.02   15.38
  16 -10   8    0.25    9.32
 -16  10  -8    5.92    3.43
 -12  -9   8   27.67    5.58
 -11  -9   8   13.07    4.27
 -10  -9   8    9.13    3.50
  -9  -9   8   26.41    5.56
  -8  -9   8   38.18    6.34
  -7  -9   8   55.46    7.15
  -6  -9   8   10.33    3.40
  -5  -9   8    7.42    2.79
  -4  -9   8   21.44    4.15
  -3  -9   8    0.48    1.59
  -2  -9   8   -1.33    1.35
  -1  -9   8  106.64    8.06
  -1  -9   8   91.99    9.71
   0  -9   8   34.02    6.37
   0  -9   8   32.30    4.27
   1  -9   8   64.29    8.68
   1  -9   8   75.06    6.20
   2  -9   8    5.03    1.88
   2  -9   8    4.65    4.50
   3  -9   8   15.02    5.84
   3  -9   8    5.51    1.76
   4  -9   8   87.77    6.37
   4  -9   8   85.77   10.99
   5  -9   8    5.93    5.16
   6  -9   8  165.11   16.31
   7  -9   8  136.02   15.13
   8  -9   8   64.63   11.88
  -8   9  -8   76.02    7.06
   9  -9   8    7.44    6.68
  -9   9  -8   11.18    3.18
 -10   9  -8   50.86    6.20
  10  -9   8   66.99   12.44
  11  -9   8    0.05    6.30
 -11   9  -8    2.25    2.14
 -12   9  -8   17.76    4.15
  12  -9   8    8.33    8.21
 -13   9  -8   22.78    4.81
  13  -9   8   19.05   10.06
  14  -9   8   50.32   13.79
 -14   9  -8   62.91    7.79
 -15   9  -8   24.90    5.02
  15  -9   8   26.05   11.46
 -16   9  -8    1.02    2.76
  16  -9   8    1.17    9.15
 -12  -8   8   48.43    7.36
 -11  -8   8    3.88    2.48
 -10  -8   8    5.95    3.16
  -9  -8   8    0.53    2.04
  -8  -8   8   75.60    8.22
  -7  -8   8   -1.85    1.56
  -6  -8   8   66.83    7.18
  -5  -8   8   -0.06    1.35
  -4  -8   8   24.47    4.14
  -3  -8   8   12.18    2.98
  -2  -8   8   18.29    3.40
  -2  -8   8   24.36    4.61
  -1  -8   8    9.20    3.79
  -1  -8   8    6.97    2.16
   0  -8   8   12.69    2.66
   0  -8   8   10.21    4.04
   1  -8   8   80.28    9.24
   1  -8   8   80.41    6.35
   2  -8   8    5.93    3.87
   2  -8   8    2.75    1.43
   3  -8   8    0.24    0.88
   3  -8   8    4.41    3.97
   4  -8   8    0.31    3.59
   4  -8   8    1.30    0.97
   5  -8   8  252.04   20.93
   5  -8   8  255.72   14.21
   6  -8   8   63.44    9.98
   7  -8   8  239.10   21.93
  -7   8  -8  267.27   14.86
   8  -8   8   -0.73    5.65
  -8   8  -8    2.07    2.01
   9  -8   8    7.09    7.10
  -9   8  -8    0.68    1.75
 -10   8  -8  144.75   10.22
  10  -8   8  144.05   17.34
 -11   8  -8   -2.14    1.70
  11  -8   8   -1.96    5.83
  12  -8   8   89.91   14.57
 -12   8  -8   77.60    8.09
  13  -8   8   57.58   12.72
 -13   8  -8   61.78    7.49
  14  -8   8   71.17   14.70
 -14   8  -8   55.36    7.35
  15  -8   8    8.19    9.49
 -15   8  -8    1.97    2.73
 -16   8  -8   13.11    3.76
 -13  -7   8   74.80    8.98
 -12  -7   8   15.75    4.28
 -11  -7   8    4.17    2.54
 -10  -7   8   19.36    4.48
  -9  -7   8   80.15    8.41
  -8  -7   8   37.63    5.66
  -7  -7   8  176.91   12.84
  -6  -7   8  151.93   11.09
  -5  -7   8   65.24    6.22
  -4  -7   8   17.16    3.40
  -3  -7   8    2.84    1.65
  -3  -7   8    2.36    2.61
  -2  -7   8    1.39    1.31
  -2  -7   8   -3.09    2.36
  -1  -7   8  110.13    8.10
  -1  -7   8  118.86   10.29
   0  -7   8   61.62    7.45
   0  -7   8   57.54    5.07
   1  -7   8  415.32   28.51
   1  -7   8  425.25   23.27
   2  -7   8  290.36   16.91
   2  -7   8  316.11   22.20
   3  -7   8  272.57   15.18
   3  -7   8  260.72   20.46
   4  -7   8   10.32    1.74
   4  -7   8   16.47    5.36
   5  -7   8  243.87   13.14
   5  -7   8  227.50   19.58
   6  -7   8  305.49   24.39
  -6   7  -8  316.03   16.94
   7  -7   8  209.16   19.69
  -7   7  -8  222.23   12.88
   8  -7   8  155.20   16.55
  -8   7  -8  153.12   10.15
  -9   7  -8   23.43    4.06
   9  -7   8   23.43    8.24
 -10   7  -8  108.12    8.73
  10  -7   8  138.89   16.25
 -11   7  -8    3.12    2.41
  11  -7   8   -4.27    5.81
  12  -7   8  179.81   19.63
 -12   7  -8  163.92   11.74
  13  -7   8   82.88   14.31
 -13   7  -8   50.90    6.67
 -14   7  -8   20.91    4.24
  14  -7   8   17.76    9.05
 -15   7  -8    1.46    2.60
 -13  -6   8   91.00    9.84
 -12  -6   8    3.74    2.35
 -11  -6   8   22.93    4.93
 -10  -6   8   13.26    3.51
  -9  -6   8   23.73    4.53
  -8  -6   8    3.33    1.82
  -7  -6   8   13.35    3.37
  -6  -6   8    1.93    1.34
  -5  -6   8    0.83    1.54
  -4  -6   8   18.72    3.32
  -4  -6   8   14.86    3.09
  -3  -6   8   -0.18    2.27
  -3  -6   8    0.49    1.37
  -2  -6   8  145.09    9.88
  -2  -6   8  151.41   11.57
  -1  -6   8    1.58    1.25
  -1  -6   8    1.10    2.49
   0  -6   8    0.29    1.11
   0  -6   8    2.00    2.68
   1  -6   8  225.27   13.04
   1  -6   8  218.90   16.85
   2  -6   8  457.35   30.79
   3  -6   8    0.91    3.29
   3  -6   8    0.05    0.73
   4  -6   8   14.16    1.71
   4  -6   8    5.73    4.16
   5  -6   8  271.62   13.97
   5  -6   8  249.63   20.52
  -5   6  -8  251.79   14.33
  -6   6  -8    6.17    2.03
   6  -6   8    1.76    4.35
   7  -6   8  147.34   15.09
  -7   6  -8  139.29    9.29
   8  -6   8  272.33   23.40
  -8   6  -8  273.79   15.47
  -9   6  -8   46.59    5.53
   9  -6   8   46.55    9.80
 -10   6  -8   91.44    7.67
  10  -6   8  104.15   14.13
  11  -6   8   89.75   13.82
 -11   6  -8   96.52    8.03
  12  -6   8  208.43   20.84
 -12   6  -8  191.07   13.03
  13  -6   8   10.60    8.07
 -13   6  -8    8.58    3.08
 -14   6  -8   -3.30    2.03
 -15   6  -8    6.72    3.03
 -14  -5   8    0.00    2.48
 -13  -5   8   12.34    3.69
 -12  -5   8   -0.21    1.96
 -11  -5   8   11.57    3.27
 -10  -5   8   13.24    3.36
  -9  -5   8  102.59    8.71
  -8  -5   8    2.13    1.75
  -7  -5   8   34.44    4.93
  -6  -5   8   12.88    3.02
  -5  -5   8  252.94   15.64
  -5  -5   8  252.44   16.52
  -4  -5   8   50.09    4.84
  -4  -5   8   54.59    5.54
  -3  -5   8   82.90    7.24
  -3  -5   8   75.56    6.13
  -2  -5   8    7.97    1.94
  -2  -5   8    7.98    3.02
  -1  -5   8  378.57   24.90
  -1  -5   8  380.13   21.01
   0  -5   8  253.39   14.28
   0  -5   8  244.36   17.77
   1  -5   8  623.49   31.97
   1  -5   8  584.50   38.70
   2  -5   8  589.15   39.28
   2  -5   8  627.16   31.98
   3  -5   8  188.64   15.44
   3  -5   8  187.03   10.51
   4  -5   8   87.28    9.88
   4  -5   8   85.73    5.10
  -4   5  -8   74.03    6.02
  -5   5  -8  115.90    7.64
   5  -5   8  108.17   11.79
   6  -5   8   70.79    9.55
  -6   5  -8   64.47    5.88
   7  -5   8  510.29   35.47
  -7   5  -8  483.39   24.78
   8  -5   8  124.01   13.99
  -8   5  -8  115.94    8.33
   9  -5   8    0.20    5.21
  -9   5  -8    5.31    2.11
 -10   5  -8    4.89    2.36
  10  -5   8   -4.77    5.01
 -11   5  -8   26.03    4.47
  11  -5   8   23.06    8.21
 -12   5  -8    2.34    2.13
  12  -5   8    6.35    6.87
 -13   5  -8    0.96    2.11
 -14   5  -8    7.04    3.00
 -15   5  -8    8.06    3.63
 -15  -4   8   12.60    3.30
 -14  -4   8   -3.04    1.56
 -13  -4   8    2.64    2.03
 -12  -4   8    4.69    2.55
 -11  -4   8   30.57    4.86
 -10  -4   8   28.78    4.81
  -9  -4   8  548.64   31.63
  -8  -4   8   50.67    5.93
  -7  -4   8   19.30    3.50
  -6  -4   8   36.92    4.58
  -6  -4   8   40.34    4.13
  -5  -4   8  191.00   12.77
  -5  -4   8  181.17   11.93
  -4  -4   8  135.29    9.35
  -4  -4   8  146.48   10.33
  -3  -4   8  116.66    9.34
  -3  -4   8  124.02    8.25
  -2  -4   8    0.47    0.92
  -2  -4   8    5.07    2.45
  -1  -4   8   47.56    5.50
  -1  -4   8   39.94    3.71
   0  -4   8  536.21   27.85
   0  -4   8  508.66   33.45
   1  -4   8   17.79    4.12
   2  -4   8    3.65    3.19
   2  -4   8    0.75    0.74
   3  -4   8   10.30    1.38
   3  -4   8   12.63    4.30
  -3   4  -8   14.93    2.77
   4  -4   8   43.07    6.89
   4  -4   8   47.58    3.05
  -4   4  -8   40.29    4.27
  -5   4  -8  186.01   10.93
   5  -4   8  189.69   16.12
  -6   4  -8   90.17    6.48
   6  -4   8   78.26   10.29
  -7   4  -8  108.38    7.60
   7  -4   8  102.78   12.30
  -8   4  -8   42.26    5.01
   8  -4   8   47.44    9.00
  -9   4  -8    7.20    2.22
   9  -4   8    3.19    6.05
  10  -4   8   36.27    8.90
 -10   4  -8   35.64    5.08
  11  -4   8   11.45    6.94
 -11   4  -8   13.19    3.32
 -12   4  -8    1.73    2.00
 -13   4  -8    0.80    2.17
 -14   4  -8   11.42    3.34
 -15   4  -8    6.48    2.71
 -15  -3   8    3.22    2.45
 -14  -3   8   32.62    5.15
 -13  -3   8    0.25    1.77
 -12  -3   8    8.08    2.61
 -11  -3   8    5.91    2.19
 -10  -3   8    1.90    1.49
  -9  -3   8   65.57    6.20
  -8  -3   8   63.35    5.97
  -7  -3   8   71.10    5.93
  -7  -3   8   71.09    6.16
  -6  -3   8   39.10    4.08
  -6  -3   8   31.46    4.13
  -5  -3   8  394.81   24.19
  -5  -3   8  368.32   21.65
  -4  -3   8   36.15    3.86
  -4  -3   8   30.46    3.81
  -3  -3   8    2.42    1.35
  -3  -3   8    3.34    1.90
  -2  -3   8   54.09    5.52
  -2  -3   8   54.55    4.43
  -1  -3   8   21.04    3.75
   0  -3   8  412.06   26.82
   1  -3   8  194.87   14.76
   2  -3   8  289.17   19.98
  -2   3  -8  268.31   14.40
   3  -3   8  250.18   18.24
  -3   3  -8  233.62   12.77
  -4   3  -8  280.95   14.71
   4  -3   8  275.69   20.68
   5  -3   8    2.51    3.63
  -5   3  -8    6.37    1.84
   6  -3   8   46.61    7.85
  -6   3  -8   49.34    4.89
  -7   3  -8  198.57   11.54
   7  -3   8  177.41   16.68
   8  -3   8   12.43    6.07
  -8   3  -8   10.61    2.80
   9  -3   8    4.55    5.49
  -9   3  -8    5.07    2.14
  10  -3   8   34.85    8.11
 -10   3  -8   27.15    4.50
 -11   3  -8   31.72    5.05
  11  -3   8   37.56    9.30
 -12   3  -8   15.66    3.73
 -13   3  -8   -0.86    2.31
 -14   3  -8    5.64    2.59
 -16  -2   8   -0.91    2.04
 -15  -2   8   30.10    5.13
 -14  -2   8    9.83    2.48
 -13  -2   8    8.37    2.66
 -12  -2   8   11.93    3.10
 -11  -2   8    7.52    2.41
 -10  -2   8    1.10    1.35
  -9  -2   8   40.10    4.90
  -8  -2   8    6.69    1.59
  -8  -2   8    3.31    1.70
  -8  -2   8    5.50    2.00
  -7  -2   8  101.40    7.71
  -7  -2   8   86.69    7.17
  -6  -2   8   16.96    2.92
  -6  -2   8   19.09    3.12
  -5  -2   8   19.63    2.96
  -5  -2   8   17.79    2.90
  -4  -2   8   18.28    2.93
  -3  -2   8   -0.07    1.46
  -2  -2   8    7.94    2.45
  -1  -2   8   51.32    5.63
   0  -2   8   20.15    3.68
   1  -2   8  840.28   51.75
  -2   2  -8  229.81   12.31
   2  -2   8  236.78   17.18
   3  -2   8   91.22    9.29
  -3   2  -8   96.81    6.37
  -4   2  -8   39.38    4.04
   4  -2   8   48.08    6.96
  -5   2  -8  306.04   15.87
   5  -2   8  303.92   22.28
  -5   2  -8  298.94   16.81
   6  -2   8   13.60    5.25
  -6   2  -8   13.39    2.86
   7  -2   8    8.03    5.09
  -7   2  -8    5.25    2.11
   8  -2   8   26.63    7.24
  -8   2  -8   24.27    4.08
   9  -2   8    7.84    5.69
  -9   2  -8    4.00    2.21
 -10   2  -8   11.28    3.09
  10  -2   8    7.76    5.73
 -11   2  -8    8.81    2.66
 -12   2  -8   20.25    4.25
 -13   2  -8   32.44    5.67
 -14   2  -8    8.24    3.30
 -16  -1   8   11.48    3.13
 -15  -1   8    3.05    2.30
 -14  -1   8    5.23    2.37
 -13  -1   8    8.36    2.39
 -12  -1   8   61.95    6.04
 -11  -1   8   44.55    5.26
 -10  -1   8   -0.38    1.39
  -9  -1   8   34.83    3.67
  -9  -1   8   37.33    4.50
  -9  -1   8   38.02    4.66
  -8  -1   8   69.10    5.99
  -8  -1   8   59.68    5.02
  -8  -1   8   80.57    6.52
  -7  -1   8  125.35    9.47
  -7  -1   8  116.78    8.58
  -7  -1   8  123.64    7.96
  -6  -1   8   44.44    4.56
  -6  -1   8   36.97    3.51
  -5  -1   8   44.22    4.68
  -4  -1   8   65.93    6.00
  -3  -1   8  307.42   19.99
  -2  -1   8  194.94   13.65
  -1  -1   8   29.42    4.07
   0  -1   8 1666.70   99.17
  -1   1  -8   99.80    6.21
   1  -1   8   87.63    8.50
   2  -1   8    8.44    3.22
  -2   1  -8   10.27    2.08
   3  -1   8  167.61   13.61
  -3   1  -8  171.40   10.51
  -3   1  -8  165.96    9.51
   4  -1   8  144.76   12.42
  -4   1  -8  145.92    8.61
  -4   1  -8  138.94    9.08
   5  -1   8   22.65    5.19
  -5   1  -8   18.96    3.03
  -5   1  -8   14.12    2.43
  -6   1  -8    1.95    1.43
   6  -1   8    5.79    4.15
  -7   1  -8   15.32    3.04
   7  -1   8   19.61    5.73
  -8   1  -8  118.55    8.85
   8  -1   8  140.14   13.92
  -9   1  -8    0.18    1.79
   9  -1   8    3.15    4.61
 -10   1  -8   14.77    3.63
 -11   1  -8    5.13    2.78
 -12   1  -8   40.63    6.29
 -13   1  -8   -2.28    2.60
 -14   1  -8    0.08    3.29
 -17   0   8    2.65    2.34
 -16   0   8    1.21    1.89
 -15   0   8   -0.37    1.69
 -14   0   8   49.69    6.21
 -13   0   8    2.47    1.69
 -12   0   8   60.03    5.78
 -11   0   8   26.73    4.11
  10   0  -8  178.85   14.62
 -10   0   8  173.87   11.78
  -9   0   8   -0.38    1.03
   9   0  -8   -0.09    3.12
  -8   0   8  259.26   15.74
  -7   0   8  252.62   14.38
  -7   0   8  249.83   17.00
  -6   0   8   41.03    4.52
  -6   0   8   37.49    3.61
  -5   0   8   13.31    2.30
  -5   0   8   14.02    2.82
  -4   0   8   18.19    3.11
  -3   0   8  161.55   11.64
  -2   0   8   91.76    7.64
  -1   0   8 1349.39   80.57
   0   0  -8  110.97    6.65
   0   0   8  104.59    8.96
   1   0   8    5.07    2.65
  -1   0  -8    1.52    1.64
  -1   0  -8    2.95    1.31
  -2   0  -8  151.46   10.02
   2   0   8  162.93   12.42
  -2   0  -8  154.37    8.76
   3   0   8    6.24    3.27
  -3   0  -8    5.60    1.97
  -3   0  -8    7.71    1.88
  -4   0  -8    9.41    2.21
   4   0   8    7.29    3.52
  -4   0  -8    6.23    1.81
  -5   0  -8   64.32    5.15
  -5   0  -8   48.57    4.89
   5   0   8   70.85    8.26
  -6   0  -8   19.57    3.44
  -6   0  -8   19.12    3.17
   6   0   8   25.16    5.65
   7   0   8   95.79   10.87
  -7   0  -8  105.30    7.73
  -9   0  -8    3.87    2.11
 -10   0  -8    1.82    1.79
 -11   0  -8   65.41    7.74
 -12   0  -8   30.77    5.65
 -13   0  -8   -0.89    2.29
 -17   1   8    0.69    2.40
 -16   1   8   26.94    4.64
 -15   1   8   21.75    3.96
 -14   1   8   10.46    2.83
 -13   1   8    1.14    1.48
 -12   1   8   22.78    3.75
  11  -1  -8   10.03    4.89
 -11   1   8   13.27    3.00
   9  -1  -8    4.48    2.67
   8  -1  -8  488.42   32.57
   7  -1  -8   76.16    8.42
  -5   1   8    1.67    1.60
  -5   1   8    0.51    1.06
  -4   1   8    0.71    1.44
  -4   1   8   -0.29    0.94
  -3   1   8  206.76   14.32
  -2   1   8  981.60   59.19
  -1   1   8  739.06   44.99
   1  -1  -8  725.65   39.54
   0  -1  -8   43.84    4.56
   0   1   8   37.31    4.72
   0  -1  -8   34.63    3.27
   1   1   8  182.12   13.75
  -1  -1  -8  183.97   11.71
  -1  -1  -8  188.23    9.89
  -2  -1  -8   61.36    5.39
  -2  -1  -8   55.04    4.45
   2   1   8   71.51    7.04
  -3  -1  -8    0.99    1.43
  -3  -1  -8   -1.30    0.89
   3   1   8   -2.97    2.02
   4   1   8   13.83    4.24
  -4  -1  -8   20.54    3.19
  -4  -1  -8   20.17    3.12
  -5  -1  -8    2.97    1.99
   5   1   8    0.78    3.29
  -5  -1  -8    1.55    1.42
   6   1   8    0.37    1.26
  -6  -1  -8    3.36    2.16
  -6  -1  -8    1.66    1.37
   7   1   8   13.56    5.14
  -7  -1  -8   10.78    2.88
  -8  -1  -8    7.31    2.48
  -9  -1  -8   13.16    3.37
 -10  -1  -8  160.94   11.41
 -11  -1  -8   72.44    8.01
 -12  -1  -8   17.09    4.58
 -13  -1  -8   -1.15    3.03
 -18   2   8    6.50    2.42
 -17   2   8    1.54    2.24
 -16   2   8   20.58    3.94
 -15   2   8   95.21    8.06
 -14   2   8   16.47    3.62
 -13   2   8    3.87    1.90
 -12   2   8    2.43    1.39
  12  -2  -8    1.10    1.64
 -11   2   8   13.58    2.85
  11  -2  -8    3.52    4.72
  10  -2  -8   73.52    9.37
   9  -2  -8    7.81    4.14
   8  -2  -8   71.16    8.72
   7  -2  -8  227.28   17.77
   6  -2  -8   84.28    9.21
  -5   2   8   26.64    3.94
  -5   2   8   28.09    3.32
  -4   2   8   24.38    3.05
  -4   2   8   18.67    3.32
  -3   2   8    0.97    1.51
  -3   2   8    0.04    1.04
  -2   2   8  627.95   39.87
   2  -2  -8  667.87   35.56
   1  -2  -8   27.47    4.00
  -1   2   8   32.32    4.13
   0   2   8   79.62    7.52
   0  -2  -8   83.53    6.78
   0  -2  -8   80.15    5.08
  -1  -2  -8   51.11    4.95
   1   2   8   50.15    5.70
  -1  -2  -8   44.19    3.68
  -2  -2  -8   54.17    4.23
   2   2   8   51.85    6.00
  -2  -2  -8   53.03    5.21
   3   2   8   82.86    8.32
  -3  -2  -8   96.47    6.15
  -3  -2  -8   78.71    6.95
  -4  -2  -8   49.45    4.72
  -4  -2  -8   52.28    5.50
  -5  -2  -8    0.99    1.85
   5   2   8    0.78    1.97
  -5  -2  -8   -0.02    1.40
   6   2   8   83.72    9.78
  -6  -2  -8   86.37    6.74
  -6  -2  -8   98.68    7.96
  -7  -2  -8  373.59   19.98
  -8  -2  -8   13.55    3.32
  -9  -2  -8   13.32    3.38
 -10  -2  -8  126.99    9.82
 -11  -2  -8    7.18    2.85
 -12  -2  -8    0.51    2.60
 -18   3   8    2.80    2.62
 -17   3   8    9.67    2.93
 -16   3   8   54.15    6.44
 -15   3   8   97.05    7.87
 -14   3   8   38.55    5.02
 -13   3   8   22.57    3.66
  13  -3  -8   22.84    6.87
 -12   3   8    3.99    1.61
  12  -3  -8    7.83    5.43
  11  -3  -8    1.96    4.60
  10  -3  -8   21.55    6.23
   9  -3  -8   82.75   10.21
   8  -3  -8   79.17    9.50
   7  -3  -8    5.41    3.72
   6  -3  -8   -1.73    3.03
   5  -3  -8   -3.55    2.45
  -4   3   8   95.13    6.93
  -4   3   8  105.14    8.41
   4  -3  -8   95.40    8.34
   3  -3  -8  367.58   22.35
  -3   3   8  395.71   24.90
  -3   3   8  379.62   21.01
  -2   3   8  118.71    9.42
   2  -3  -8  120.10    8.97
   1  -3  -8  110.56    8.35
  -1   3   8  106.44    8.99
   1  -3  -8  111.13    6.13
   0  -3  -8   20.65    2.32
   0  -3  -8   33.89    4.16
   1   3   8   16.59    3.58
  -1  -3  -8   22.83    3.67
  -1  -3  -8   24.28    2.68
  -2  -3  -8  159.65    8.74
   2   3   8  141.36   11.72
  -2  -3  -8  148.34   10.56
  -3  -3  -8   11.85    2.34
  -3  -3  -8   12.56    3.29
  -4  -3  -8    1.90    2.16
   4   3   8    3.02    3.24
  -4  -3  -8   -1.64    1.06
   5   3   8   40.37    6.46
  -5  -3  -8   50.20    5.11
  -5  -3  -8   60.68    6.21
  -6  -3  -8  289.59   16.91
  -6  -3  -8  336.00   19.87
  -7  -3  -8  108.70    8.21
  -8  -3  -8    5.71    2.32
  -9  -3  -8   27.33    4.80
 -10  -3  -8   27.23    5.26
 -11  -3  -8    2.51    2.72
 -12  -3  -8   -1.98    2.70
 -18   4   8    2.04    2.61
 -17   4   8   42.57    6.01
 -16   4   8   57.24    6.68
 -15   4   8    2.33    1.87
  14  -4  -8   23.58    8.11
 -14   4   8   25.22    3.92
  13  -4  -8   21.59    7.72
 -13   4   8   35.91    4.37
 -12   4   8   12.07    2.51
  12  -4  -8   12.04    6.91
  11  -4  -8    7.91    5.73
  10  -4  -8    8.63    5.80
   9  -4  -8   10.85    5.20
   8  -4  -8   90.02   10.65
   7  -4  -8    7.62    4.41
   6  -4  -8   -3.39    3.16
   5  -4  -8    0.03    3.05
   5  -4  -8    0.35    2.07
  -4   4   8  307.64   18.31
  -4   4   8  339.55   21.86
   4  -4  -8  338.36   20.14
  -3   4   8   59.67    6.15
   3  -4  -8   63.56    6.23
  -3   4   8   68.53    5.39
   2  -4  -8   -0.49    1.59
  -2   4   8    1.68    1.70
  -2   4   8    1.05    1.26
   1  -4  -8    3.83    2.11
   1  -4  -8    3.38    1.11
  -1   4   8    6.65    2.47
   0   4   8   53.25    5.82
   0  -4  -8   51.29    5.69
   1   4   8  103.82    9.36
  -1  -4  -8  129.74    7.05
  -1  -4  -8  109.48    8.89
  -2  -4  -8  693.81   37.85
  -2  -4  -8  663.82   31.61
  -3  -4  -8   98.05    6.57
   3   4   8   88.52    8.90
  -3  -4  -8  105.12    8.54
  -4  -4  -8  196.66   14.17
   4   4   8  233.05   16.33
  -4  -4  -8  195.08   11.81
  -5  -4  -8  126.17   10.49
  -5  -4  -8  136.51    8.89
  -6  -4  -8  134.01    9.17
  -6  -4  -8  132.29   10.75
  -7  -4  -8    1.07    1.79
  -8  -4  -8   24.93    4.41
  -9  -4  -8    1.44    1.80
 -10  -4  -8   12.67    3.51
 -11  -4  -8    9.24    4.04
 -19   5   8    1.50    1.79
 -18   5   8   21.86    4.06
 -17   5   8   30.72    4.57
 -16   5   8    0.41    1.63
 -15   5   8   29.07    4.25
  14  -5  -8   78.19   12.57
 -14   5   8   62.89    6.12
 -13   5   8    2.08    1.39
  13  -5  -8    6.51    6.40
 -12   5   8   38.33    4.15
  12  -5  -8   43.12    9.38
  11  -5  -8   25.71    7.83
 -11   5   8   33.27    3.64
  10  -5  -8   62.60   10.21
   9  -5  -8   35.53    7.86
   8  -5  -8   10.69    5.16
   7  -5  -8  319.59   24.22
   6  -5  -8    4.24    3.82
   6  -5  -8   10.11    3.59
   5  -5  -8   -1.14    3.14
   5  -5  -8   -2.09    1.59
   4  -5  -8   85.60    7.69
  -3   5   8  791.77   41.23
  -3   5   8  776.79   48.54
   3  -5  -8  799.89   43.18
   2  -5  -8   26.70    2.30
  -2   5   8   27.58    3.51
  -2   5   8   26.18    4.13
   2  -5  -8   26.07    4.32
   1  -5  -8  216.28   15.50
  -1   5   8  265.13   17.32
   1  -5  -8  251.89   12.09
   0  -5  -8   31.87    2.98
   0  -5  -8   23.37    4.35
   0   5   8   29.02    4.24
  -1  -5  -8   75.74    5.39
  -1  -5  -8  102.97    8.33
  -2  -5  -8  338.03   20.41
   2   5   8  307.34   21.81
  -2  -5  -8  321.78   16.24
  -3  -5  -8    1.83    2.60
  -3  -5  -8    8.09    2.11
  -4  -5  -8   72.51    5.87
  -4  -5  -8   72.01    7.82
  -5  -5  -8   77.69    6.47
  -5  -5  -8   87.28    8.25
  -6  -5  -8    3.03    2.70
  -6  -5  -8    0.36    1.62
  -7  -5  -8   52.93    6.30
  -8  -5  -8    2.43    2.18
  -9  -5  -8    2.46    2.27
 -10  -5  -8    3.35    3.01
 -11  -5  -8   11.84    4.37
 -16   6   8    1.64    1.80
  15  -6  -8   -8.53    5.29
 -15   6   8    0.34    1.45
 -14   6   8   59.76    5.78
  14  -6  -8   79.99   12.78
  13  -6  -8   -4.58    4.84
 -13   6   8   -1.85    1.07
  12  -6  -8    5.53    6.52
 -12   6   8    9.26    1.97
 -11   6   8   17.16    2.52
  11  -6  -8   23.23    8.24
 -10   6   8   17.85    2.38
  10  -6  -8   19.71    7.44
   9  -6  -8   27.05    7.73
  -9   6   8   22.71    2.35
   8  -6  -8  114.68   13.08
   7  -6  -8   43.15    7.95
   7  -6  -8   44.83    6.24
   6  -6  -8   33.76    5.34
   6  -6  -8   31.77    7.14
   5  -6  -8  232.74   16.10
   5  -6  -8  267.20   20.38
   4  -6  -8  123.12   12.56
   4  -6  -8  139.00   10.49
  -3   6   8   46.29    5.66
   3  -6  -8   54.86    6.16
  -3   6   8   49.13    4.65
   2  -6  -8    0.25    0.60
   2  -6  -8    2.25    2.29
  -2   6   8   -0.06    1.65
  -2   6   8    0.90    1.11
   1  -6  -8    2.00    2.22
  -1   6   8    5.10    2.45
   1  -6  -8    3.38    1.11
   0  -6  -8  447.32   21.52
   0   6   8  457.49   29.30
   0  -6  -8  462.31   27.23
   1   6   8  121.39   10.03
  -2  -6  -8    9.40    2.11
   2   6   8    7.12    2.98
  -2  -6  -8    3.15    2.87
  -3  -6  -8    9.39    3.46
  -3  -6  -8    8.38    2.25
  -4  -6  -8  107.72    9.84
  -4  -6  -8  109.31    7.69
  -5  -6  -8   68.50    8.09
  -5  -6  -8   78.87    6.36
  -6  -6  -8   -1.64    1.96
  -6  -6  -8    0.96    1.74
  -7  -6  -8   59.61    6.77
  -8  -6  -8   29.62    5.08
  -9  -6  -8   16.38    3.71
 -10  -6  -8    2.53    2.62
  16  -7  -8    8.07    7.47
  15  -7  -8   77.00   14.11
  14  -7  -8   35.88   10.33
  13  -7  -8   -0.25    5.63
  12  -7  -8    5.11    5.90
  11  -7  -8   28.27    9.28
  10  -7  -8   79.05   12.22
   9  -7  -8    0.03    5.11
   8  -7  -8   36.09    8.62
   8  -7  -8   45.88    6.65
   7  -7  -8   82.79   10.90
   7  -7  -8   59.99    7.36
   6  -7  -8    2.88    4.26
   6  -7  -8    1.02    2.12
   5  -7  -8    3.24    2.58
   5  -7  -8    1.93    4.18
   4  -7  -8   30.94    7.16
   4  -7  -8   33.15    5.15
  -3   7   8  167.87   12.95
   3  -7  -8  164.92   12.48
  -3   7   8  180.30   11.15
  -2   7   8   93.21    8.00
   2  -7  -8   82.26    4.81
   2  -7  -8   80.03    8.04
  -2   7   8   84.64    6.56
   1  -7  -8  373.51   24.27
  -1   7   8  413.26   26.19
   1  -7  -8  399.46   18.84
   0  -7  -8  108.98    9.88
   0  -7  -8  104.78    6.44
   1   7   8   22.51    4.27
  -1  -7  -8   23.21    3.00
  -1  -7  -8   16.65    4.49
  -2  -7  -8    3.85    2.55
  -2  -7  -8    6.77    1.86
  -3  -7  -8   20.40    5.02
  -3  -7  -8   23.14    3.52
  -4  -7  -8   21.21    4.92
  -4  -7  -8   23.12    3.80
  -5  -7  -8    7.59    2.45
  -5  -7  -8    0.48    2.65
  -6  -7  -8    1.37    2.50
  -6  -7  -8    3.06    2.27
  -7  -7  -8   37.86    5.56
  -8  -7  -8    0.19    2.21
  -9  -7  -8   -5.39    1.92
 -10  -7  -8    4.71    3.82
  17  -8  -8   39.29   11.87
  16  -8  -8   11.52    6.65
  15  -8  -8   37.43   11.02
  14  -8  -8   13.66    8.12
  13  -8  -8    3.77    5.98
  12  -8  -8   50.66   11.18
  11  -8  -8   72.22   12.55
  10  -8  -8   94.71   13.78
   9  -8  -8   26.73    8.47
   8  -8  -8   -1.70    4.77
   8  -8  -8    0.38    2.23
   7  -8  -8    6.61    3.33
   7  -8  -8   11.95    5.96
   6  -8  -8    2.88    4.69
   6  -8  -8    3.27    2.63
   5  -8  -8  133.37   14.49
   5  -8  -8  134.03   10.91
   4  -8  -8  599.53   38.92
   4  -8  -8  531.34   32.59
  -3   8   8   75.94    7.28
  -3   8   8   68.09    5.86
   3  -8  -8   65.91    7.77
  -2   8   8   -0.84    1.24
   2  -8  -8    1.80    2.24
  -2   8   8    1.55    1.96
   1  -8  -8  149.79    8.18
   1  -8  -8  154.04   12.36
  -1   8   8  148.95   11.70
   0  -8  -8  230.13   16.67
   0  -8  -8  236.44   12.15
   0   8   8  231.21   16.63
  -1  -8  -8   23.55    3.17
  -1  -8  -8   24.09    5.34
  -3  -8  -8   62.50    5.37
  -3  -8  -8   62.47    8.04
  -4  -8  -8    3.25    2.83
  -4  -8  -8    5.82    2.16
  -5  -8  -8    5.91    2.41
  -5  -8  -8    1.92    2.51
  -6  -8  -8    0.79    1.94
  -6  -8  -8    4.18    2.79
  -7  -8  -8    1.10    1.93
  -8  -8  -8    8.12    3.03
  -9  -8  -8   14.10    4.09
  18  -9  -8   15.82    9.89
  17  -9  -8   61.77   13.83
  16  -9  -8   43.71   12.27
  15  -9  -8    4.79    6.61
  14  -9  -8   10.32    7.75
  13  -9  -8   20.03    8.90
  12  -9  -8    0.90    6.37
  11  -9  -8   32.34   10.11
  10  -9  -8    2.30    6.38
   9  -9  -8   17.19    4.92
   9  -9  -8   10.43    7.60
   8  -9  -8  359.08   23.66
   8  -9  -8  387.89   29.93
   7  -9  -8   89.41   12.18
   7  -9  -8   87.28    9.10
   6  -9  -8   43.17    6.55
   6  -9  -8   42.54    8.87
   5  -9  -8  166.71   12.63
   5  -9  -8  145.39   15.68
   4  -9  -8  102.93    9.71
  -3   9   8    1.10    1.34
   3  -9  -8   -2.12    2.33
  -3   9   8    2.08    2.15
  -2   9   8   53.57    5.07
   2  -9  -8   53.84    7.44
  -2   9   8   55.99    6.12
   1  -9  -8   66.44    8.40
   0  -9  -8    9.54    4.00
   0   9   8    9.57    3.38
  -1  -9  -8   27.26    5.84
  -2  -9  -8    7.25    3.65
  -3  -9  -8    4.26    3.14
  -4  -9  -8  108.90   11.47
  -5  -9  -8   34.11    6.55
  -6  -9  -8   16.41    4.56
  18 -10  -8    3.64    8.67
  17 -10  -8   52.64   13.75
  16 -10  -8   19.99    9.92
  15 -10  -8    9.29    7.75
  14 -10  -8    1.52    6.82
  13 -10  -8    5.33    6.79
  12 -10  -8    9.01    7.58
  11 -10  -8   45.19   10.94
  10 -10  -8   13.72    4.79
  10 -10  -8    4.51    6.36
   9 -10  -8  112.43   10.89
   9 -10  -8  123.80   15.90
   8 -10  -8   36.35    6.39
   8 -10  -8   47.81    9.96
   7 -10  -8    8.06    6.06
   7 -10  -8   10.60    4.13
   6 -10  -8  339.38   21.21
   6 -10  -8  286.08   25.16
   5 -10  -8  200.72   15.08
   5 -10  -8  197.28   18.50
   4 -10  -8   32.22    8.14
   4 -10  -8   23.73    5.40
  -3  10   8   28.66    4.07
  -3  10   8   29.93    4.94
   3 -10  -8   34.84    6.51
   2 -10  -8    2.97    3.06
  -2  10   8    5.34    2.03
  -2  10   8    2.64    2.20
  -1  10   8    2.38    2.50
   1 -10  -8    5.00    3.24
   0 -10  -8    1.34    2.72
  -1 -10  -8   83.81    9.88
  -2 -10  -8   22.00    5.69
  -3 -10  -8   -1.88    2.42
  -4 -10  -8   25.17    6.44
  -5 -10  -8    5.25    3.30
  -6 -10  -8   -5.39    2.36
  19 -11  -8    7.63   10.50
  18 -11  -8    8.53    9.52
  17 -11  -8   39.93   12.62
  16 -11  -8    1.27    6.75
  15 -11  -8    3.58    7.60
  14 -11  -8   86.46   15.58
  13 -11  -8   60.63   13.61
  12 -11  -8   -3.84    6.55
  11 -11  -8   98.45   11.04
  11 -11  -8  105.74   15.57
  10 -11  -8   65.35    8.61
  10 -11  -8   71.51   13.32
   9 -11  -8    2.72    5.69
   9 -11  -8   -1.53    2.61
   8 -11  -8    1.01    2.96
   8 -11  -8   -3.09    4.96
   7 -11  -8   51.87    7.41
   7 -11  -8   57.09   10.79
   6 -11  -8   -0.44    5.13
   6 -11  -8   16.43    4.77
   5 -11  -8   97.25   12.57
   5 -11  -8   86.64    9.83
   4 -11  -8   -0.68    2.75
   3 -11  -8   39.32    7.04
  -3  11   8   26.53    4.83
  -3  11   8   37.54    4.53
  -2  11   8    5.31    2.36
   2 -11  -8   12.92    4.68
  -2  11   8    5.64    1.88
   1 -11  -8    2.90    2.94
   0 -11  -8    8.48    3.76
  -1 -11  -8   47.53    7.89
  -2 -11  -8   -0.72    2.41
  -3 -11  -8   18.36    5.10
  -4 -11  -8    2.63    2.95
  -5 -11  -8   54.65    8.99
  -6 -11  -8   -3.95    2.81
  19 -12  -8   15.94   12.62
  18 -12  -8   28.40   13.24
  17 -12  -8    3.08    7.92
  16 -12  -8   11.60    8.57
  15 -12  -8    6.22    7.52
  14 -12  -8   41.66   12.00
  13 -12  -8   70.60   14.76
  12 -12  -8   13.12    8.35
  11 -12  -8  124.65   17.22
  11 -12  -8  103.18   11.41
  10 -12  -8   15.18    8.34
  10 -12  -8   17.35    5.38
   9 -12  -8   26.51    9.06
   9 -12  -8   24.81    5.84
   8 -12  -8   -2.09    4.93
   8 -12  -8    1.56    2.75
   7 -12  -8   75.90    8.92
   7 -12  -8   62.40   11.28
   6 -12  -8   -1.88    4.84
   6 -12  -8   -0.02    2.62
   5 -12  -8   47.89    7.63
   5 -12  -8   46.79    9.23
  -4  12   8    1.72    2.10
   4 -12  -8    1.84    3.29
  -4  12   8    3.78    1.61
   3 -12  -8   37.21    7.37
  -3  12   8   41.97    4.87
  -3  12   8   44.45    5.82
   2 -12  -8    7.01    3.46
   1 -12  -8    2.00    2.97
   0 -12  -8   41.87    7.63
  -1 -12  -8    3.78    3.33
  -2 -12  -8    1.58    2.45
  -3 -12  -8   17.81    5.36
  -4 -12  -8   11.58    4.59
  -5 -12  -8   -2.25    2.67
  -6 -12  -8    1.28    2.26
  18 -13  -8   16.29   11.86
  17 -13  -8   -7.64    4.64
  16 -13  -8   20.23   10.00
  15 -13  -8   62.18   14.99
  14 -13  -8   30.75   11.35
  13 -13  -8    5.14    7.58
  12 -13  -8   22.60    9.89
  12 -13  -8   28.94    6.64
  11 -13  -8    4.63    3.75
  11 -13  -8   13.07    8.56
  10 -13  -8   50.81   11.61
  10 -13  -8   35.19    7.20
   9 -13  -8    0.26    6.12
   9 -13  -8    8.17    4.23
   8 -13  -8   31.85    6.50
   8 -13  -8   30.17    8.97
   7 -13  -8   -7.17    4.13
   7 -13  -8    3.08    2.85
   6 -13  -8   27.08    7.99
   6 -13  -8   19.56    5.53
   5 -13  -8   11.68    4.74
   5 -13  -8   20.77    6.90
  -4  13   8   14.08    3.15
  -4  13   8   23.69    4.72
   4 -13  -8   22.05    5.64
   3 -13  -8   21.37    6.25
   2 -13  -8    3.96    2.90
   1 -13  -8    5.42    3.11
   0 -13  -8   66.43    9.74
  -1 -13  -8   16.56    5.28
  -2 -13  -8   -0.97    2.48
  -3 -13  -8   -1.04    2.61
  -4 -13  -8   31.90    7.21
  17 -14  -8    4.95    6.24
  16 -14  -8   -1.54    6.32
  15 -14  -8   47.12   13.53
  14 -14  -8   -3.66    7.63
  13 -14  -8   10.87    8.50
  12 -14  -8    9.96    7.33
  12 -14  -8    2.15    2.95
  11 -14  -8   16.61    5.55
  11 -14  -8   18.64    9.44
  10 -14  -8    3.80    3.47
  10 -14  -8    1.25    6.14
   9 -14  -8   21.65    5.97
   9 -14  -8   15.83    7.70
   8 -14  -8    5.40    5.78
   8 -14  -8    2.29    2.88
   7 -14  -8    0.56    2.67
   7 -14  -8    1.81    5.21
   6 -14  -8    4.07    3.31
   6 -14  -8   12.73    6.04
   5 -14  -8   68.31    9.50
   4 -14  -8   59.77    9.58
   3 -14  -8    1.64    3.51
   2 -14  -8   12.38    4.90
   1 -14  -8   68.71   10.36
   0 -14  -8   77.32   11.08
  -1 -14  -8    3.96    3.18
  -2 -14  -8    5.50    3.52
  -3 -14  -8   14.33    5.15
  16 -15  -8   -0.65    6.33
  15 -15  -8   -0.07    7.02
  14 -15  -8    5.25    6.57
  13 -15  -8   14.18    8.28
  12 -15  -8   -1.72    4.88
  11 -15  -8    3.63    6.69
  11 -15  -8   10.61    4.58
  10 -15  -8   55.56    8.77
  10 -15  -8   79.25   14.00
   9 -15  -8   17.09    5.22
   9 -15  -8   14.42    7.41
   8 -15  -8    6.08    3.83
   8 -15  -8   -3.01    5.19
   7 -15  -8    3.79    5.29
   7 -15  -8    0.85    2.91
   6 -15  -8   90.98   11.03
   6 -15  -8   78.70   12.31
   5 -15  -8   59.96    9.36
   4 -15  -8   10.84    4.81
   3 -15  -8   -4.24    2.21
   2 -15  -8    9.19    4.26
   1 -15  -8   56.83   10.10
   0 -15  -8   -0.27    2.95
  -1 -15  -8   49.10    9.62
  16 -16  -8    1.17    7.62
  15 -16  -8    6.11    8.32
  14 -16  -8    8.26    7.82
  13 -16  -8   -3.48    5.31
  12 -16  -8   -1.40    5.49
  11 -16  -8    8.98    4.69
  11 -16  -8   19.17    9.03
  10 -16  -8    3.08    3.69
  10 -16  -8    6.15    6.19
   9 -16  -8   38.61   10.20
   9 -16  -8   43.74    8.12
   8 -16  -8    3.07    3.06
   8 -16  -8    5.88    5.30
   7 -16  -8    7.83    5.55
   7 -16  -8    2.75    3.33
   6 -16  -8  138.54   14.61
   5 -16  -8   93.69   12.09
   4 -16  -8   12.52    5.45
   3 -16  -8    3.92    4.42
   2 -16  -8    8.12    4.78
   1 -16  -8    6.79    4.12
  14 -17  -8    2.44    8.07
  13 -17  -8    8.02    8.18
  12 -17  -8    7.29    6.94
  11 -17  -8   13.16    7.28
  11 -17  -8   15.06    5.28
  10 -17  -8    6.31    3.75
  10 -17  -8   10.31    6.79
   9 -17  -8    6.57    5.79
   9 -17  -8    4.93    3.64
   8 -17  -8    2.90    3.41
   8 -17  -8    3.98    5.27
   7 -17  -8   40.20    8.51
   6 -17  -8   84.99   11.78
   5 -17  -8    1.80    3.58
   4 -17  -8   -1.51    2.98
   3 -17  -8   -2.01    3.06
  13 -18  -8    7.26    6.56
  12 -18  -8   13.53    8.02
  11 -18  -8   17.73    8.31
  11 -18  -8   11.45    5.33
  10 -18  -8   23.78    6.68
  10 -18  -8   29.92    9.47
   9 -18  -8   -1.39    4.15
   9 -18  -8   -2.23    3.03
   8 -18  -8   91.61   12.27
   7 -18  -8    7.50    4.31
   6 -18  -8   -2.31    3.27
   5 -18  -8    2.64    3.44
  12 -19  -8   18.54    7.83
  11 -19  -8   20.77    8.02
  11 -19  -8   20.37    6.16
  10 -19  -8   -1.55    4.79
  10 -19  -8    2.52    4.82
   9 -19  -8   49.53    9.85
   8 -19  -8   52.21   10.41
   3 -20   9    1.10    4.06
   9 -20   9   31.89    9.24
  10 -20   9    6.03    5.82
   1 -19   9    5.79    4.51
   2 -19   9    7.85    4.31
   3 -19   9   -1.84    3.04
   4 -19   9    7.09    3.91
   8 -19   9   39.63   11.50
   9 -19   9    3.18    6.02
  10 -19   9    8.19    7.60
  11 -19   9    4.72    6.08
  -1 -18   9   -0.41    3.24
   0 -18   9   -4.82    2.80
   1 -18   9    3.41    3.29
   2 -18   9    6.61    4.02
   3 -18   9    1.79    2.73
   4 -18   9    5.96    3.29
   7 -18   9    6.92    6.69
   8 -18   9   17.24    7.23
   9 -18   9   13.23    7.55
  10 -18   9    5.05    6.98
  11 -18   9   51.19   14.05
  12 -18   9   22.77   10.31
  -2 -17   9    0.34    2.93
  -1 -17   9   -0.70    3.03
   0 -17   9    7.85    3.77
   1 -17   9   18.26    5.05
   2 -17   9    3.42    2.96
   3 -17   9  100.54   10.05
   4 -17   9   40.03    6.52
   6 -17   9   34.11   10.40
   7 -17   9   10.37    7.54
   8 -17   9   -0.94    5.21
   9 -17   9   15.75    8.15
  10 -17   9   -1.15    6.11
  11 -17   9   16.59    9.37
  12 -17   9   10.74    8.50
  13 -17   9    8.39    7.73
  -4 -16   9   -3.52    2.94
  -3 -16   9    0.13    2.66
  -2 -16   9   11.86    4.54
  -1 -16   9    5.79    3.38
   0 -16   9    1.24    2.65
   1 -16   9   27.07    5.67
   2 -16   9   32.59    6.06
   3 -16   9   52.97    7.21
   4 -16   9    2.67    2.36
   5 -16   9   98.37   14.64
   6 -16   9   77.87   13.55
   7 -16   9   23.17    9.44
   8 -16   9    3.54    6.46
   9 -16   9   72.85   14.37
  10 -16   9   -0.80    6.59
  11 -16   9   10.77    8.15
  12 -16   9   17.41    8.69
  13 -16   9    5.00    7.18
  -5 -15   9    8.34    3.96
  -4 -15   9   -0.66    3.11
  -3 -15   9    3.83    3.13
  -2 -15   9   33.47    6.09
  -1 -15   9    6.76    3.56
   0 -15   9   21.00    5.20
   1 -15   9  102.17    9.84
   2 -15   9   81.10    8.76
   3 -15   9    2.53    2.39
   4 -15   9   65.89   11.84
   4 -15   9   77.26    7.99
   5 -15   9   82.36   13.22
   6 -15   9   43.01   10.73
   7 -15   9    6.18    6.45
   8 -15   9   10.18    7.41
   9 -15   9   36.63   10.78
  10 -15   9   11.83    7.41
  11 -15   9   31.64   11.54
  12 -15   9    4.86    6.31
  13 -15   9    2.24    5.98
  14 -15   9   -2.97    6.56
  -7 -14   9   27.36    6.42
  -6 -14   9    3.33    2.72
  -5 -14   9    6.49    3.48
  -4 -14   9    4.48    3.11
  -3 -14   9   11.25    3.91
  -2 -14   9   62.29    7.91
  -1 -14   9    0.22    2.16
   0 -14   9   83.20    8.32
   1 -14   9  321.15   20.79
   2 -14   9    4.48    2.53
   3 -14   9   62.39    7.27
   3 -14   9   66.52   11.04
   4 -14   9  234.23   22.11
   4 -14   9  256.36   16.56
   5 -14   9   18.84    7.18
   5 -14   9   18.88    3.88
   6 -14   9   24.92    8.60
   7 -14   9   48.44   10.94
   8 -14   9   49.23   11.76
   9 -14   9   -5.40    5.43
  10 -14   9    7.77    7.55
  11 -14   9    4.40    6.68
  12 -14   9   -2.51    8.09
  13 -14   9   -2.44    8.76
  14 -14   9    6.69    7.74
  -8 -13   9    2.56    2.82
  -7 -13   9    0.23    1.99
  -6 -13   9   33.62    6.51
  -5 -13   9    5.87    2.84
  -4 -13   9   77.53    8.95
  -3 -13   9  141.30   11.76
  -2 -13   9   34.96    5.95
  -1 -13   9   58.30    7.22
   0 -13   9    1.39    1.89
   1 -13   9   -0.28    1.64
   2 -13   9  105.60   12.28
   2 -13   9   88.09    8.11
   3 -13   9  100.04   12.96
   3 -13   9  107.70    8.88
   4 -13   9   14.54    3.52
   4 -13   9   23.15    7.54
   5 -13   9   41.63    9.14
   6 -13   9   58.16   10.78
   7 -13   9   16.01    7.14
   8 -13   9   -5.10    4.48
   9 -13   9   28.83    9.53
  10 -13   9   22.09    9.26
  11 -13   9    6.31    8.24
  12 -13   9    7.21    8.95
  13 -13   9    3.70    8.70
  14 -13   9   -1.29    7.10
  15 -13   9   -1.83    7.53
  -9 -12   9   13.29    4.02
  -8 -12   9   30.40    6.17
  -7 -12   9    8.24    3.52
  -6 -12   9    4.21    2.59
  -5 -12   9   80.20    8.91
  -4 -12   9   77.58    8.56
  -3 -12   9   53.91    7.02
  -2 -12   9   15.29    3.97
  -1 -12   9    4.66    2.43
   0 -12   9    8.49    2.97
   1 -12   9    7.91    2.63
   1 -12   9   15.70    5.76
   2 -12   9    6.13    2.53
   2 -12   9    6.12    5.24
   3 -12   9   45.45    5.33
   3 -12   9   38.81    8.33
   4 -12   9   -0.34    1.21
   4 -12   9    0.41    4.89
   5 -12   9  128.93   14.76
   5 -12   9  139.78    9.67
   6 -12   9    0.19    5.12
   7 -12   9   21.53    8.37
   9 -12   9   94.62   14.43
  10 -12   9   -2.15    6.07
  11 -12   9    1.05    7.54
  12 -12   9   -4.54    6.70
 -12  12  -9    0.59    2.73
 -13  12  -9   31.62    5.51
  13 -12   9   32.15   12.04
 -14  12  -9   69.81    8.38
  14 -12   9   35.41   13.28
  15 -12   9    2.31   10.84
 -15  12  -9   16.52    4.77
 -16  12  -9    8.20    2.25
 -10 -11   9   12.18    3.76
  -9 -11   9   48.22    7.59
  -8 -11   9   38.02    6.68
  -7 -11   9   10.08    3.60
  -6 -11   9   41.40    6.59
  -5 -11   9   85.88    9.11
  -4 -11   9    3.85    2.84
  -3 -11   9   65.54    7.58
  -2 -11   9   16.50    4.09
  -1 -11   9    1.96    1.84
   0 -11   9   27.59    6.31
   0 -11   9   30.48    4.83
   1 -11   9   -0.78    3.97
   1 -11   9   -0.71    1.52
   2 -11   9    0.45    4.45
   2 -11   9    5.84    2.07
   3 -11   9   -3.83    3.86
   3 -11   9    4.97    1.93
   4 -11   9   35.74    8.15
   5 -11   9    7.09    2.08
   5 -11   9    3.48    5.06
   6 -11   9    3.79    5.38
   7 -11   9  101.00   14.15
   8 -11   9  118.80   15.51
   9 -11   9   74.67   13.19
  10 -11   9    4.07    6.98
 -11  11  -9    0.11    2.44
  11 -11   9   -4.04    6.06
  12 -11   9   10.42    9.01
 -12  11  -9   15.52    4.00
  13 -11   9   22.79   11.28
 -13  11  -9   41.94    6.48
  14 -11   9   94.94   17.93
 -14  11  -9   95.24    9.84
  15 -11   9    5.00    9.18
 -15  11  -9   -2.55    2.82
 -16  11  -9   34.55    5.76
  16 -11   9   45.41   16.03
 -11 -10   9   -1.20    1.91
 -10 -10   9   26.53    5.99
  -9 -10   9   23.43    4.97
  -8 -10   9   51.55    7.39
  -7 -10   9    1.71    2.36
  -6 -10   9  173.05   13.26
  -5 -10   9   49.31    6.61
  -4 -10   9    0.22    2.10
  -3 -10   9    1.64    2.22
  -2 -10   9    2.46    1.97
  -1 -10   9   88.45   10.03
  -1 -10   9   87.45    7.57
   0 -10   9   17.38    3.62
   0 -10   9   14.75    5.37
   1 -10   9   11.82    2.87
   1 -10   9    7.83    4.93
   2 -10   9   35.49    4.48
   2 -10   9   36.17    7.46
   3 -10   9   75.50    6.41
   3 -10   9  101.67   11.62
   4 -10   9    6.55    1.91
   4 -10   9    5.63    5.13
   5 -10   9   43.83    4.05
   5 -10   9   45.30    8.80
   6 -10   9  171.13   17.01
   7 -10   9   32.03    8.82
   8 -10   9    5.05    5.96
   9 -10   9  215.89   22.12
  -9  10  -9  236.70   14.52
 -10  10  -9    2.68    2.38
  10 -10   9    8.00    7.25
  11 -10   9   55.63   12.62
 -11  10  -9   65.06    7.59
  12 -10   9   53.78   12.68
 -12  10  -9   33.67    5.46
 -13  10  -9   28.38    4.96
  13 -10   9   31.00   11.36
 -14  10  -9   25.24    4.71
  14 -10   9   27.58   11.53
  15 -10   9   16.17   12.27
 -15  10  -9   35.73    6.03
  16 -10   9   33.92   14.73
 -16  10  -9   35.24    5.47
 -12  -9   9    4.99    3.12
 -11  -9   9    3.45    2.64
 -10  -9   9   51.66    7.73
  -9  -9   9   74.05    8.80
  -8  -9   9   28.87    5.22
  -7  -9   9   13.06    3.80
  -6  -9   9  176.64   13.06
  -5  -9   9   41.84    5.80
  -4  -9   9   41.59    5.54
  -3  -9   9   43.51    5.55
  -2  -9   9  116.87   10.71
  -2  -9   9  102.98    8.52
  -1  -9   9   71.23    6.43
  -1  -9   9   70.40    8.40
   0  -9   9   96.63    7.76
   0  -9   9  109.29   10.87
   1  -9   9    0.84    3.50
   1  -9   9   -0.37    1.26
   2  -9   9   39.18    4.33
   2  -9   9   41.99    7.29
   3  -9   9   23.44    6.48
   4  -9   9   98.99    6.90
   4  -9   9   87.37   11.49
   5  -9   9   19.68    6.64
   5  -9   9   12.90    2.06
   6  -9   9  108.35   13.32
   7  -9   9    2.75    5.16
   8  -9   9  408.10   31.42
  -8   9  -9  371.57   20.93
  -9   9  -9  257.65   16.07
   9  -9   9  294.76   25.50
  10  -9   9   30.13    9.85
 -10   9  -9   20.25    3.90
 -11   9  -9  128.40   10.03
  11  -9   9  145.72   18.25
  12  -9   9  123.26   17.45
 -12   9  -9  131.74   10.28
  13  -9   9   33.24   11.27
 -13   9  -9   26.03    4.80
  14  -9   9   12.28    9.39
 -14   9  -9   12.65    4.07
  15  -9   9   26.68   12.58
 -15   9  -9   36.50    6.15
 -16   9  -9   13.91    4.24
 -13  -8   9   18.62    4.78
 -12  -8   9    1.66    2.33
 -11  -8   9   45.50    7.22
 -10  -8   9  108.25   10.04
  -9  -8   9    9.00    3.18
  -8  -8   9    2.55    2.08
  -7  -8   9   46.76    6.35
  -6  -8   9    0.49    1.69
  -5  -8   9    3.95    1.97
  -4  -8   9   23.77    4.21
  -3  -8   9    1.35    1.48
  -2  -8   9   -0.36    1.13
  -2  -8   9    0.55    3.31
  -1  -8   9   29.88    4.01
  -1  -8   9   33.27    5.75
   0  -8   9    1.10    1.22
   0  -8   9   -2.71    3.10
   1  -8   9   55.67    7.60
   1  -8   9   44.46    4.64
   2  -8   9    8.94    2.11
   2  -8   9   10.02    4.81
   3  -8   9   27.81    3.23
   3  -8   9   18.16    5.93
   4  -8   9  108.47   12.19
   4  -8   9   95.01    6.63
   5  -8   9   28.49    7.31
   5  -8   9   30.13    2.78
   6  -8   9    8.36    5.55
  -7   8  -9  432.38   22.89
   7  -8   9  442.48   33.35
  -8   8  -9  352.33   19.16
   8  -8   9  329.32   28.04
   9  -8   9    2.59    6.44
  -9   8  -9    6.38    2.66
  10  -8   9    6.74    7.17
 -10   8  -9    3.73    2.38
  11  -8   9   25.51    9.43
 -11   8  -9   28.73    5.02
 -12   8  -9    1.50    2.17
  12  -8   9    7.01    6.82
 -13   8  -9    1.72    2.55
  13  -8   9    1.07    6.97
  14  -8   9    0.28    7.12
 -14   8  -9   -1.19    2.12
  15  -8   9   16.73   11.51
 -15   8  -9   27.09    5.13
 -13  -7   9   -2.22    2.04
 -12  -7   9    4.71    2.77
 -11  -7   9   37.26    6.23
 -10  -7   9   18.56    4.22
  -9  -7   9   -0.61    1.49
  -8  -7   9   35.76    5.56
  -7  -7   9    5.16    2.39
  -6  -7   9   72.20    6.82
  -5  -7   9   69.38    6.48
  -4  -7   9   -1.39    1.11
  -3  -7   9   42.38    5.42
  -3  -7   9   39.65    4.89
  -2  -7   9    3.60    1.91
  -2  -7   9    8.25    3.39
  -1  -7   9  114.90   10.60
  -1  -7   9  130.26    8.92
   0  -7   9   40.19    6.20
   0  -7   9   45.04    4.38
   1  -7   9    2.54    1.27
   1  -7   9   -1.97    3.14
   2  -7   9   76.57    9.23
   3  -7   9   14.72    2.19
   3  -7   9   16.67    5.40
   4  -7   9   20.38    2.31
   4  -7   9   15.17    5.49
   5  -7   9    0.87    0.76
   5  -7   9   -6.23    3.33
   6  -7   9   56.40    9.62
  -6   7  -9   53.88    5.75
   7  -7   9  280.74   23.95
  -7   7  -9  291.17   16.28
   8  -7   9   62.01   11.22
  -8   7  -9   63.85    6.40
  -9   7  -9   81.63    7.79
   9  -7   9   99.56   13.68
  10  -7   9   48.30   11.26
 -10   7  -9   60.10    6.73
 -11   7  -9   12.29    3.60
  11  -7   9   13.19    7.76
  12  -7   9   12.98    7.95
 -12   7  -9    7.83    2.68
 -13   7  -9    2.09    2.04
  13  -7   9   -6.51    6.22
  14  -7   9    7.20    8.03
 -14   7  -9   -3.04    2.10
 -15   7  -9   31.34    5.74
 -14  -6   9    0.96    3.10
 -13  -6   9    3.20    2.63
 -12  -6   9   28.62    5.48
 -11  -6   9    5.30    2.53
 -10  -6   9   -0.95    1.74
  -9  -6   9    6.39    2.63
  -8  -6   9   66.89    7.14
  -7  -6   9   84.35    7.57
  -6  -6   9    7.19    2.47
  -5  -6   9    1.11    1.47
  -4  -6   9   52.41    5.62
  -4  -6   9   53.54    5.58
  -3  -6   9  180.27   13.29
  -3  -6   9  178.95   11.71
  -2  -6   9   83.45    8.52
  -2  -6   9   97.06    7.03
  -1  -6   9 1068.10   65.02
  -1  -6   9 1060.65   55.66
   0  -6   9  436.54   29.34
   0  -6   9  442.62   24.17
   1  -6   9  184.92   11.15
   1  -6   9  184.89   14.93
   2  -6   9  304.47   16.93
   3  -6   9  195.22   10.90
   3  -6   9  169.42   15.48
   4  -6   9   10.32    4.76
   4  -6   9   18.93    2.08
   5  -6   9   24.09    6.10
   5  -6   9   22.17    1.99
  -5   6  -9   21.50    3.58
  -6   6  -9  129.61    9.00
   6  -6   9  145.92   14.46
  -7   6  -9  188.05   11.68
   7  -6   9  190.06   18.06
  -8   6  -9   43.82    5.53
   8  -6   9   50.62    9.65
  -9   6  -9   20.79    3.91
   9  -6   9   10.52    7.57
 -10   6  -9    4.92    2.30
  10  -6   9   13.35    7.10
 -11   6  -9   -2.72    1.54
  11  -6   9    3.74    6.70
  12  -6   9    6.79    7.40
 -12   6  -9    5.92    2.73
 -13   6  -9    6.25    2.58
  13  -6   9    2.38    6.18
 -14   6  -9    3.28    2.41
 -15   6  -9    7.32    3.14
 -13  -5   9    3.47    2.57
 -12  -5   9   -0.02    1.65
 -11  -5   9   26.01    4.91
 -10  -5   9    7.33    2.78
  -9  -5   9    0.63    1.61
  -8  -5   9    3.96    2.07
  -7  -5   9   -0.92    1.08
  -6  -5   9   58.86    5.70
  -5  -5   9   15.44    3.11
  -5  -5   9   15.81    3.12
  -4  -5   9   24.46    3.86
  -4  -5   9   30.83    3.95
  -3  -5   9    4.38    2.70
  -3  -5   9    5.31    1.76
  -2  -5   9  369.17   20.90
  -2  -5   9  371.94   24.51
  -1  -5   9  356.89   20.28
  -1  -5   9  369.61   24.48
   0  -5   9    7.11    1.78
   0  -5   9    9.07    3.47
   1  -5   9  194.71   15.59
   1  -5   9  203.36   11.68
   2  -5   9   81.06    9.16
   2  -5   9   82.60    5.48
   3  -5   9  101.05   10.83
   3  -5   9  110.58    6.64
   4  -5   9  258.19   13.44
   4  -5   9  238.61   19.31
  -4   5  -9  234.27   13.62
   5  -5   9    9.57    1.11
   5  -5   9    7.21    4.87
  -5   5  -9    5.84    2.17
  -6   5  -9  186.10   11.19
   6  -5   9  177.87   16.74
   7  -5   9  131.68   13.85
  -7   5  -9  105.20    8.06
  -8   5  -9    3.91    2.04
   8  -5   9   -0.52    5.47
   9  -5   9   97.04   13.21
  -9   5  -9   77.50    7.45
  10  -5   9   17.77    7.70
 -10   5  -9   11.78    2.92
  11  -5   9   -0.28    5.91
 -11   5  -9    0.79    1.90
 -12   5  -9   -1.14    1.98
  12  -5   9   -0.13    6.02
 -13   5  -9   17.14    4.24
 -14   5  -9   -1.43    2.22
 -15   5  -9   -2.74    2.14
 -15  -4   9   -0.84    1.63
 -13  -4   9    4.48    2.14
 -12  -4   9    1.73    2.23
 -11  -4   9   33.02    5.31
 -10  -4   9    9.24    2.67
  -9  -4   9    7.17    2.49
  -8  -4   9   63.51    6.20
  -7  -4   9   16.18    3.30
  -6  -4   9  346.47   22.33
  -6  -4   9  354.34   20.66
  -5  -4   9  141.42   10.62
  -5  -4   9  148.31   10.02
  -4  -4   9   16.55    2.99
  -4  -4   9   21.89    3.51
  -3  -4   9   -0.10    0.83
  -3  -4   9    1.60    2.20
  -2  -4   9  693.44   36.60
  -2  -4   9  679.32   42.57
  -1  -4   9  288.67   19.40
  -1  -4   9  269.40   15.78
   0  -4   9    4.41    1.41
   0  -4   9    3.00    2.82
   1  -4   9    4.34    3.21
   2  -4   9   -1.01    2.40
  -3   4  -9   68.99    5.56
   3  -4   9   69.26    8.46
   4  -4   9   -0.86    3.19
  -4   4  -9   -0.17    1.23
   5  -4   9   14.84    5.08
  -5   4  -9   15.32    2.94
  -6   4  -9  106.92    7.67
   6  -4   9  114.41   12.33
   7  -4   9  126.11   13.40
  -7   4  -9  111.58    8.14
  -8   4  -9   10.21    2.65
   8  -4   9    5.47    5.41
  -9   4  -9  122.84    9.02
   9  -4   9  123.14   14.43
  10  -4   9  146.66   16.33
 -10   4  -9  141.09   10.14
  11  -4   9    3.25    6.28
 -11   4  -9    8.35    2.90
 -12   4  -9   10.24    3.14
 -13   4  -9   18.15    4.11
 -14   4  -9    9.22    3.30
 -15  -3   9   -0.98    1.79
 -13  -3   9   18.10    3.87
 -12  -3   9   41.91    5.92
 -11  -3   9   71.13    6.98
 -10  -3   9   49.10    5.92
  -9  -3   9    8.54    2.56
  -8  -3   9    0.67    1.45
  -7  -3   9  486.60   27.51
  -7  -3   9  480.69   30.22
  -6  -3   9   23.23    3.45
  -6  -3   9   20.17    3.44
  -5  -3   9   -1.23    1.38
  -5  -3   9    1.02    1.22
  -4  -3   9   65.18    5.37
  -4  -3   9   60.35    5.99
  -3  -3   9  362.70   20.10
  -3  -3   9  348.55   23.14
  -2  -3   9  243.64   16.91
  -1  -3   9   13.29    3.40
   0  -3   9   56.21    6.49
   1  -3   9  115.57   10.52
   2  -3   9   17.32    4.56
  -3   3  -9   -1.44    1.15
   3  -3   9    1.75    3.09
   4  -3   9    0.53    3.34
  -4   3  -9    3.23    1.53
   5  -3   9   20.76    5.61
  -5   3  -9   28.66    3.75
  -6   3  -9   22.14    3.54
   6  -3   9   25.97    6.49
   7  -3   9  116.15   12.95
  -7   3  -9  122.89    8.42
   8  -3   9   15.05    6.69
  -8   3  -9   11.19    2.78
   9  -3   9   90.46   12.32
  -9   3  -9   88.65    7.37
 -10   3  -9   55.46    6.38
  10  -3   9   48.20   10.01
 -11   3  -9    4.38    2.24
 -12   3  -9    1.49    2.14
 -13   3  -9    4.64    2.45
 -14   3  -9   18.85    4.23
 -16  -2   9    9.15    2.73
 -15  -2   9   20.73    4.27
 -13  -2   9   56.96    6.97
 -12  -2   9    2.45    1.76
 -11  -2   9    3.82    1.85
 -10  -2   9    0.50    1.28
  -9  -2   9    8.13    2.26
  -8  -2   9  130.78   10.00
  -8  -2   9  152.79   10.90
  -7  -2   9  218.04   13.70
  -7  -2   9  209.65   14.74
  -6  -2   9    9.15    2.50
  -6  -2   9   13.07    2.74
  -5  -2   9    4.58    1.61
  -5  -2   9    3.56    1.84
  -4  -2   9  135.36   10.22
  -3  -2   9  395.66   25.43
  -2  -2   9   19.21    3.45
  -1  -2   9   19.70    3.83
   0  -2   9   21.48    4.12
   1  -2   9  628.81   39.88
   2  -2   9   20.17    4.36
  -2   2  -9   11.62    2.53
   3  -2   9  108.99   10.27
  -3   2  -9   93.49    6.60
  -4   2  -9    0.17    1.22
   4  -2   9   -0.87    2.96
  -5   2  -9   16.25    2.94
   5  -2   9   10.83    4.77
  -6   2  -9    5.23    2.11
   6  -2   9    7.07    4.75
  -7   2  -9   36.97    4.85
   7  -2   9   54.77    8.64
  -8   2  -9    0.98    1.61
   8  -2   9   -1.81    4.74
   9  -2   9   29.16    7.67
  -9   2  -9   30.18    4.83
 -10   2  -9    2.66    2.14
  10  -2   9    2.32    5.30
 -11   2  -9    4.59    2.58
 -12   2  -9   11.00    3.69
 -13   2  -9    3.71    2.62
 -14   2  -9   31.86    5.78
 -16  -1   9   47.41    6.48
 -15  -1   9    5.12    2.24
 -13  -1   9    5.12    1.90
 -12  -1   9   37.21    5.09
 -11  -1   9    3.20    1.63
 -10  -1   9    2.33    1.53
  -9  -1   9   29.45    4.25
  -9  -1   9   32.03    3.74
  -9  -1   9   29.96    4.31
  -8  -1   9  237.81   14.13
  -8  -1   9  235.73   15.14
  -8  -1   9  252.93   16.87
  -7  -1   9  141.43    9.79
  -7  -1   9  138.59   10.66
  -7  -1   9  141.44    9.04
  -6  -1   9    8.37    2.39
  -5  -1   9   14.04    2.89
  -4  -1   9  171.92   12.31
  -3  -1   9  261.30   17.69
  -2  -1   9   40.52    4.93
  -1  -1   9   44.80    5.36
   0  -1   9   20.57    4.02
  -1   1  -9  220.51   11.47
   1  -1   9  198.77   15.34
  -2   1  -9  330.10   17.02
   2  -1   9  354.20   23.57
  -3   1  -9  218.71   12.10
  -3   1  -9  222.38   13.57
   3  -1   9  229.02   17.15
   4  -1   9   -0.15    2.68
  -4   1  -9    2.93    1.72
  -4   1  -9   -0.99    0.98
   5  -1   9   29.59    6.43
  -5   1  -9   40.05    4.11
  -5   1  -9   41.43    4.45
   6  -1   9    4.70    4.43
  -6   1  -9    2.31    1.72
   7  -1   9  214.20   18.57
  -7   1  -9  224.11   13.20
   8  -1   9    0.19    4.31
  -8   1  -9    4.01    2.10
   9  -1   9   19.92    6.48
  -9   1  -9    5.31    2.54
 -10   1  -9    3.10    2.24
 -11   1  -9   37.58    5.78
 -12   1  -9   15.22    4.14
 -13   1  -9    1.01    2.51
 -17   0   9   29.68    4.72
 -16   0   9    7.86    2.82
 -15   0   9   16.31    3.41
 -13   0   9   38.82    5.16
 -12   0   9   21.80    3.77
 -11   0   9   48.07    5.46
 -10   0   9   11.85    2.78
  -9   0   9  132.42    8.49
  -9   0   9  116.37    9.90
  -9   0   9  124.07    9.10
  -8   0   9   32.64    3.69
  -8   0   9   25.28    4.00
  -7   0   9   44.21    4.18
  -7   0   9   46.95    5.23
  -6   0   9  508.08   27.47
  -6   0   9  517.77   32.40
  -5   0   9  452.07   24.55
  -5   0   9  461.04   29.01
  -4   0   9   58.73    5.79
  -3   0   9   93.99    7.86
  -2   0   9  361.52   23.67
  -1   0   9  242.85   16.94
   0   0   9  323.12   21.79
  -1   0  -9  379.14   22.25
  -1   0  -9  398.18   19.08
   1   0   9  392.88   25.93
  -2   0  -9   -1.23    1.03
  -2   0  -9    0.79    1.51
   2   0   9   -0.43    2.37
  -3   0  -9   84.03    6.58
   3   0   9   77.00    8.77
  -3   0  -9   82.44    5.85
  -4   0  -9    7.54    2.27
   4   0   9    7.62    3.92
  -4   0  -9    5.30    1.79
  -5   0  -9  266.67   15.66
  -5   0  -9  256.89   14.33
   5   0   9  252.21   19.82
   6   0   9   59.41    8.26
  -6   0  -9   52.77    5.63
   7   0   9   32.81    6.97
  -7   0  -9   31.74    4.57
  -8   0  -9   32.34    4.64
   8   0   9   20.03    5.77
  -9   0  -9   36.20    5.18
 -10   0  -9   10.27    3.15
 -11   0  -9    8.06    2.85
 -12   0  -9    5.34    3.07
 -13   0  -9   -1.16    2.95
 -17   1   9    9.16    2.85
 -16   1   9   40.66    5.91
 -15   1   9    2.21    2.06
 -14   1   9   12.91    3.19
 -13   1   9  219.40   14.40
 -12   1   9  266.67   16.80
 -11   1   9   76.37    6.66
  11  -1  -9   77.94    9.50
   9  -1  -9   54.05    7.61
  -7   1   9    4.28    2.18
  -7   1   9    7.78    2.20
  -6   1   9   57.94    6.08
  -6   1   9   69.55    5.37
  -5   1   9   10.99    2.86
  -5   1   9    9.08    2.22
  -4   1   9    8.62    2.56
  -3   1   9   14.31    3.09
  -2   1   9  765.61   46.84
   1  -1  -9  166.65   11.64
  -1   1   9  172.79   12.76
   0  -1  -9   22.46    3.76
   0  -1  -9   33.13    3.26
   0   1   9   27.35    4.47
  -1  -1  -9   18.66    2.62
  -1  -1  -9   15.08    3.14
   1   1   9   17.79    3.92
   2   1   9    1.07    2.36
  -2  -1  -9   -0.10    0.98
  -2  -1  -9    1.39    1.82
  -3  -1  -9   80.02    5.66
  -3  -1  -9   73.68    6.37
   3   1   9   73.59    8.17
  -4  -1  -9    4.29    2.13
   4   1   9    7.36    3.73
  -4  -1  -9    9.60    2.32
  -5  -1  -9   14.51    3.04
  -5  -1  -9   10.45    2.62
   5   1   9   11.90    4.44
  -6  -1  -9   52.15    5.48
   6   1   9   51.21    7.64
  -7  -1  -9   -1.17    1.35
   7   1   9   -0.38    1.32
  -8  -1  -9   38.62    5.38
  -9  -1  -9   92.29    8.57
 -10  -1  -9    8.20    3.01
 -11  -1  -9   24.55    5.04
 -12  -1  -9   -2.57    2.29
 -18   2   9   16.74    3.44
 -17   2   9   44.55    6.16
 -16   2   9   21.18    4.03
 -15   2   9    9.86    2.81
 -14   2   9  166.99   11.10
 -13   2   9  230.44   14.86
 -12   2   9   11.92    2.73
  12  -2  -9    4.14    3.07
  11  -2  -9  169.86   16.27
 -11   2   9  195.52   12.37
  10  -2  -9  132.87   13.10
   9  -2  -9   19.92    5.59
   8  -2  -9  128.90   12.28
   7  -2  -9   59.02    7.61
  -6   2   9  137.97    9.16
  -6   2   9  140.68   10.93
  -5   2   9   94.45    8.35
  -5   2   9  106.49    7.30
  -4   2   9    7.70    2.54
  -4   2   9    6.82    2.07
  -3   2   9   83.04    7.46
  -2   2   9 2124.64  125.79
   2  -2  -9 2129.03  109.97
  -1   2   9   31.96    4.40
   1  -2  -9   18.51    3.73
   0  -2  -9  100.87    7.80
   0  -2  -9   94.99    5.97
   0   2   9   96.50    8.58
   1   2   9    2.80    2.52
  -1  -2  -9    1.21    1.01
  -1  -2  -9    0.87    1.71
  -2  -2  -9   11.52    2.23
  -2  -2  -9   20.03    3.44
   2   2   9   16.65    3.98
   3   2   9   15.63    4.11
  -3  -2  -9    7.01    1.98
  -3  -2  -9    7.38    2.68
  -4  -2  -9  182.09   12.25
   4   2   9  197.95   15.17
  -4  -2  -9  169.65   10.62
   5   2   9   -0.49    1.51
  -5  -2  -9    2.36    1.59
  -5  -2  -9    0.35    2.05
  -6  -2  -9   74.82    6.84
   6   2   9   77.24    9.49
  -6  -2  -9   82.54    7.43
  -7  -2  -9    6.61    2.35
  -8  -2  -9   56.37    6.42
  -9  -2  -9  114.69    9.10
 -10  -2  -9    0.45    2.20
 -11  -2  -9   38.27    6.11
 -12  -2  -9   -0.44    3.02
 -18   3   9   44.57    6.30
 -17   3   9   25.08    4.31
 -16   3   9   -2.76    1.67
 -15   3   9   22.52    3.80
 -14   3   9   61.92    6.38
  13  -3  -9   17.99    6.42
 -13   3   9   12.46    2.83
  12  -3  -9  120.64   13.46
  11  -3  -9  151.95   15.02
  10  -3  -9  144.37   14.35
   9  -3  -9    9.18    4.61
   8  -3  -9   15.41    5.11
   7  -3  -9    1.31    3.36
   6  -3  -9   -2.16    2.83
  -5   3   9    1.38    1.79
  -5   3   9    1.29    1.31
  -4   3   9    3.35    1.69
  -4   3   9   -1.25    1.20
   3  -3  -9  130.94    9.78
  -3   3   9  122.10    8.39
  -3   3   9  120.21    9.89
   2  -3  -9   29.00    4.52
  -2   3   9   32.71    4.57
   1  -3  -9   41.80    5.13
  -1   3   9   37.23    4.81
   0  -3  -9  137.00    9.87
   0   3   9  133.94   10.87
   0  -3  -9  130.59    7.56
   1   3   9  609.59   38.49
  -1  -3  -9  596.48   33.62
  -1  -3  -9  611.02   28.32
  -2  -3  -9    0.91    1.79
  -2  -3  -9    1.31    1.24
   2   3   9    0.39    2.00
   3   3   9  504.31   33.58
  -3  -3  -9  519.33   29.41
  -3  -3  -9  517.12   25.02
  -4  -3  -9  107.06    7.52
  -4  -3  -9  112.29    9.07
  -5  -3  -9   88.70    8.16
   5   3   9   89.01    9.84
  -5  -3  -9   95.69    7.05
  -6  -3  -9   68.57    6.40
  -6  -3  -9   64.09    7.26
  -7  -3  -9   48.67    5.71
  -8  -3  -9   30.59    4.94
  -9  -3  -9   -0.76    1.64
 -10  -3  -9    0.40    1.89
 -11  -3  -9    6.70    3.87
 -12  -3  -9   -1.27    3.64
 -18   4   9   48.69    6.37
 -17   4   9    3.17    2.08
 -16   4   9   26.82    4.40
 -15   4   9   38.17    4.99
 -14   4   9   26.20    3.94
  14  -4  -9   26.53    7.79
  13  -4  -9   30.42    8.23
 -13   4   9   48.83    5.01
  12  -4  -9   10.64    6.34
  11  -4  -9   13.12    5.86
  10  -4  -9    5.96    5.29
   9  -4  -9  199.16   17.51
   8  -4  -9   12.78    5.04
   7  -4  -9  245.25   19.66
   6  -4  -9  270.36   20.84
   5  -4  -9  200.32   14.45
  -5   4   9  202.24   14.94
  -5   4   9  209.53   12.70
  -4   4   9   56.70    6.06
   4  -4  -9   54.58    6.39
  -4   4   9   58.79    5.17
   3  -4  -9  153.36   10.94
  -3   4   9  141.66    9.51
  -3   4   9  138.05   11.17
   2  -4  -9   70.36    6.72
  -2   4   9   64.85    6.66
   1  -4  -9   15.98    2.09
  -1   4   9   11.65    3.28
   1  -4  -9   17.92    3.74
   0   4   9   64.04    6.84
   0  -4  -9   65.57    6.62
  -1  -4  -9  244.98   16.33
  -1  -4  -9  265.91   13.32
   1   4   9  257.09   18.25
  -2  -4  -9   13.55    3.67
   2   4   9   12.99    3.76
  -2  -4  -9   16.54    2.70
  -3  -4  -9  215.24   12.12
  -3  -4  -9  214.21   14.77
  -4  -4  -9   75.50    8.02
   4   4   9   80.61    8.88
  -4  -4  -9   87.53    6.44
  -5  -4  -9    7.47    3.15
  -5  -4  -9   13.60    2.79
  -6  -4  -9   10.41    3.44
  -6  -4  -9   13.42    3.04
  -7  -4  -9   17.79    3.63
  -8  -4  -9   21.34    4.23
  -9  -4  -9   -2.47    1.83
 -10  -4  -9    7.91    3.07
 -11  -4  -9    6.82    3.73
 -18   5   9    0.12    2.01
 -17   5   9    7.85    2.25
 -16   5   9   86.18    7.19
  15  -5  -9   -2.83    5.25
 -15   5   9    2.42    1.68
  14  -5  -9    2.84    5.31
 -14   5   9    5.08    1.84
  13  -5  -9   -3.04    4.73
 -13   5   9    0.46    1.17
  12  -5  -9    8.76    6.54
 -12   5   9   21.47    3.06
  11  -5  -9   37.74    8.53
  10  -5  -9   36.53    7.99
   9  -5  -9    5.35    4.77
   8  -5  -9    3.09    4.55
   7  -5  -9   -1.96    3.40
   6  -5  -9   31.36    6.63
   6  -5  -9   26.01    5.02
   5  -5  -9    7.43    2.95
   5  -5  -9    8.11    4.48
  -4   5   9  742.46   46.49
  -4   5   9  745.90   39.51
   4  -5  -9  755.23   41.57
  -3   5   9   33.23    4.93
   3  -5  -9   36.32    5.23
  -3   5   9   42.20    4.54
   2  -5  -9   16.18    2.01
  -2   5   9   20.39    3.83
   2  -5  -9   19.30    3.95
   1  -5  -9  431.73   19.02
  -1   5   9  382.08   26.14
   1  -5  -9  374.44   23.64
   0   5   9  258.80   18.61
   0  -5  -9  274.38   17.32
   0  -5  -9  264.90   13.38
  -1  -5  -9  112.04    9.47
  -1  -5  -9  108.70    6.91
   1   5   9  111.81    9.74
  -2  -5  -9   32.43    5.27
  -2  -5  -9   32.34    3.69
  -3  -5  -9  117.82   10.78
   3   5   9  150.00   11.94
  -3  -5  -9  137.10    8.63
  -4  -5  -9   69.38    7.89
  -4  -5  -9   75.44    5.99
  -5  -5  -9    7.02    3.09
  -5  -5  -9    4.15    2.11
  -6  -5  -9    8.51    2.87
  -6  -5  -9   12.21    3.03
  -7  -5  -9   68.36    7.16
  -8  -5  -9    3.09    2.51
  -9  -5  -9    5.17    2.85
 -10  -5  -9   31.97    5.62
 -11  -5  -9   -1.73    3.49
  15  -6  -9   -9.65    4.60
 -14   6   9   28.55    3.93
  13  -6  -9   39.59    9.73
 -13   6   9   36.59    3.96
  12  -6  -9   12.84    7.31
 -12   6   9    9.67    2.12
 -11   6   9   77.85    5.38
  11  -6  -9   83.29   12.36
  10  -6  -9    2.75    5.11
   9  -6  -9  204.92   18.77
   8  -6  -9  236.73   20.30
   7  -6  -9   -2.09    3.33
   7  -6  -9   -1.34    2.22
   6  -6  -9   38.67    5.96
   6  -6  -9   47.66    8.05
   5  -6  -9   28.34    5.06
   5  -6  -9   40.30    7.38
  -4   6   9  306.03   17.56
   4  -6  -9  301.96   19.07
  -4   6   9  287.38   20.53
  -3   6   9    2.97    2.23
   3  -6  -9    4.76    2.83
  -3   6   9    4.48    1.87
  -2   6   9   35.79    5.05
   2  -6  -9   36.98    2.84
  -2   6   9   38.68    4.42
   2  -6  -9   32.87    5.30
   1  -6  -9  288.96   18.75
   1  -6  -9  291.13   14.20
  -1   6   9  287.22   19.97
   0   6   9  132.18   10.82
   0  -6  -9  134.04    7.59
   0  -6  -9  116.76   10.39
   1   6   9    0.07    1.02
  -1  -6  -9   14.51    4.13
   2   6   9   23.66    4.55
  -2  -6  -9   17.26    4.46
  -2  -6  -9   14.23    2.62
  -3  -6  -9   32.22    4.02
  -3  -6  -9   33.14    5.72
  -4  -6  -9    1.57    1.66
  -4  -6  -9   11.19    3.72
  -5  -6  -9   13.85    2.97
  -5  -6  -9   12.01    4.02
  -6  -6  -9   -2.28    1.38
  -6  -6  -9   -3.32    1.67
  -7  -6  -9   63.15    6.99
  -8  -6  -9    6.40    2.69
  -9  -6  -9   11.76    3.77
 -10  -6  -9    0.18    3.20
  16  -7  -9   16.79    8.40
  15  -7  -9    0.33    5.69
  14  -7  -9   10.99    7.95
  13  -7  -9    9.65    7.29
  12  -7  -9   -0.54    5.64
  11  -7  -9    9.94    6.92
  10  -7  -9  130.15   15.47
   9  -7  -9  229.65   20.78
   8  -7  -9   77.80   11.27
   7  -7  -9    0.29    2.35
   7  -7  -9   -1.68    4.26
   6  -7  -9  125.63   10.64
   6  -7  -9  122.22   13.65
   5  -7  -9   22.14    4.81
   5  -7  -9   17.48    6.20
   4  -7  -9   73.58    8.10
  -4   7   9   82.59    8.04
  -4   7   9   83.11    6.64
   3  -7  -9  116.67    9.37
  -3   7   9   90.35    7.32
  -3   7   9   89.98    8.62
  -2   7   9  435.87   29.25
  -2   7   9  456.38   24.95
   2  -7  -9  414.72   26.82
   2  -7  -9  479.42   20.95
   1  -7  -9  400.82   26.41
  -1   7   9  481.01   29.05
   1  -7  -9  428.53   20.65
   0   7   9   30.14    4.96
   0  -7  -9   40.19    6.09
   1   7   9    5.17    2.68
  -1  -7  -9    6.92    3.44
  -1  -7  -9    3.65    1.59
  -2  -7  -9    5.99    3.50
  -2  -7  -9    6.25    2.16
  -3  -7  -9   -0.40    2.55
  -3  -7  -9   -1.24    1.08
  -4  -7  -9    1.39    1.60
  -4  -7  -9   -2.11    1.85
  -5  -7  -9    4.94    2.26
  -5  -7  -9    3.75    3.15
  -6  -7  -9    4.64    2.30
  -6  -7  -9    6.84    3.44
  -7  -7  -9   -2.81    1.42
  -8  -7  -9   -5.20    1.63
  -9  -7  -9   18.20    4.36
 -10  -7  -9   16.27    5.37
  17  -8  -9   -0.25    6.04
  16  -8  -9   -6.91    5.19
  15  -8  -9   -1.79    5.25
  14  -8  -9  110.61   16.47
  13  -8  -9   94.42   14.70
  12  -8  -9    5.35    6.76
  11  -8  -9   28.36    9.27
  10  -8  -9   44.96   10.17
   9  -8  -9  230.15   21.26
   8  -8  -9   14.34    4.52
   8  -8  -9   15.99    6.91
   7  -8  -9   30.15    5.71
   7  -8  -9   38.02    8.37
   6  -8  -9    2.47    4.59
   6  -8  -9    2.13    2.61
   5  -8  -9    1.46    2.61
   5  -8  -9    0.30    4.71
   4  -8  -9   31.03    5.79
  -4   8   9   38.83    4.71
  -4   8   9   38.13    5.66
  -3   8   9  182.75   12.24
   3  -8  -9  188.77   14.15
  -3   8   9  203.17   14.76
   2  -8  -9  107.27    9.94
  -2   8   9  114.66    8.20
  -2   8   9  109.45    9.60
  -1   8   9   77.02    7.66
   1  -8  -9   80.17    8.87
   0  -8  -9    1.06    2.52
   0   8   9   -0.65    1.08
  -1  -8  -9   19.08    5.39
  -1  -8  -9   23.12    3.17
  -2  -8  -9    7.09    3.41
  -3  -8  -9   16.57    3.27
  -3  -8  -9   13.58    4.27
  -4  -8  -9   15.78    4.68
  -4  -8  -9   20.49    3.83
  -5  -8  -9    1.01    2.77
  -5  -8  -9    0.96    1.91
  -6  -8  -9    0.52    2.36
  -6  -8  -9    1.68    2.19
  -7  -8  -9    3.10    2.33
  -8  -8  -9   30.40    5.50
  -9  -8  -9   16.80    5.03
  18  -9  -9   -6.52    6.97
  17  -9  -9   -4.52    7.12
  16  -9  -9    4.25    7.16
  15  -9  -9   59.91   13.41
  14  -9  -9  260.92   25.80
  13  -9  -9   14.24    7.98
  12  -9  -9   28.35    9.93
  11  -9  -9  145.89   17.94
  10  -9  -9   11.32    7.15
   9  -9  -9   30.88    6.39
   9  -9  -9   47.29    9.99
   8  -9  -9    3.84    3.29
   8  -9  -9   -2.42    4.55
   7  -9  -9   38.05    8.96
   7  -9  -9   46.08    6.86
   6  -9  -9   57.40    7.64
   6  -9  -9   67.58   10.87
   5  -9  -9    0.26    5.10
   5  -9  -9    0.31    2.69
   4  -9  -9    0.62    2.66
  -4   9   9    0.01    2.00
  -4   9   9   -1.29    1.45
   3  -9  -9   13.13    4.56
  -3   9   9   10.87    3.33
  -3   9   9    9.48    2.78
   2  -9  -9   -2.51    1.97
  -2   9   9    0.74    1.40
  -2   9   9    0.71    1.95
  -1   9   9    1.27    2.12
   1  -9  -9    0.13    2.41
   0  -9  -9  110.89   11.36
  -1  -9  -9    0.39    2.85
  -2  -9  -9   19.33    5.27
  -3  -9  -9    1.35    2.15
  -4  -9  -9   12.43    4.31
  -5  -9  -9   18.09    4.79
  -6  -9  -9   12.91    4.30
  19 -10  -9    0.73    8.41
  18 -10  -9    5.18    8.01
  17 -10  -9    1.53    6.55
  16 -10  -9    4.75    7.62
  15 -10  -9   61.35   14.14
  14 -10  -9   65.34   14.02
  13 -10  -9   -2.81    6.07
  12 -10  -9   21.26    9.51
  11 -10  -9   17.61    8.82
  10 -10  -9   31.98    6.59
  10 -10  -9   25.61    9.06
   9 -10  -9   -3.24    5.18
   9 -10  -9   -1.81    2.63
   8 -10  -9   43.41    9.76
   8 -10  -9   36.52    6.67
   7 -10  -9  161.32   13.02
   7 -10  -9  142.99   16.34
   6 -10  -9    5.93    5.66
   6 -10  -9   11.47    4.32
   5 -10  -9   -1.01    2.59
   5 -10  -9   -2.10    5.21
  -4  10   9   -0.65    2.00
  -4  10   9    3.38    1.95
   4 -10  -9    0.32    2.77
  -3  10   9   -0.59    1.40
  -3  10   9   -2.03    1.79
   3 -10  -9   -3.47    1.80
   2 -10  -9   28.85    6.08
  -2  10   9   17.46    3.38
  -2  10   9   19.76    4.18
   1 -10  -9   21.96    5.48
   0 -10  -9   22.16    5.68
  -1 -10  -9    6.35    3.05
  -2 -10  -9   -2.36    1.80
  -3 -10  -9   -0.64    2.08
  -4 -10  -9   10.61    4.28
  -5 -10  -9   44.25    7.79
  -6 -10  -9   26.25    5.87
  19 -11  -9   -0.29    9.32
  18 -11  -9   16.33    9.79
  17 -11  -9   -6.03    6.87
  16 -11  -9   52.59   13.65
  15 -11  -9   55.42   14.01
  14 -11  -9   11.74    8.72
  13 -11  -9    2.02    7.07
  12 -11  -9   85.89   15.26
  11 -11  -9   55.32   11.98
  11 -11  -9   57.25    8.55
  10 -11  -9   -3.47    2.42
  10 -11  -9    1.89    5.37
   9 -11  -9   23.29    5.88
   9 -11  -9   19.30    8.32
   8 -11  -9   40.18    6.98
   8 -11  -9   44.46   10.23
   7 -11  -9  206.60   15.61
   7 -11  -9  176.73   18.87
   6 -11  -9    7.03    3.99
   6 -11  -9    5.47    5.88
   5 -11  -9   12.74    5.85
   5 -11  -9    5.02    3.48
  -4  11   9   23.19    4.63
   4 -11  -9   24.64    6.00
  -4  11   9   30.78    4.33
  -3  11   9    8.53    2.96
   3 -11  -9    2.70    3.07
  -3  11   9    8.94    2.57
  -2  11   9    3.81    2.24
   2 -11  -9   -1.17    2.21
   1 -11  -9   42.36    7.65
   0 -11  -9  103.84   11.68
  -1 -11  -9    7.30    3.60
  -2 -11  -9   46.14    8.14
  -3 -11  -9    5.43    3.58
  -4 -11  -9   -1.82    2.30
  -5 -11  -9   22.28    5.65
  -6 -11  -9   31.15    6.36
  18 -12  -9   -0.60    9.71
  17 -12  -9   -7.22    6.85
  16 -12  -9    6.12    8.79
  15 -12  -9   26.87   11.40
  14 -12  -9    2.18    6.96
  13 -12  -9   37.22   12.53
  12 -12  -9   11.76    7.86
  11 -12  -9   75.68   13.80
  11 -12  -9   71.51    9.63
  10 -12  -9   30.01    9.64
  10 -12  -9   21.38    5.74
   9 -12  -9    0.58    5.50
   9 -12  -9    0.92    2.83
   8 -12  -9   31.21    6.42
   8 -12  -9   44.37    9.93
   7 -12  -9   34.54    9.38
   7 -12  -9   37.74    6.95
   6 -12  -9    2.50    5.28
   6 -12  -9    1.56    2.77
   5 -12  -9    6.62    3.85
  -4  12   9   88.44    8.79
  -4  12   9   97.43    7.60
   4 -12  -9   78.15   10.15
  -3  12   9   -0.01    1.74
   3 -12  -9   -4.47    2.13
  -3  12   9   -1.90    1.57
   2 -12  -9    4.70    3.18
   1 -12  -9   76.58   10.25
   0 -12  -9   -0.36    2.84
  -1 -12  -9   50.27    8.67
  -2 -12  -9   30.06    7.13
  -3 -12  -9    2.10    3.19
  -4 -12  -9   -4.12    2.55
  -5 -12  -9   50.47    9.08
  18 -13  -9   -0.46    9.33
  17 -13  -9    1.76    5.23
  16 -13  -9   -4.42    7.78
  15 -13  -9   13.17    9.72
  14 -13  -9    0.86    7.09
  13 -13  -9    8.30    7.83
  12 -13  -9    7.43    4.33
  12 -13  -9   10.73    7.46
  11 -13  -9   36.80    7.36
  11 -13  -9   25.32    9.46
  10 -13  -9    9.00    6.52
  10 -13  -9    6.95    4.19
   9 -13  -9    9.84    4.39
   9 -13  -9    8.73    6.44
   8 -13  -9    5.24    3.87
   8 -13  -9    0.83    5.00
   7 -13  -9   91.18   13.86
   7 -13  -9  126.51   11.72
   6 -13  -9   24.84    6.01
   6 -13  -9   30.68    8.16
   5 -13  -9   62.62    8.90
  -5  13   9   45.36    6.79
  -5  13   9   59.53    6.17
  -4  13   9    3.22    2.27
   4 -13  -9    0.12    2.78
  -4  13   9    6.32    2.26
   3 -13  -9   29.29    7.12
   2 -13  -9    5.15    3.13
   1 -13  -9    8.04    3.91
   0 -13  -9   21.37    5.61
  -1 -13  -9   32.89    7.50
  -2 -13  -9    4.26    3.20
  -3 -13  -9   -1.37    2.73
  -4 -13  -9   15.27    5.52
  17 -14  -9    2.92    6.84
  16 -14  -9    7.28    6.69
  15 -14  -9   16.21    9.80
  14 -14  -9    3.93    7.19
  13 -14  -9   -0.26    5.99
  12 -14  -9   19.39    5.98
  12 -14  -9   34.75   10.78
  11 -14  -9   17.26    7.85
  11 -14  -9   35.11    7.32
  10 -14  -9    1.36    3.16
  10 -14  -9    4.40    5.52
   9 -14  -9   12.03    7.67
   9 -14  -9   33.77    6.98
   8 -14  -9   31.56    6.93
   8 -14  -9   43.62    9.93
   7 -14  -9   18.48    7.66
   7 -14  -9   22.27    5.97
   6 -14  -9   84.91   11.64
   6 -14  -9   42.96    8.08
  -5  14   9   18.94    3.86
  -5  14   9   19.89    4.85
   5 -14  -9   18.83    5.84
   4 -14  -9    4.49    4.16
   3 -14  -9   10.43    5.26
   2 -14  -9    2.26    2.79
   1 -14  -9   -1.18    2.27
   0 -14  -9   24.57    6.85
  -1 -14  -9   52.56    9.63
  -2 -14  -9   91.79   12.52
  16 -15  -9    1.99    7.07
  15 -15  -9    2.95    6.73
  14 -15  -9    4.46    7.20
  13 -15  -9    4.71    7.04
  12 -15  -9   25.04    6.20
  12 -15  -9   18.61    9.06
  11 -15  -9    2.74    6.58
  11 -15  -9    3.93    3.79
  10 -15  -9    7.28    6.63
  10 -15  -9    6.08    3.53
   9 -15  -9    1.09    3.10
   9 -15  -9   -1.84    4.21
   8 -15  -9   28.06    6.55
   8 -15  -9   32.77    9.34
   7 -15  -9    3.68    3.29
   7 -15  -9    0.29    4.49
   6 -15  -9   57.16    9.24
   5 -15  -9    4.23    4.12
   4 -15  -9    3.20    3.58
   3 -15  -9    0.45    3.66
   2 -15  -9    2.42    3.09
   1 -15  -9    1.38    2.80
   0 -15  -9   47.81    9.37
  -1 -15  -9   43.83    8.88
  15 -16  -9   14.91    8.64
  14 -16  -9   -2.24    5.39
  13 -16  -9    5.77    6.89
  12 -16  -9    7.03    6.31
  12 -16  -9    3.75    3.23
  11 -16  -9   34.78    7.60
  11 -16  -9   22.47    8.23
  10 -16  -9    2.50    5.62
  10 -16  -9   18.42    5.57
   9 -16  -9   10.57    6.91
   9 -16  -9    7.84    3.96
   8 -16  -9   46.58    8.41
   7 -16  -9   41.44    9.03
   7 -16  -9   22.14    6.77
   6 -16  -9    3.96    3.82
   5 -16  -9    3.17    3.88
   4 -16  -9    4.97    4.26
   3 -16  -9   -2.31    2.75
   2 -16  -9    4.81    3.88
   1 -16  -9   44.04    8.77
  14 -17  -9   18.41    9.48
  13 -17  -9   -0.28    6.56
  12 -17  -9   11.13    6.73
  11 -17  -9  110.21   16.57
  11 -17  -9  105.38   12.55
  10 -17  -9    2.53    5.71
  10 -17  -9    1.03    3.65
   9 -17  -9   24.29    8.87
   9 -17  -9   34.91    7.56
   8 -17  -9   18.32    5.68
   7 -17  -9   -3.09    3.43
   6 -17  -9    3.06    3.72
   5 -17  -9   -0.70    2.68
   4 -17  -9   -2.00    2.74
   3 -17  -9   -1.32    4.18
  13 -18  -9    0.99    6.13
  12 -18  -9    4.78    6.67
  11 -18  -9   -4.54    3.92
  11 -18  -9    9.85    4.82
  10 -18  -9    8.38    5.04
  10 -18  -9   -0.54    4.99
   9 -18  -9   22.01    7.78
   8 -18  -9   34.52    8.25
   7 -18  -9    2.51    3.38
   6 -18  -9    1.08    3.81
  11 -19  -9    2.54    5.24
  11 -19  -9    8.23    6.03
  10 -19  -9   26.11    8.09
   9 -19  -9   28.14    8.34
   3 -20  10   -0.50    4.15
   9 -20  10   18.33    8.02
   1 -19  10   -0.19    3.81
   2 -19  10    0.25    2.85
   3 -19  10   -1.66    3.32
   8 -19  10    6.22    6.83
   9 -19  10   47.90   12.19
  10 -19  10   47.14   13.23
  -1 -18  10   -0.96    3.31
   0 -18  10    4.27    3.79
   1 -18  10    1.56    3.09
   2 -18  10   -0.72    2.51
   3 -18  10    2.75    2.75
   7 -18  10   11.05    7.11
   8 -18  10   23.12    9.60
   9 -18  10   31.77   10.66
  10 -18  10    9.55    7.58
  11 -18  10    4.91    7.16
  -2 -17  10    0.42    3.24
  -1 -17  10    0.09    3.14
   0 -17  10   35.72    6.76
   1 -17  10   28.17    5.90
   2 -17  10   13.01    3.99
   3 -17  10    1.69    3.06
   4 -17  10   41.14    6.58
   6 -17  10   11.94    8.55
   7 -17  10   17.78    8.68
   8 -17  10   28.16    9.45
   9 -17  10   23.31    9.33
  10 -17  10    7.35    6.55
  11 -17  10   19.51    9.69
  12 -17  10   20.21   10.25
  -4 -16  10   -2.20    3.08
  -3 -16  10    0.56    2.84
  -2 -16  10   -1.63    2.84
  -1 -16  10   10.69    4.28
   0 -16  10   45.72    7.39
   1 -16  10   18.45    4.88
   2 -16  10    2.10    2.38
   3 -16  10    1.29    2.46
   4 -16  10   75.58    8.37
   5 -16  10   46.77   10.84
   6 -16  10    7.57    6.52
   7 -16  10   84.77   14.47
   8 -16  10   14.68    8.00
   9 -16  10   -0.33    7.26
  10 -16  10    4.83    6.13
  11 -16  10    9.40    7.30
  12 -16  10    9.88    9.26
  13 -16  10   10.64    8.24
  -5 -15  10   -1.17    2.48
  -4 -15  10   -0.48    2.88
  -3 -15  10   19.46    5.26
  -2 -15  10    7.30    3.26
  -1 -15  10   79.69    9.08
   0 -15  10   66.24    8.09
   1 -15  10   23.75    5.31
   2 -15  10   40.09    6.32
   3 -15  10   28.85    5.32
   4 -15  10  103.60    9.23
   4 -15  10  101.51   14.39
   5 -15  10   40.55   10.47
   6 -15  10   18.64    8.72
   7 -15  10    6.98    7.50
   8 -15  10    1.90    7.30
   9 -15  10   48.63   12.40
  10 -15  10   24.65    8.92
  11 -15  10    8.93    7.61
  12 -15  10   23.65   10.09
  13 -15  10   -4.15    6.46
  -7 -14  10    1.56    2.77
  -6 -14  10    3.59    2.66
  -5 -14  10   10.62    4.30
  -4 -14  10   -2.84    1.97
  -3 -14  10   -2.26    2.18
  -2 -14  10   64.75    8.09
  -1 -14  10  197.58   14.75
   0 -14  10   93.62    8.98
   1 -14  10    5.57    2.85
   2 -14  10  115.98    9.70
   3 -14  10   11.39    5.84
   3 -14  10    4.03    2.53
   4 -14  10   -0.23    5.11
   4 -14  10    0.82    1.98
   5 -14  10   78.56   12.40
   6 -14  10   16.16    7.61
   7 -14  10   -1.04    4.88
   8 -14  10    2.04    6.69
   9 -14  10   -4.94    4.55
  10 -14  10   -1.16    6.25
  11 -14  10   20.92    9.82
  12 -14  10   14.28   10.80
  13 -14  10   -5.52    6.58
  14 -14  10    1.05    7.55
  -8 -13  10    6.46    3.29
  -7 -13  10    1.95    2.80
  -6 -13  10   12.83    4.15
  -5 -13  10   32.24    6.15
  -4 -13  10   22.05    5.16
  -3 -13  10   -2.49    2.04
  -2 -13  10  148.64   12.04
  -1 -13  10   91.09    8.69
   0 -13  10   58.88    7.04
   1 -13  10   99.11    8.73
   2 -13  10   37.61    5.41
   2 -13  10   47.75    8.56
   3 -13  10   -0.04    1.49
   3 -13  10    3.64    4.74
   4 -13  10    3.19    4.79
   4 -13  10    7.30    2.59
   5 -13  10   -0.26    4.16
   6 -13  10    7.06    5.79
   7 -13  10   47.71   10.72
   8 -13  10    2.55    5.52
   9 -13  10    9.39    7.14
  10 -13  10   40.29   11.35
  11 -13  10    0.23    7.33
  12 -13  10   10.96    9.27
  13 -13  10   27.42   12.20
  14 -13  10   -3.40    6.52
  -9 -12  10   19.47    5.10
  -8 -12  10    5.81    3.38
  -7 -12  10   25.11    5.72
  -6 -12  10  126.58   11.06
  -5 -12  10   84.94    9.18
  -4 -12  10   68.88    8.26
  -3 -12  10  159.02   12.61
  -2 -12  10   74.15    8.06
  -1 -12  10   10.92    3.50
   0 -12  10    5.82    2.51
   1 -12  10    0.26    4.48
   1 -12  10    8.13    2.82
   2 -12  10    0.05    4.57
   2 -12  10    3.86    2.00
   3 -12  10    1.78    4.88
   3 -12  10   -0.06    1.48
   4 -12  10    7.55    5.81
   4 -12  10   16.88    3.21
   5 -12  10   16.32    6.99
   6 -12  10   34.92    8.88
   7 -12  10    2.77    5.92
   9 -12  10   98.28   14.99
  10 -12  10   17.15    8.92
  11 -12  10   -4.10    6.08
 -12  12 -10  101.23    9.88
  12 -12  10   74.56   15.66
  13 -12  10   79.49   16.65
 -13  12 -10   64.13    8.22
 -14  12 -10   35.05    5.97
  14 -12  10   -5.58    7.51
  15 -12  10   34.33   15.04
 -15  12 -10   17.20    4.08
 -10 -11  10   41.62    7.14
  -9 -11  10   28.97    5.84
  -8 -11  10    1.36    2.14
  -7 -11  10   32.88    6.06
  -6 -11  10   75.71    8.83
  -5 -11  10   26.49    5.24
  -4 -11  10  135.58   11.14
  -3 -11  10   29.23    5.18
  -2 -11  10    3.09    2.22
  -1 -11  10   27.41    4.69
   0 -11  10   15.31    3.44
   0 -11  10    9.91    5.27
   1 -11  10   68.37    6.40
   1 -11  10   51.65    8.73
   2 -11  10   59.25    6.12
   2 -11  10   52.02    9.06
   3 -11  10   84.14    6.83
   3 -11  10   72.73   10.59
   4 -11  10    3.86    4.83
   4 -11  10   -0.12    0.77
   5 -11  10    5.06    5.26
   6 -11  10   63.27   11.27
   7 -11  10  176.43   18.49
   8 -11  10   62.20   11.85
   9 -11  10   21.60    9.55
  10 -11  10   19.33    9.10
 -11  11 -10   13.86    3.91
  11 -11  10   12.59    9.21
 -12  11 -10   36.57    5.82
  12 -11  10   29.46   11.48
  13 -11  10   12.45    9.00
 -13  11 -10    9.46    3.47
  14 -11  10    2.42    9.24
 -14  11 -10    6.21    3.58
 -15  11 -10   64.71    8.54
  15 -11  10   81.34   18.73
 -11 -10  10   36.43    6.58
 -10 -10  10   78.10    9.27
  -9 -10  10   21.77    5.28
  -8 -10  10   11.68    3.64
  -7 -10  10   15.27    4.07
  -6 -10  10   71.61    8.15
  -5 -10  10   -0.43    1.76
  -4 -10  10   22.46    4.67
  -3 -10  10    0.16    1.53
  -2 -10  10  169.31   12.15
  -1 -10  10    9.20    2.70
  -1 -10  10    9.63    4.92
   0 -10  10   -3.03    3.80
   0 -10  10    9.55    2.73
   1 -10  10  150.40   14.56
   1 -10  10  159.22   10.90
   2 -10  10   63.51    9.33
   2 -10  10   53.08    5.50
   3 -10  10   48.05    4.76
   3 -10  10   50.03    8.91
   4 -10  10   90.19    6.72
   4 -10  10   86.55   11.75
   5 -10  10   36.74    8.55
   6 -10  10   30.65    8.35
   7 -10  10  192.56   19.16
   8 -10  10  129.09   16.43
   9 -10  10   87.15   14.64
  -9  10 -10  112.79    8.98
  10 -10  10   11.59    7.93
 -10  10 -10    9.21    3.32
 -11  10 -10   94.18    9.30
  12 -10  10   -1.79    6.22
 -12  10 -10    5.52    2.74
  13 -10  10   28.05   11.34
 -13  10 -10   31.53    5.59
 -14  10 -10   52.69    7.52
  14 -10  10   53.60   14.60
 -15  10 -10   26.55    5.45
  15 -10  10   18.28   12.67
 -12  -9  10   13.82    4.36
 -11  -9  10   56.51    8.26
 -10  -9  10   25.11    5.29
  -9  -9  10   16.26    4.07
  -8  -9  10    1.14    1.90
  -7  -9  10   53.94    6.89
  -6  -9  10   91.13    8.47
  -5  -9  10   14.43    3.58
  -4  -9  10    8.00    2.80
  -3  -9  10    7.32    2.50
  -2  -9  10    7.46    2.48
  -2  -9  10   12.97    4.48
  -1  -9  10   -1.31    3.78
  -1  -9  10   -1.70    1.03
   0  -9  10    3.06    1.72
   0  -9  10    3.97    4.08
   1  -9  10   -0.55    0.91
   1  -9  10    0.28    3.64
   2  -9  10   46.26    4.68
   2  -9  10   55.66    8.35
   4  -9  10  177.57   16.98
   4  -9  10  193.77   11.68
   5  -9  10    1.13    4.32
   6  -9  10  102.53   13.20
   7  -9  10  201.35   19.82
   8  -9  10  121.47   15.34
  -8   9 -10  103.10    8.72
  -9   9 -10   14.34    3.82
   9  -9  10   30.09    9.52
  10  -9  10  220.31   23.02
 -10   9 -10  247.15   15.31
  11  -9  10   84.67   14.64
 -11   9 -10   93.21    8.93
  12  -9  10   13.67    8.12
 -12   9 -10   28.76    5.14
 -13   9 -10   45.61    6.68
  13  -9  10   38.38   11.99
  14  -9  10   27.55   11.62
 -14   9 -10   26.66    5.25
  15  -9  10   -0.76    8.95
 -15   9 -10    1.90    3.17
 -13  -8  10   21.74    4.86
 -12  -8  10    9.54    3.63
 -11  -8  10   10.70    3.69
 -10  -8  10   11.08    3.46
  -9  -8  10   -1.60    1.31
  -8  -8  10   60.96    7.43
  -7  -8  10    3.23    2.23
  -6  -8  10    0.74    1.42
  -5  -8  10   41.14    5.50
  -4  -8  10   12.69    3.08
  -3  -8  10    9.40    2.62
  -2  -8  10   10.25    2.75
  -2  -8  10    9.01    4.14
  -1  -8  10    3.24    1.83
  -1  -8  10    6.01    3.81
   0  -8  10    4.30    3.81
   0  -8  10    0.01    1.14
   1  -8  10   10.86    4.64
   1  -8  10   10.91    2.46
   2  -8  10  224.38   18.93
   2  -8  10  244.96   14.24
   3  -8  10  216.71   18.79
   3  -8  10  232.57   13.51
   4  -8  10   96.09    6.47
   4  -8  10   79.22   10.98
   5  -8  10  228.28   19.91
   6  -8  10  351.73   27.56
   7  -8  10  286.50   23.98
  -7   8 -10  257.97   15.70
   8  -8  10   48.65   10.63
  -8   8 -10   39.63    5.68
   9  -8  10   41.73   10.33
  -9   8 -10   43.10    5.83
  10  -8  10   61.28   12.06
 -10   8 -10   47.12    6.35
 -11   8 -10   23.75    4.55
  11  -8  10   19.65    9.13
  12  -8  10   19.68    9.01
 -12   8 -10   39.62    5.92
  13  -8  10   21.43    9.20
 -13   8 -10   11.51    3.66
 -14   8 -10    8.74    3.08
  14  -8  10    7.24    8.58
 -15   8 -10    3.72    2.89
 -13  -7  10   29.59    5.57
 -12  -7  10    4.99    2.75
 -11  -7  10   10.33    3.57
 -10  -7  10    2.19    1.99
  -9  -7  10    2.75    2.22
  -8  -7  10    5.60    2.49
  -7  -7  10  101.21    8.65
  -6  -7  10   17.11    3.65
  -5  -7  10    5.52    2.24
  -4  -7  10   15.44    3.26
  -3  -7  10    6.99    2.32
  -3  -7  10    4.36    3.50
  -2  -7  10  155.97   13.17
  -2  -7  10  172.25   11.23
  -1  -7  10  203.86   12.53
  -1  -7  10  185.40   15.11
   0  -7  10   13.36    2.64
   0  -7  10   15.91    4.77
   1  -7  10  370.74   27.43
   1  -7  10  418.00   22.32
   3  -7  10  112.68   12.42
   3  -7  10  131.62    8.24
   4  -7  10   33.94    3.06
   4  -7  10   34.03    7.20
   5  -7  10  835.15   55.06
  -6   7 -10  197.56   12.37
   6  -7  10  201.09   18.68
  -7   7 -10    7.25    2.95
   7  -7  10   14.29    6.85
  -8   7 -10   44.02    5.67
   8  -7  10   50.48   10.22
  -9   7 -10    9.63    2.93
   9  -7  10    7.45    6.34
  10  -7  10   -5.69    4.51
 -10   7 -10    3.93    2.50
  11  -7  10    0.69    6.79
 -11   7 -10   -1.36    1.90
 -12   7 -10   22.11    4.39
  12  -7  10   16.63    7.97
 -13   7 -10    3.97    3.03
  13  -7  10   12.36    7.81
  14  -7  10   -2.89    7.56
 -14   7 -10   -0.90    2.46
 -15   7 -10   -0.09    2.45
 -13  -6  10   25.55    5.39
 -12  -6  10    3.37    2.21
 -11  -6  10    2.86    2.23
 -10  -6  10    8.15    3.02
  -9  -6  10    4.24    2.12
  -8  -6  10   16.26    3.79
  -7  -6  10   86.59    7.95
  -6  -6  10  152.17   11.20
  -5  -6  10   19.09    3.37
  -4  -6  10   77.90    7.45
  -4  -6  10   65.63    6.13
  -3  -6  10  332.69   19.92
  -3  -6  10  350.22   23.03
  -2  -6  10  601.81   38.03
  -2  -6  10  595.51   32.64
  -1  -6  10   58.45    7.20
  -1  -6  10   53.92    4.83
   0  -6  10    8.01    1.99
   0  -6  10    9.69    3.94
   1  -6  10  294.37   15.95
   1  -6  10  253.18   20.29
   2  -6  10  119.31    7.77
   2  -6  10  130.12   12.07
   3  -6  10   34.83    3.08
   3  -6  10   29.44    6.27
   4  -6  10   49.98    8.24
   4  -6  10   53.80    3.89
   5  -6  10  107.57   12.52
  -5   6 -10  111.35    8.03
   6  -6  10   26.09    7.31
  -6   6 -10   31.61    4.70
  -7   6 -10   28.04    4.35
   7  -6  10   14.72    7.23
  -8   6 -10    1.87    1.84
   8  -6  10   -2.41    4.90
   9  -6  10    2.91    5.75
  -9   6 -10    4.96    2.16
 -10   6 -10    3.23    2.31
  10  -6  10    8.74    6.59
  11  -6  10    6.03    5.77
 -11   6 -10   -2.95    1.79
 -12   6 -10   10.07    2.95
  12  -6  10    3.80    6.80
 -13   6 -10   -2.23    1.86
  13  -6  10   -5.57    6.36
 -14   6 -10   -2.36    2.16
 -13  -5  10    2.30    2.10
 -12  -5  10    5.41    2.88
 -11  -5  10   14.30    3.83
 -10  -5  10   15.31    3.77
  -9  -5  10    4.67    2.29
  -8  -5  10   65.77    7.09
  -7  -5  10  309.93   19.21
  -6  -5  10  237.35   15.24
  -5  -5  10    0.21    2.27
  -5  -5  10    3.60    1.80
  -4  -5  10   47.63    5.75
  -4  -5  10   59.64    5.24
  -3  -5  10  319.41   19.14
  -3  -5  10  338.82   22.17
  -2  -5  10  270.27   15.78
  -2  -5  10  260.83   18.87
  -1  -5  10  244.87   17.90
  -1  -5  10  241.19   14.31
   0  -5  10  758.99   39.75
   0  -5  10  746.80   47.57
   1  -5  10  453.09   24.62
   1  -5  10  460.53   30.64
   2  -5  10   13.14    4.76
   2  -5  10   15.77    2.09
   3  -5  10   27.10    2.46
   3  -5  10   23.21    5.82
   4  -5  10   46.55    7.97
  -4   5 -10   71.11    5.71
   4  -5  10   56.72    3.93
   5  -5  10   34.85    7.13
  -5   5 -10   20.52    3.65
  -6   5 -10   19.46    3.47
   6  -5  10   20.40    6.66
   7  -5  10    0.13    5.12
  -7   5 -10    3.79    2.19
  -8   5 -10   51.89    6.05
   8  -5  10   56.41   10.44
   9  -5  10    1.16    5.30
  -9   5 -10    1.78    1.81
  10  -5  10   10.92    6.85
 -11   5 -10    9.59    2.82
  11  -5  10    8.46    6.90
  12  -5  10    9.91    7.33
 -12   5 -10    5.45    2.82
 -13   5 -10    4.22    2.75
 -14   5 -10    4.97    3.00
 -15  -4  10   -2.11    1.49
 -13  -4  10    2.93    1.99
 -12  -4  10   25.68    4.67
 -11  -4  10    6.13    2.58
 -10  -4  10   -1.30    1.27
  -9  -4  10   60.64    6.66
  -8  -4  10  340.94   20.85
  -7  -4  10  344.89   20.74
  -6  -4  10   82.89    7.10
  -6  -4  10   73.48    6.68
  -5  -4  10   20.96    3.63
  -5  -4  10   22.31    3.63
  -4  -4  10    2.79    1.57
  -4  -4  10    0.80    2.07
  -3  -4  10   14.68    3.58
  -3  -4  10   12.85    2.64
  -2  -4  10    4.98    2.82
  -2  -4  10    3.04    1.42
  -1  -4  10  230.90   16.80
  -1  -4  10  230.42   13.61
   0  -4  10  235.98   17.62
   1  -4  10   58.60    7.50
   2  -4  10   38.42    6.34
   3  -4  10    7.48    4.20
  -3   4 -10    1.30    1.69
  -4   4 -10   26.73    3.87
   4  -4  10   31.20    6.55
   5  -4  10   17.55    5.65
  -5   4 -10   17.36    3.27
  -6   4 -10    1.52    1.52
   6  -4  10   -1.28    4.33
  -7   4 -10   -0.86    1.34
   7  -4  10    3.57    4.88
  -8   4 -10   10.77    2.98
   8  -4  10    8.94    6.29
  -9   4 -10   -1.04    1.47
   9  -4  10    1.98    5.22
  10  -4  10   68.94   11.40
 -10   4 -10   62.39    7.01
  11  -4  10    6.88    7.22
 -11   4 -10    6.85    2.71
 -12   4 -10   -1.03    2.25
 -13   4 -10   12.22    3.76
 -14   4 -10    4.09    2.62
 -15  -3  10    6.86    2.73
 -13  -3  10   22.10    4.60
 -12  -3  10  129.29   10.69
 -11  -3  10   71.87    6.99
 -10  -3  10    9.12    2.80
  -9  -3  10  103.03    8.42
  -8  -3  10  391.18   23.22
  -7  -3  10   20.80    3.79
  -7  -3  10   25.88    3.85
  -6  -3  10   -0.96    1.01
  -6  -3  10    0.89    1.79
  -5  -3  10   18.29    3.22
  -5  -3  10   22.66    3.61
  -4  -3  10   73.82    6.96
  -4  -3  10   73.39    6.02
  -3  -3  10   65.36    6.54
  -2  -3  10    1.28    2.14
  -1  -3  10    2.78    2.66
   0  -3  10   21.08    4.45
   1  -3  10   70.96    8.15
   2  -3  10   76.53    8.83
  -3   3 -10  201.15   11.40
   3  -3  10  185.89   15.72
  -4   3 -10  280.31   15.05
   4  -3  10  275.45   21.27
   5  -3  10   57.05    8.61
  -5   3 -10   46.46    5.18
  -6   3 -10   35.99    4.71
   6  -3  10   41.68    7.89
  -7   3 -10   27.98    4.22
   7  -3  10   20.77    6.81
   8  -3  10   -0.72    4.62
  -8   3 -10   -0.53    1.64
   9  -3  10   13.50    6.74
  -9   3 -10   10.15    2.95
  10  -3  10   65.27   10.67
 -10   3 -10   37.04    5.52
 -11   3 -10    6.48    2.41
 -12   3 -10   -0.25    1.93
 -13   3 -10   11.91    3.63
 -14   3 -10   73.89    8.92
 -16  -2  10   39.40    5.50
 -15  -2  10    4.90    2.36
 -13  -2  10   68.58    7.60
 -12  -2  10   31.94    5.00
 -11  -2  10   -1.25    1.08
 -10  -2  10   77.98    6.99
  -9  -2  10   95.98    7.97
  -8  -2  10  120.09    9.08
  -8  -2  10  117.00    9.54
  -7  -2  10   -1.02    1.00
  -7  -2  10   -1.53    1.57
  -6  -2  10   15.56    3.08
  -6  -2  10   16.58    3.15
  -5  -2  10   43.90    5.05
  -4  -2  10    0.86    1.75
  -3  -2  10   50.68    5.70
  -2  -2  10   78.96    7.51
  -1  -2  10    0.65    2.16
   0  -2  10   87.35    8.56
   1  -2  10   -0.04    2.17
  -2   2 -10   -2.78    1.00
   2  -2  10   -3.13    2.37
  -3   2 -10    4.99    1.72
   3  -2  10    7.71    4.14
  -4   2 -10    7.67    2.20
   4  -2  10   13.23    4.83
  -5   2 -10   61.37    5.73
   5  -2  10   65.36    8.92
   6  -2  10  172.44   15.65
  -6   2 -10  171.64   10.78
  -7   2 -10  164.65   10.71
   7  -2  10  163.04   15.82
  -8   2 -10   19.14    3.93
   8  -2  10    9.08    5.87
   9  -2  10   31.76    8.12
  -9   2 -10   38.77    5.47
 -10   2 -10    6.07    2.93
 -11   2 -10   12.73    3.69
 -12   2 -10    0.04    2.49
 -13   2 -10   -1.14    2.58
 -16  -1  10   43.34    6.08
 -15  -1  10   -0.87    1.70
 -13  -1  10  146.85   11.13
 -12  -1  10   12.76    3.13
 -11  -1  10    1.44    1.54
 -10  -1  10    6.18    2.26
  -9  -1  10  109.42    7.72
  -9  -1  10  112.21    9.32
  -9  -1  10  105.67    8.52
  -8  -1  10   54.92    5.68
  -8  -1  10   60.05    5.94
  -8  -1  10   40.76    4.53
  -7  -1  10    4.04    2.18
  -6  -1  10   28.18    4.17
  -5  -1  10    6.72    2.51
  -4  -1  10    0.78    1.76
  -3  -1  10   48.40    5.45
  -2  -1  10   13.51    3.25
  -1  -1  10  612.10   38.66
   0  -1  10  170.08   13.32
   1  -1  10  414.27   27.72
  -1   1 -10  411.38   20.38
  -2   1 -10   80.52    5.93
   2  -1  10   87.54    8.89
  -3   1 -10   19.28    3.27
  -3   1 -10   18.70    3.17
   3  -1  10   28.07    5.53
  -4   1 -10   13.07    2.74
  -4   1 -10   14.48    2.89
   4  -1  10   18.41    5.42
  -5   1 -10  313.51   18.68
  -5   1 -10  322.73   17.16
   5  -1  10  327.32   23.89
  -6   1 -10   39.55    4.88
   6  -1  10   40.39    7.60
  -7   1 -10    4.26    2.06
   7  -1  10    5.65    5.40
  -8   1 -10   87.89    7.34
   8  -1  10   78.79   10.95
   9  -1  10  128.81   14.42
  -9   1 -10  144.51   10.32
 -10   1 -10    9.49    3.07
 -11   1 -10   25.53    4.90
 -12   1 -10   10.58    3.86
 -13   1 -10   -1.53    2.92
 -17   0  10   22.99    4.42
 -16   0  10   17.55    3.92
 -15   0  10    5.05    2.39
 -13   0  10  100.40    8.39
 -12   0  10   13.12    3.23
 -11   0  10    5.35    2.09
 -10   0  10   99.12    7.76
 -10   0  10   80.43    6.69
 -10   0  10   98.41    8.52
  -9   0  10   12.14    3.03
  -9   0  10    8.09    2.07
  -9   0  10   13.50    3.06
  -8   0  10   19.44    3.76
  -8   0  10   16.88    2.96
  -7   0  10   24.23    3.96
  -7   0  10   21.08    3.20
  -6   0  10  348.56   23.02
  -6   0  10  346.72   19.49
  -5   0  10  209.56   14.98
  -4   0  10    1.13    1.71
  -3   0  10   -0.17    1.49
  -2   0  10   46.66    5.62
  -1   0  10   54.99    6.30
   0   0  10  190.29   14.49
  -1   0 -10  275.93   14.35
  -1   0 -10  266.81   16.83
   1   0  10  282.22   19.67
   2   0  10  152.72   12.45
  -2   0 -10  147.92    8.74
  -2   0 -10  135.75   10.00
  -3   0 -10   -0.25    1.28
  -3   0 -10    0.92    1.84
   3   0  10    4.13    3.16
  -4   0 -10  590.81   27.80
   4   0  10  552.46   37.62
  -4   0 -10  563.07   31.38
  -5   0 -10  258.06   14.49
   5   0  10  282.13   20.53
  -5   0 -10  244.84   15.77
   6   0  10   28.44    6.67
  -6   0 -10   27.01    4.20
   7   0  10   28.36    6.97
  -7   0 -10   41.37    5.15
   8   0  10  162.45   15.34
  -8   0 -10  152.06   10.81
  -9   0 -10   99.95    8.38
 -10   0 -10   26.41    4.80
 -11   0 -10   54.67    7.49
 -12   0 -10   -3.55    2.52
 -13   0 -10    0.92    3.44
 -17   1  10    4.33    2.39
 -16   1  10   -4.64    1.56
 -15   1  10   17.87    3.67
 -13   1  10  161.27   11.62
 -12   1  10   -0.55    1.27
 -11   1  10   98.28    7.90
  -9   1  10   77.42    7.66
  -9   1  10   88.27    6.62
  -8   1  10   67.12    6.90
  -8   1  10   74.13    5.92
  -7   1  10  134.90    9.14
  -7   1  10  136.69   10.87
  -6   1  10   -0.34    1.18
  -6   1  10   -0.34    1.43
  -5   1  10  252.98   15.25
  -5   1  10  271.41   18.18
  -4   1  10   18.70    3.59
  -3   1  10  355.20   23.54
  -2   1  10    7.69    2.79
  -1   1  10   -1.60    1.51
   0  -1 -10  134.11   10.25
   0   1  10  154.79   11.90
   0  -1 -10  140.96    8.34
  -1  -1 -10   52.61    5.61
   1   1  10   48.36    6.34
  -1  -1 -10   49.12    4.37
  -2  -1 -10   54.96    5.68
   2   1  10   55.02    6.95
  -2  -1 -10   52.85    4.51
  -3  -1 -10  324.07   16.45
   3   1  10  319.77   22.39
  -3  -1 -10  298.75   18.68
   4   1  10  188.55   15.85
  -4  -1 -10  210.60   11.66
  -4  -1 -10  190.37   12.87
  -5  -1 -10    1.53    1.86
   5   1  10    3.61    3.75
  -5  -1 -10    1.31    1.51
   6   1  10   13.19    5.33
  -6  -1 -10   13.83    3.21
  -7  -1 -10   25.93    4.07
   7   1  10   10.96    4.02
  -8  -1 -10   60.67    6.81
  -9  -1 -10   29.10    4.85
 -10  -1 -10   63.09    7.64
 -11  -1 -10   89.33    9.39
 -12  -1 -10   -0.37    2.71
 -18   2  10   18.61    3.72
 -17   2  10    1.14    1.94
 -16   2  10    3.35    2.17
 -15   2  10   23.85    4.21
 -13   2  10   13.27    3.10
  12  -2 -10    8.82    4.81
 -12   2  10   11.42    2.67
  11  -2 -10   -5.48    3.30
  10  -2 -10   54.38    8.20
   9  -2 -10   52.67    8.03
  -7   2  10   66.23    6.81
  -7   2  10   66.80    5.67
  -6   2  10    2.98    1.60
  -6   2  10    4.12    2.30
  -5   2  10  122.27   10.27
  -5   2  10  132.03    8.84
  -4   2  10  148.28   11.57
  -3   2  10  422.22   27.53
   2  -2 -10   82.39    7.34
  -2   2  10   63.43    6.77
   1  -2 -10  251.51   16.20
  -1   2  10  253.37   17.94
   0   2  10  301.23   21.45
   0  -2 -10  316.62   19.10
   0  -2 -10  319.01   15.68
  -1  -2 -10   15.59    2.68
  -1  -2 -10   21.19    3.86
   1   2  10   18.05    4.10
  -2  -2 -10    9.58    2.84
   2   2  10    7.34    3.29
  -2  -2 -10   10.89    2.40
  -3  -2 -10  213.76   14.04
   3   2  10  211.32   16.71
  -3  -2 -10  222.96   12.23
  -4  -2 -10  100.30    8.13
  -4  -2 -10  102.88    7.18
   4   2  10   82.00    9.89
  -5  -2 -10   20.46    3.98
   5   2  10   15.84    5.03
  -5  -2 -10   12.68    2.88
  -7  -2 -10   29.53    4.55
  -8  -2 -10   49.03    6.24
  -9  -2 -10   -2.54    1.76
 -10  -2 -10   18.40    4.21
 -11  -2 -10   10.22    3.84
 -12  -2 -10    1.19    3.32
 -18   3  10   36.09    5.32
 -17   3  10    8.48    2.43
 -16   3  10   36.25    5.03
 -15   3  10   24.53    3.99
 -14   3  10    0.74    1.56
  13  -3 -10   40.88    8.17
 -13   3  10   37.24    4.73
  12  -3 -10    7.84    5.18
  11  -3 -10    0.99    4.12
  10  -3 -10   21.17    6.31
   9  -3 -10   12.10    4.95
   8  -3 -10   26.00    6.21
  -6   3  10   13.14    3.41
  -6   3  10   12.26    2.61
  -5   3  10 1395.71   83.72
  -5   3  10 1384.08   71.07
  -4   3  10  738.75   46.52
  -4   3  10  757.75   39.51
   3  -3 -10   -2.36    2.03
  -3   3  10    0.97    1.68
  -2   3  10  396.20   26.42
   2  -3 -10  406.79   23.95
  -1   3  10  640.17   39.32
   1  -3 -10  598.05   34.61
   0  -3 -10    5.45    1.59
   0   3  10    3.59    2.50
   0  -3 -10    1.52    2.14
  -1  -3 -10   40.56    3.96
  -1  -3 -10   40.48    5.22
   1   3  10   44.18    5.88
  -2  -3 -10  479.86   23.11
   2   3  10  494.35   31.55
  -2  -3 -10  444.55   27.16
  -3  -3 -10  203.30   14.04
  -3  -3 -10  202.80   11.82
   3   3  10  218.61   16.51
  -4  -3 -10   48.90    5.13
  -4  -3 -10   52.00    6.09
   5   3  10  112.25   11.72
  -5  -3 -10  159.12    9.62
  -5  -3 -10  136.50   10.71
  -6  -3 -10  107.71    8.24
  -7  -3 -10   27.31    4.59
  -8  -3 -10   -1.67    1.71
  -9  -3 -10    3.22    2.21
 -10  -3 -10   -4.08    2.13
 -11  -3 -10   -0.62    2.67
 -19   4  10   15.06    2.47
 -18   4  10   -2.61    1.86
 -17   4  10    6.25    2.41
 -16   4  10    3.98    2.28
 -15   4  10   -0.89    1.44
  14  -4 -10   24.65    7.62
 -14   4  10   14.15    2.79
  13  -4 -10   17.54    6.93
  12  -4 -10   17.10    6.84
  11  -4 -10   33.85    7.81
  10  -4 -10   72.09   10.10
   9  -4 -10    4.48    4.41
   8  -4 -10   33.31    7.05
   7  -4 -10   -0.04    3.30
  -6   4  10  113.88    8.41
  -6   4  10  117.40   10.12
  -5   4  10  474.58   31.65
  -5   4  10  500.10   26.94
  -4   4  10  607.91   38.44
  -4   4  10  624.73   32.69
   4  -4 -10  576.91   34.44
  -3   4  10   75.86    7.42
   3  -4 -10   71.66    7.47
   2  -4 -10    2.80    2.45
  -2   4  10    3.70    2.16
  -1   4  10  305.13   21.83
   1  -4 -10  339.87   15.99
   1  -4 -10  327.01   20.10
   0  -4 -10   27.59    4.64
   0   4  10   26.72    4.69
  -1  -4 -10  479.66   22.73
  -1  -4 -10  457.05   27.36
   1   4  10  468.24   30.98
   2   4  10  162.90   13.26
  -2  -4 -10  163.45    9.50
  -2  -4 -10  149.24   11.71
   3   4  10    1.43    1.96
  -3  -4 -10    1.46    1.50
  -3  -4 -10    3.19    2.74
  -4  -4 -10   27.28    5.10
  -4  -4 -10   33.41    4.36
   4   4  10   38.73    6.30
  -5  -4 -10  197.86   11.77
  -5  -4 -10  173.58   13.47
  -6  -4 -10    0.09    1.60
  -7  -4 -10   25.60    4.57
  -8  -4 -10    2.56    1.98
  -9  -4 -10   17.44    4.24
 -10  -4 -10   10.99    4.12
 -11  -4 -10   -3.02    3.25
 -17   5  10   20.64    3.70
 -16   5  10    3.77    1.82
 -15   5  10    0.72    1.27
  15  -5 -10   -2.46    5.12
 -14   5  10    4.55    1.74
  14  -5 -10    1.58    5.00
  13  -5 -10    6.39    5.04
 -13   5  10    1.29    1.33
  12  -5 -10    7.51    6.06
  11  -5 -10   11.97    6.57
  10  -5 -10  231.46   20.38
   9  -5 -10  140.40   14.51
   8  -5 -10   14.10    5.73
   7  -5 -10  215.81   18.46
  -5   5  10   63.09    5.87
  -5   5  10   66.43    7.04
   5  -5 -10   61.83    7.27
  -4   5  10   18.47    3.50
   4  -5 -10   24.82    4.87
  -4   5  10   19.94    4.20
  -3   5  10    9.38    3.09
  -3   5  10    7.02    2.35
   3  -5 -10    3.12    2.64
   2  -5 -10  125.64   10.26
  -2   5  10  122.91   10.54
   2  -5 -10  132.06    7.20
  -1   5  10   77.94    7.65
   1  -5 -10   81.28    5.22
   1  -5 -10   76.17    7.89
   0  -5 -10   25.63    3.02
   0   5  10   31.82    4.97
   0  -5 -10   29.42    4.99
  -1  -5 -10  106.92    9.39
   1   5  10   98.47    9.68
  -1  -5 -10  117.76    7.10
   2   5  10    7.86    2.99
  -2  -5 -10    5.88    3.05
  -2  -5 -10   10.14    2.27
  -3  -5 -10    2.58    1.58
  -3  -5 -10   -0.69    2.15
   3   5  10   -2.34    2.65
  -4  -5 -10    6.94    3.20
  -4  -5 -10   17.52    3.24
  -5  -5 -10    7.66    3.18
  -5  -5 -10    6.45    2.32
  -6  -5 -10   34.34    5.12
  -7  -5 -10   87.14    8.27
  -8  -5 -10   17.68    4.16
  -9  -5 -10   13.89    3.98
 -10  -5 -10   24.85    5.45
  16  -6 -10    1.44    5.98
  15  -6 -10   63.94   11.71
  14  -6 -10   71.64   11.99
  13  -6 -10   -3.82    4.62
  12  -6 -10   72.71   11.53
  11  -6 -10  145.97   16.15
  10  -6 -10  174.83   17.45
   9  -6 -10   26.64    7.45
   8  -6 -10    3.79    4.38
   7  -6 -10   64.78    9.86
   6  -6 -10  160.78   15.30
   6  -6 -10  159.85   12.64
  -5   6  10   80.97    8.20
   5  -6 -10   80.05    8.44
  -5   6  10   76.95    6.67
   4  -6 -10  382.02   23.63
  -4   6  10  385.36   25.78
  -4   6  10  379.31   21.88
  -3   6  10   10.52    3.47
  -3   6  10   10.90    2.85
   3  -6 -10   10.79    3.60
   2  -6 -10   58.14    4.12
   2  -6 -10   57.33    7.02
  -2   6  10   57.84    6.85
  -1   6  10   16.95    4.05
   1  -6 -10    9.19    3.74
   1  -6 -10   21.18    2.56
   0  -6 -10  203.90   14.71
   0  -6 -10  215.16   11.06
   0   6  10  188.09   15.26
  -1  -6 -10   -0.70    1.95
   1   6  10   -1.96    1.80
  -1  -6 -10    0.59    0.83
  -2  -6 -10    3.28    3.00
  -2  -6 -10    5.53    1.80
   2   6  10    2.15    2.18
  -3  -6 -10   33.95    5.85
  -3  -6 -10   31.60    4.22
  -4  -6 -10   32.86    6.09
  -4  -6 -10   41.13    4.90
  -5  -6 -10    2.90    1.68
  -5  -6 -10    1.12    2.23
  -6  -6 -10   40.07    5.48
  -7  -6 -10   16.02    3.48
  -8  -6 -10   48.13    6.62
  -9  -6 -10    3.91    3.13
 -10  -6 -10   -1.19    3.68
  16  -7 -10    1.41    6.06
  15  -7 -10   -2.66    4.92
  14  -7 -10  162.57   18.18
  13  -7 -10    3.47    5.66
  12  -7 -10   18.38    7.26
  11  -7 -10   48.76   10.22
  10  -7 -10  161.35   17.08
   9  -7 -10   -3.48    4.41
   8  -7 -10   13.37    6.69
   7  -7 -10   17.53    4.77
   7  -7 -10   17.71    6.73
   6  -7 -10   28.43    7.35
   6  -7 -10   26.20    5.38
   5  -7 -10  425.99   26.02
  -5   7  10  424.32   28.44
  -5   7  10  416.00   24.01
   4  -7 -10   67.76    8.00
  -4   7  10   61.18    6.33
  -4   7  10   78.75    7.69
  -3   7  10  132.22    9.54
  -3   7  10  150.14   11.75
   3  -7 -10  126.92   11.09
   2  -7 -10   80.45    8.57
   2  -7 -10   87.51    5.11
  -2   7  10   70.75    7.78
   1  -7 -10   -0.91    2.33
   1  -7 -10    2.27    1.33
  -1   7  10    2.22    2.24
   0   7  10   52.70    6.66
   0  -7 -10   52.42    4.20
   0  -7 -10   38.08    6.40
  -1  -7 -10   49.95    7.04
  -1  -7 -10   34.34    3.97
  -2  -7 -10   -0.38    1.21
  -2  -7 -10   -4.61    1.50
  -3  -7 -10    0.10    2.40
  -3  -7 -10    2.85    1.71
  -4  -7 -10   -4.51    1.79
  -4  -7 -10    1.48    1.71
  -5  -7 -10    3.20    3.12
  -5  -7 -10   10.42    2.66
  -6  -7 -10    0.35    2.09
  -7  -7 -10   47.78    6.30
  -8  -7 -10   32.79    5.24
  -9  -7 -10    0.35    2.76
  17  -8 -10    0.60    5.60
  16  -8 -10    4.57    6.75
  15  -8 -10   26.38    9.49
  14  -8 -10  173.34   19.78
  13  -8 -10   33.65    9.56
  12  -8 -10    2.56    5.50
  11  -8 -10   63.18   11.67
  10  -8 -10   37.08    9.52
   9  -8 -10   19.12    7.63
   8  -8 -10  135.80   15.21
   8  -8 -10  135.37   12.17
   7  -8 -10   36.71    6.28
   7  -8 -10   30.46    8.31
   6  -8 -10   20.93    5.15
   6  -8 -10   17.66    6.92
  -5   8  10  244.48   15.27
  -5   8  10  239.07   17.94
   5  -8 -10  239.46   17.05
  -4   8  10  108.81    8.43
   4  -8 -10  109.60   10.19
  -4   8  10  112.66   10.13
  -3   8  10   20.80    3.72
  -3   8  10   11.83    3.71
   3  -8 -10   25.07    5.33
  -2   8  10    1.49    2.03
   2  -8 -10    1.92    2.64
   1  -8 -10   12.76    4.02
  -1   8  10   12.74    3.89
   0  -8 -10   40.86    6.83
  -1  -8 -10    2.37    2.64
  -2  -8 -10   27.34    5.99
  -3  -8 -10   48.35    7.65
  -4  -8 -10   10.29    4.00
  -5  -8 -10   34.65    5.08
  -5  -8 -10   29.68    6.35
  -6  -8 -10    2.49    2.18
  18  -9 -10   -0.99    6.24
  17  -9 -10   62.46   13.74
  16  -9 -10   15.27    8.43
  15  -9 -10   52.99   12.29
  14  -9 -10    7.67    7.21
  13  -9 -10   11.96    7.60
  12  -9 -10    3.03    6.15
  11  -9 -10   13.16    7.87
  10  -9 -10   45.43   10.10
   9  -9 -10   27.81    8.77
   9  -9 -10   39.99    7.17
   8  -9 -10  147.14   15.88
   8  -9 -10  129.96   12.01
   7  -9 -10   54.15   10.24
   7  -9 -10   54.65    7.66
   6  -9 -10    6.59    5.92
   6  -9 -10    1.08    2.88
  -5   9  10    1.68    1.61
  -5   9  10    1.00    2.15
   5  -9 -10   -0.34    2.72
  -4   9  10   58.72    7.17
  -4   9  10   61.02    5.88
   4  -9 -10   56.88    7.87
  -3   9  10   16.55    3.43
   3  -9 -10   17.48    4.95
  -3   9  10   18.83    4.22
   2  -9 -10   65.18    8.33
  -2   9  10   63.34    7.12
   1  -9 -10    0.10    2.57
  -1   9  10    0.54    2.34
   0  -9 -10   35.95    6.68
  -1  -9 -10   14.91    4.66
  -2  -9 -10  125.43   12.09
  -3  -9 -10   38.73    7.25
  -4  -9 -10   10.90    4.69
  -5  -9 -10    0.56    2.58
  19 -10 -10   22.20   11.22
  18 -10 -10   22.47   10.46
  17 -10 -10   32.85   11.61
  16 -10 -10   56.26   13.63
  15 -10 -10    1.50    5.99
  14 -10 -10    0.33    6.13
  13 -10 -10    1.74    6.31
  12 -10 -10   21.20    8.54
  11 -10 -10   12.79    7.68
  10 -10 -10   -2.74    2.64
  10 -10 -10   -2.27    4.54
   9 -10 -10   -2.36    2.43
   9 -10 -10   -4.48    5.11
   8 -10 -10   32.96    9.14
   8 -10 -10   28.15    6.28
   7 -10 -10    7.31    5.92
   7 -10 -10    3.14    3.54
   6 -10 -10   -0.51    5.52
   6 -10 -10    5.20    3.76
   5 -10 -10   19.94    5.33
  -5  10  10   13.53    4.05
  -5  10  10   10.84    2.97
   4 -10 -10   44.93    7.37
  -4  10  10   41.78    5.22
  -4  10  10   46.68    6.24
  -3  10  10   11.05    3.19
  -3  10  10   10.51    2.66
   3 -10 -10   13.62    4.70
  -2  10  10   68.61    7.30
   2 -10 -10   57.31    8.27
   1 -10 -10    7.73    3.65
   0 -10 -10   -0.18    2.44
  -1 -10 -10  146.97   13.44
  -2 -10 -10   38.10    7.30
  -3 -10 -10   17.08    5.01
  -4 -10 -10   11.66    4.29
  -5 -10 -10   55.15    8.99
  19 -11 -10   -1.98    8.74
  18 -11 -10   22.80   10.15
  17 -11 -10   18.67   10.51
  16 -11 -10   36.82   11.53
  15 -11 -10   -1.76    7.01
  14 -11 -10   -0.95    6.91
  13 -11 -10    4.34    7.00
  12 -11 -10   -0.88    6.51
  11 -11 -10   10.48    6.87
  10 -11 -10  127.49   16.36
  10 -11 -10  119.64   12.00
   9 -11 -10   -0.13    5.17
   9 -11 -10   12.05    4.81
   8 -11 -10   28.70    6.36
   8 -11 -10   27.36    8.37
   7 -11 -10  264.36   19.02
   7 -11 -10  248.34   22.99
   6 -11 -10   58.96   10.91
   6 -11 -10   52.07    7.96
   5 -11 -10  110.17   11.07
  -5  11  10  112.75   10.68
  -5  11  10  119.61    9.07
  -4  11  10   89.66    8.78
   4 -11 -10   73.19    9.75
  -4  11  10   86.46    7.35
  -3  11  10   44.85    6.10
  -3  11  10   41.13    5.08
   3 -11 -10   38.89    7.22
   2 -11 -10   31.75    6.31
   1 -11 -10   47.86    7.97
   0 -11 -10   47.58    8.11
  -1 -11 -10    2.05    3.04
  -2 -11 -10   11.31    4.51
  -3 -11 -10   -2.11    2.30
  -4 -11 -10   48.38    8.81
  -5 -11 -10   36.12    7.79
  18 -12 -10   13.53   10.40
  17 -12 -10    3.58    8.03
  16 -12 -10    6.34    8.60
  15 -12 -10    7.52    8.55
  14 -12 -10   20.10   10.04
  13 -12 -10    4.64    7.70
  12 -12 -10    2.83    5.51
  11 -12 -10    9.62    7.22
  10 -12 -10    1.52    4.64
  10 -12 -10    4.56    3.49
   9 -12 -10    1.08    5.34
   9 -12 -10    5.08    3.50
   8 -12 -10   21.88    5.83
   8 -12 -10   16.45    7.55
   7 -12 -10   34.76    9.36
   7 -12 -10   42.73    7.42
   6 -12 -10   23.86    5.98
  -5  12  10    3.79    2.83
   5 -12 -10    2.24    3.47
  -5  12  10    6.65    2.30
   4 -12 -10    8.97    4.12
  -4  12  10   15.34    4.24
  -4  12  10   15.44    3.40
   3 -12 -10   40.18    7.17
  -3  12  10   26.97    4.27
  -3  12  10   25.77    4.90
   2 -12 -10    2.03    2.83
   1 -12 -10   35.81    7.51
   0 -12 -10  224.81   18.35
  -1 -12 -10    6.77    4.18
  -2 -12 -10    2.44    3.25
  -3 -12 -10    3.55    3.35
  -4 -12 -10   15.71    5.34
  -5 -12 -10   20.33    5.91
  18 -13 -10   -4.22    6.30
  17 -13 -10   -5.54    5.84
  16 -13 -10    6.50    8.82
  15 -13 -10   22.96   11.18
  14 -13 -10   -2.73    6.65
  13 -13 -10    0.82    5.51
  12 -13 -10   31.87    7.41
  12 -13 -10   30.20   10.39
  11 -13 -10    5.80    3.81
  11 -13 -10    4.52    6.07
  10 -13 -10    8.05    4.10
  10 -13 -10   -1.26    4.71
   9 -13 -10    7.08    6.51
   9 -13 -10   25.99    6.44
   8 -13 -10   94.38   13.97
   8 -13 -10   93.85   10.95
   7 -13 -10   11.88    6.69
   7 -13 -10    5.35    3.87
  -6  13  10    5.06    2.02
  -6  13  10    1.74    2.01
   6 -13 -10    1.69    3.33
  -5  13  10   25.61    5.35
   5 -13 -10   32.48    7.19
  -5  13  10   31.28    4.74
  -4  13  10   60.20    6.31
   4 -13 -10   66.21    9.59
  -4  13  10   51.85    7.06
   3 -13 -10   62.90    9.33
   2 -13 -10   -0.15    2.55
   1 -13 -10   24.81    6.54
   0 -13 -10   68.57   10.09
  -1 -13 -10    7.58    4.00
  -2 -13 -10    5.23    3.58
  -3 -13 -10   -0.07    3.24
  17 -14 -10   -0.06    6.22
  16 -14 -10    4.75    6.43
  15 -14 -10   -3.93    7.06
  14 -14 -10   17.52    8.48
  13 -14 -10   10.48    7.87
  12 -14 -10   47.93    8.91
  12 -14 -10   51.66   12.67
  11 -14 -10    7.11    4.22
  11 -14 -10   -6.28    5.92
  10 -14 -10   26.33    9.21
  10 -14 -10   19.55    5.96
   9 -14 -10   24.72    6.46
   9 -14 -10   17.68    8.47
   8 -14 -10   23.89    6.43
   8 -14 -10   21.39    7.94
   7 -14 -10    5.20    5.76
   7 -14 -10    2.58    3.20
  -6  14  10   28.81    4.65
  -6  14  10   30.80    6.15
   6 -14 -10   28.84    6.84
  -5  14  10  146.51   12.61
   5 -14 -10  142.34   13.94
  -5  14  10  140.82   10.55
   4 -14 -10   22.68    6.38
   3 -14 -10    3.01    3.12
   2 -14 -10    8.48    4.12
   1 -14 -10   30.44    7.47
   0 -14 -10   36.01    8.04
  -1 -14 -10   14.43    5.80
  -2 -14 -10    9.57    4.12
  16 -15 -10   -0.26    6.27
  15 -15 -10    6.76    8.19
  14 -15 -10    2.85    6.12
  13 -15 -10   96.15   16.58
  12 -15 -10   12.15    4.58
  12 -15 -10    4.27    6.23
  11 -15 -10   13.05    5.21
  11 -15 -10   16.31    7.50
  10 -15 -10   29.16    7.07
  10 -15 -10   26.83    9.25
   9 -15 -10   13.18    7.00
   9 -15 -10   13.11    4.42
   8 -15 -10   10.94    6.32
   8 -15 -10    9.79    4.30
   7 -15 -10    6.74    4.06
   6 -15 -10   50.46    8.74
  -6  15  10   50.75    6.23
  -6  15  10   55.14    7.52
   5 -15 -10  110.71   13.03
   4 -15 -10    2.20    3.57
   3 -15 -10    2.58    3.32
   2 -15 -10   -1.38    2.40
   1 -15 -10    2.28    3.52
   0 -15 -10   -1.02    3.01
  15 -16 -10   -0.66    6.61
  14 -16 -10   19.50    9.96
  13 -16 -10   72.00   15.04
  12 -16 -10   26.73    6.80
  12 -16 -10   29.78    9.89
  11 -16 -10   12.48    5.20
  11 -16 -10   -0.50    5.26
  10 -16 -10   79.53   14.29
  10 -16 -10   97.07   11.70
   9 -16 -10   32.67    7.48
   9 -16 -10   38.25    9.48
   8 -16 -10   34.44    8.57
   8 -16 -10   35.94    8.11
  -7  16  10    1.59    1.93
   7 -16 -10   -2.97    3.01
  -7  16  10    2.15    2.79
   6 -16 -10   45.18    8.90
   5 -16 -10    9.99    5.52
   4 -16 -10   -0.76    3.16
   3 -16 -10    3.42    3.30
   2 -16 -10   26.22    6.83
  14 -17 -10   37.75   12.30
  13 -17 -10   21.85    9.44
  12 -17 -10   13.56    7.68
  12 -17 -10   16.60    6.14
  11 -17 -10   17.86    6.45
  11 -17 -10   16.06    7.46
  10 -17 -10   77.61   13.15
  10 -17 -10   90.52   11.77
   9 -17 -10   39.51    8.33
   9 -17 -10   43.94    9.92
   8 -17 -10   13.10    5.45
   7 -17 -10    0.02    2.98
   6 -17 -10    0.12    2.84
   5 -17 -10    3.52    3.58
   4 -17 -10   -3.01    3.31
  12 -18 -10    5.08    4.53
  12 -18 -10    1.62    5.77
  11 -18 -10   22.81    6.92
  11 -18 -10   11.31    7.14
  10 -18 -10    2.93    4.27
  10 -18 -10    6.40    5.96
   9 -18 -10   -3.00    3.89
   8 -18 -10    7.75    4.73
   7 -18 -10   -4.92    2.79
  11 -19 -10   19.06    7.38
  11 -19 -10    4.00    4.23
   1 -19  11    1.13    4.16
   2 -19  11    0.92    2.78
   3 -19  11    8.15    4.22
   8 -19  11   50.24   12.25
   9 -19  11   19.76    8.86
  10 -19  11   23.49   10.05
  -1 -18  11    0.83    3.46
   0 -18  11    2.75    3.56
   1 -18  11    0.71    2.77
   2 -18  11    3.55    3.47
   3 -18  11   36.69    6.66
   7 -18  11   58.48   13.10
   8 -18  11   23.10    9.58
   9 -18  11    6.02    6.40
  10 -18  11    6.80    8.50
  11 -18  11    5.18    7.73
  -2 -17  11   -0.76    2.56
  -1 -17  11   22.09    5.75
   0 -17  11   23.16    5.83
   1 -17  11    2.17    2.73
   2 -17  11   61.72    8.17
   3 -17  11   73.25    8.68
   6 -17  11    6.00    6.43
   7 -17  11   24.89    8.66
   8 -17  11   75.54   14.45
   9 -17  11   18.29    8.68
  10 -17  11   12.48    8.39
  11 -17  11   18.03   10.16
  12 -17  11   16.06   10.35
  -4 -16  11    2.39    3.50
  -3 -16  11   -3.02    2.30
  -2 -16  11   14.55    4.74
  -1 -16  11   24.32    5.71
   0 -16  11    6.82    3.18
   1 -16  11    4.47    3.14
   2 -16  11   94.83    9.96
   3 -16  11   12.84    4.06
   5 -16  11    8.89    6.81
   6 -16  11   13.27    7.49
   7 -16  11    4.67    5.76
   8 -16  11    1.35    6.16
   9 -16  11    0.90    6.31
  10 -16  11   10.04    7.63
  11 -16  11   11.96    7.65
  12 -16  11    6.66    7.11
  -5 -15  11    0.56    2.62
  -4 -15  11    1.20    3.06
  -3 -15  11    4.15    3.06
  -2 -15  11   91.17    9.98
  -1 -15  11   11.95    3.89
   0 -15  11    4.73    2.38
   1 -15  11   58.63    7.36
   2 -15  11    5.98    3.00
   3 -15  11    1.64    2.05
   4 -15  11   -1.88    4.72
   4 -15  11    3.02    2.34
   5 -15  11   -4.17    4.89
   6 -15  11   14.04    6.72
   7 -15  11   69.07   13.03
   8 -15  11    3.45    6.59
   9 -15  11    2.59    6.35
  10 -15  11   -4.82    5.59
  11 -15  11    9.12    7.35
  12 -15  11   54.52   14.52
  13 -15  11    2.00    8.16
  -7 -14  11   51.89    8.15
  -6 -14  11   58.83    8.58
  -5 -14  11    4.21    3.66
  -4 -14  11   10.31    4.17
  -3 -14  11   84.87    9.47
  -2 -14  11   43.87    6.69
  -1 -14  11    5.15    2.89
   0 -14  11    1.71    2.21
   1 -14  11   30.16    5.34
   3 -14  11  180.38   12.98
   3 -14  11  174.08   17.27
   4 -14  11   44.00    5.92
   4 -14  11   50.98    9.97
   5 -14  11    0.98    4.96
   6 -14  11   22.34    8.16
   7 -14  11   30.06    9.10
   8 -14  11   66.04   12.54
   9 -14  11   13.27    7.70
  10 -14  11   -2.08    5.44
  11 -14  11   67.36   14.36
  12 -14  11   -0.28    9.26
  13 -14  11   -0.78    6.45
  14 -14  11  -10.44    6.54
  -8 -13  11   13.20    4.31
  -7 -13  11   39.23    7.25
  -6 -13  11    3.63    2.75
  -5 -13  11    5.39    3.35
  -4 -13  11   49.49    7.17
  -3 -13  11    8.93    3.41
  -2 -13  11   23.91    4.96
  -1 -13  11   11.76    3.65
   0 -13  11    8.14    3.00
   1 -13  11   52.85    6.40
   2 -13  11  100.54   12.51
   2 -13  11  105.83    8.99
   3 -13  11   24.09    4.33
   3 -13  11   18.05    6.77
   4 -13  11   -7.22    3.37
   4 -13  11    0.42    1.53
   5 -13  11   27.09    8.14
   6 -13  11   -3.01    4.18
   7 -13  11   74.38   12.95
   8 -13  11  160.81   19.06
   9 -13  11   -0.34    5.35
  10 -13  11    3.42    5.68
  11 -13  11    2.83    7.53
  12 -13  11   55.09   14.49
  13 -13  11   -1.57    6.97
  14 -13  11   -9.58    6.17
  -9 -12  11    0.60    2.49
  -8 -12  11   10.33    3.80
  -7 -12  11   15.01    4.24
  -6 -12  11    2.61    2.35
  -5 -12  11    0.61    2.45
  -4 -12  11   64.29    8.06
  -3 -12  11   -0.16    2.22
  -2 -12  11    0.91    1.95
  -1 -12  11    2.51    2.08
   0 -12  11   26.02    4.72
   1 -12  11   -3.84    3.96
   1 -12  11    0.18    1.75
   2 -12  11   -4.39    3.88
   2 -12  11    5.68    2.41
   3 -12  11   -1.19    4.39
   3 -12  11    1.68    1.78
   4 -12  11   10.38    6.17
   5 -12  11   19.34    7.45
   6 -12  11   38.39    9.73
   7 -12  11  485.99   37.48
   8 -12  11   98.51   14.64
   9 -12  11    3.72    5.88
  10 -12  11   27.52   10.88
  11 -12  11    0.75    7.26
  12 -12  11   12.65    9.03
 -13  12 -11    0.73    2.92
  13 -12  11    1.73    8.86
 -14  12 -11   -4.60    2.85
  14 -12  11   -0.86    6.49
 -15  12 -11    7.65    3.51
 -10 -11  11    1.73    2.32
  -9 -11  11   57.51    8.29
  -8 -11  11   21.29    5.11
  -7 -11  11   20.18    4.79
  -6 -11  11   11.02    3.38
  -5 -11  11   11.93    3.69
  -4 -11  11   -1.64    2.00
  -3 -11  11   73.75    7.93
  -2 -11  11    1.95    1.99
  -1 -11  11    8.99    2.73
   0 -11  11   30.98    4.76
   0 -11  11   28.63    6.91
   1 -11  11    0.73    1.80
   1 -11  11    1.74    4.91
   2 -11  11   96.15   11.64
   2 -11  11   86.86    7.51
   3 -11  11   49.23    9.42
   3 -11  11   44.66    5.20
   4 -11  11    0.72    1.34
   4 -11  11    0.18    4.59
   5 -11  11   39.28    9.19
   6 -11  11  110.30   14.56
   7 -11  11  348.16   28.91
   8 -11  11    2.13    5.65
   9 -11  11   23.39    9.96
  10 -11  11   39.68   11.56
 -11  11 -11   34.42    6.09
  11 -11  11   38.08   11.72
 -12  11 -11    0.39    3.02
  12 -11  11    7.19    8.14
 -13  11 -11   15.48    4.06
  13 -11  11   -1.76    8.05
 -14  11 -11    4.96    3.62
  14 -11  11   -3.99    8.00
 -15  11 -11   10.52    3.71
  15 -11  11   -6.47   10.32
 -11 -10  11   21.38    5.20
 -10 -10  11   -0.58    2.19
  -9 -10  11   11.42    3.86
  -8 -10  11   46.95    7.10
  -7 -10  11    7.63    2.94
  -6 -10  11    6.47    2.75
  -5 -10  11   57.28    7.16
  -4 -10  11   81.57    7.80
  -3 -10  11   32.86    5.13
  -2 -10  11   13.93    3.41
  -1 -10  11    9.73    2.73
  -1 -10  11    7.36    4.59
   0 -10  11   47.01    5.41
   0 -10  11   39.89    7.63
   1 -10  11   75.53   10.03
   1 -10  11   66.45    6.22
   2 -10  11  319.20   19.00
   2 -10  11  318.33   24.75
   3 -10  11    5.05    5.18
   4 -10  11    5.07    4.96
   4 -10  11    0.63    1.33
   5 -10  11   35.32    8.62
   6 -10  11  149.48   16.52
   7 -10  11   59.62   11.64
   8 -10  11   -1.74    6.15
   9 -10  11   48.12   11.66
 -10  10 -11   59.82    7.53
  10 -10  11   54.34   12.63
  11 -10  11    8.87    7.80
 -11  10 -11   -0.22    2.19
 -12  10 -11   71.43    8.47
  12 -10  11   62.06   14.05
  13 -10  11   17.65   10.10
 -13  10 -11   24.54    4.89
  14 -10  11   -9.60    6.85
 -14  10 -11    6.11    2.95
 -15  10 -11    2.26    2.97
  15 -10  11   -2.38   10.89
 -12  -9  11    4.58    3.13
 -11  -9  11    7.95    3.64
 -10  -9  11   -1.43    2.05
  -9  -9  11    6.92    3.39
  -8  -9  11   65.39    8.00
  -7  -9  11   12.73    3.44
  -6  -9  11    7.38    3.18
  -5  -9  11    6.81    2.87
  -4  -9  11    8.58    2.80
  -3  -9  11   68.96    6.61
  -2  -9  11   29.51    4.41
  -2  -9  11   29.51    6.20
  -1  -9  11  130.10   12.26
  -1  -9  11  127.40    9.46
   0  -9  11   22.36    5.92
   0  -9  11   19.18    3.38
   1  -9  11  103.35   12.17
   1  -9  11  123.86    8.64
   2  -9  11  205.38   17.61
   2  -9  11  193.92   12.48
   3  -9  11   -0.44    4.42
   3  -9  11   -0.47    0.80
   4  -9  11   43.71    8.61
   4  -9  11   36.83    3.90
   5  -9  11   50.33    9.54
   6  -9  11   12.76    6.43
   7  -9  11    9.40    7.18
   8  -9  11   49.76   10.98
  -8   9 -11   52.65    6.67
   9  -9  11   23.69    8.87
  -9   9 -11   30.60    5.34
 -10   9 -11    8.35    3.21
  10  -9  11    4.65    7.26
  11  -9  11   16.27    9.15
 -11   9 -11    8.07    3.25
  12  -9  11  100.56   16.70
 -12   9 -11  111.18   10.33
  13  -9  11    2.76    7.73
 -13   9 -11    8.78    3.37
  14  -9  11   14.56   10.58
 -14   9 -11    2.57    3.01
 -15   9 -11    3.86    2.83
  15  -9  11   -0.59    9.40
 -13  -8  11   -1.30    2.40
 -12  -8  11    2.22    2.57
 -11  -8  11    4.66    2.53
 -10  -8  11   29.43    5.56
  -9  -8  11    8.88    2.99
  -8  -8  11    5.01    2.35
  -6  -8  11    0.82    1.61
  -5  -8  11   -0.77    1.18
  -4  -8  11    1.19    1.41
  -3  -8  11  100.99    8.17
  -3  -8  11   92.29    9.56
  -2  -8  11   44.29    6.68
  -2  -8  11   55.59    5.82
  -1  -8  11   23.03    3.76
  -1  -8  11   14.28    4.88
   0  -8  11    4.36    1.84
   0  -8  11    7.79    4.44
   1  -8  11  172.08   11.06
   1  -8  11  157.58   14.61
   2  -8  11   30.37    3.69
   2  -8  11   31.27    7.11
   3  -8  11   73.36    9.93
   3  -8  11   60.16    5.06
   4  -8  11  155.90   15.87
   4  -8  11  172.44   10.34
   5  -8  11    8.45    5.58
   6  -8  11    4.64    5.50
  -7   8 -11  183.77   12.14
   7  -8  11  174.40   18.37
  -8   8 -11  110.71    9.29
   8  -8  11  153.43   16.83
  -9   8 -11   -2.09    1.96
   9  -8  11    3.35    6.00
  10  -8  11   12.14    7.89
 -10   8 -11   11.82    3.71
 -11   8 -11   -0.83    1.84
  11  -8  11    6.04    6.83
 -12   8 -11   10.71    3.30
  12  -8  11    3.43    7.48
  13  -8  11   -3.13    6.30
 -13   8 -11    0.42    2.45
  14  -8  11   12.26   10.46
 -14   8 -11   16.73    4.10
 -14  -7  11    5.99    2.55
 -13  -7  11    5.95    2.87
 -12  -7  11   18.15    4.39
 -11  -7  11    3.66    2.13
 -10  -7  11    2.94    1.99
  -9  -7  11    1.02    1.93
  -8  -7  11    2.27    1.62
  -7  -7  11   21.89    4.44
  -6  -7  11   60.87    6.90
  -5  -7  11   -1.02    1.11
  -4  -7  11    9.12    2.57
  -4  -7  11    4.33    3.45
  -3  -7  11    7.42    3.57
  -3  -7  11    3.75    1.87
  -2  -7  11   22.81    3.56
  -2  -7  11   19.24    4.88
  -1  -7  11   56.37    5.19
  -1  -7  11   61.53    7.81
   0  -7  11  136.56    9.10
   0  -7  11  127.27   12.13
   1  -7  11  530.21   37.32
   1  -7  11  588.51   30.63
   2  -7  11   76.81    9.58
   3  -7  11   -2.03    3.45
   3  -7  11    2.94    1.16
   4  -7  11    4.12    4.86
   4  -7  11   10.86    1.92
   5  -7  11    0.41    4.84
  -6   7 -11   25.45    4.55
   6  -7  11   23.21    7.45
  -7   7 -11   75.49    7.54
   7  -7  11   89.86   12.90
   8  -7  11   -4.28    5.15
  -8   7 -11   12.02    2.89
   9  -7  11   99.70   14.26
  -9   7 -11   94.25    8.65
 -10   7 -11    1.63    2.10
  10  -7  11   -0.71    5.66
  11  -7  11   23.21    8.91
 -11   7 -11   16.49    4.06
 -12   7 -11    8.30    3.13
  12  -7  11   14.09    8.28
 -13   7 -11    5.95    2.69
  13  -7  11    7.62    7.68
 -14   7 -11    7.87    3.52
 -14  -6  11   13.17    3.99
 -13  -6  11   12.15    3.89
 -12  -6  11   19.01    4.32
 -11  -6  11   14.79    3.91
 -10  -6  11    0.43    1.60
  -9  -6  11    9.50    3.01
  -8  -6  11   47.61    6.41
  -7  -6  11   33.67    5.16
  -6  -6  11    4.38    2.29
  -5  -6  11    3.94    1.90
  -4  -6  11  226.17   14.33
  -4  -6  11  218.77   16.26
  -3  -6  11  444.58   24.95
  -3  -6  11  429.65   28.92
  -2  -6  11    6.94    3.55
  -2  -6  11    7.41    2.14
  -1  -6  11  152.47   10.09
  -1  -6  11  155.69   13.09
   0  -6  11  291.83   21.50
   0  -6  11  297.50   17.11
   1  -6  11  126.67    8.36
   1  -6  11  129.15   12.23
   2  -6  11  246.50   19.28
   2  -6  11  239.97   13.98
   3  -6  11    1.08    0.79
   3  -6  11   -0.37    3.46
   4  -6  11   23.53    2.27
   4  -6  11    9.30    5.07
   5  -6  11   41.91    8.42
  -5   6 -11   40.23    5.28
   6  -6  11    4.23    5.30
  -6   6 -11   -1.36    1.69
   7  -6  11    7.86    5.99
  -7   6 -11    6.01    2.35
  -8   6 -11   28.08    4.72
   8  -6  11   35.91    9.12
   9  -6  11    5.78    6.14
  -9   6 -11   11.71    3.20
 -10   6 -11    9.16    2.94
  10  -6  11   19.15    8.05
 -11   6 -11   68.99    7.96
  11  -6  11   80.88   13.74
 -12   6 -11    7.11    3.01
  12  -6  11    4.17    6.76
  13  -6  11    2.00    6.63
 -13   6 -11   -3.46    2.02
 -14   6 -11   21.66    4.66
 -14  -5  11   -2.30    2.36
 -13  -5  11   15.20    3.61
 -12  -5  11   29.72    5.49
 -11  -5  11    3.57    2.16
 -10  -5  11   20.69    4.36
  -9  -5  11   64.20    7.35
  -8  -5  11   69.84    6.84
  -7  -5  11   19.41    3.79
  -6  -5  11  170.94   11.86
  -5  -5  11  272.40   16.85
  -5  -5  11  271.19   18.87
  -4  -5  11  107.23    9.48
  -4  -5  11  105.00    8.13
  -3  -5  11   80.09    6.53
  -3  -5  11   82.56    8.12
  -2  -5  11    0.76    2.98
  -2  -5  11    0.23    1.13
  -1  -5  11   21.74    4.89
  -1  -5  11   27.67    3.41
   0  -5  11  166.23   14.15
   0  -5  11  166.83   10.38
   1  -5  11   43.67    6.93
   1  -5  11   48.22    3.98
   2  -5  11   47.06    7.35
   2  -5  11   46.38    3.81
   3  -5  11   14.00    1.92
   3  -5  11    9.34    4.84
   4  -5  11    3.46    0.91
   4  -5  11    4.13    4.31
  -4   5 -11   -0.26    1.45
  -5   5 -11   14.37    3.30
   5  -5  11    8.83    5.36
   6  -5  11  237.53   20.15
  -6   5 -11  216.60   13.36
  -7   5 -11    1.54    1.74
   7  -5  11    5.10    5.92
  -8   5 -11   37.84    5.43
   8  -5  11   42.23    9.42
  -9   5 -11   15.60    3.68
   9  -5  11    5.70    6.06
 -10   5 -11   69.94    7.67
  10  -5  11   67.44   12.42
 -11   5 -11    5.30    2.67
  11  -5  11    7.49    7.32
 -12   5 -11   69.36    8.22
  12  -5  11   92.88   14.41
 -13   5 -11   39.55    6.30
 -14   5 -11   22.31    4.66
 -14  -4  11    0.06    1.90
 -13  -4  11    9.20    2.78
 -12  -4  11   20.44    4.41
 -11  -4  11    2.80    2.17
 -10  -4  11    0.15    1.41
  -9  -4  11  402.22   24.37
  -8  -4  11  304.48   19.09
  -7  -4  11   -1.73    1.23
  -6  -4  11  356.23   20.49
  -6  -4  11  321.78   22.31
  -5  -4  11   98.19    7.65
  -5  -4  11   94.56    8.54
  -4  -4  11   29.85    4.57
  -4  -4  11   32.22    4.15
  -3  -4  11   69.07    5.88
  -3  -4  11   75.96    7.63
  -2  -4  11  211.34   15.40
  -2  -4  11  192.36   12.35
  -1  -4  11    3.42    2.98
   0  -4  11   39.61    6.25
   1  -4  11   46.82    6.95
   2  -4  11    9.60    4.53
   3  -4  11   17.67    5.50
   4  -4  11   47.68    7.89
  -4   4 -11   35.01    4.66
   5  -4  11   14.25    5.69
  -5   4 -11   18.93    3.44
   6  -4  11   16.07    6.42
  -6   4 -11   20.01    3.65
  -7   4 -11   14.06    3.23
   7  -4  11   19.87    7.12
  -8   4 -11    9.19    2.76
   8  -4  11   12.60    6.23
   9  -4  11   -0.63    4.88
  -9   4 -11    8.25    2.76
  10  -4  11   44.28   10.01
 -10   4 -11   35.53    5.46
  11  -4  11   13.50    7.62
 -11   4 -11   22.64    4.41
 -12   4 -11   73.11    8.26
 -13   4 -11   14.95    4.15
 -14  -3  11   60.31    7.42
 -13  -3  11   71.90    8.22
 -12  -3  11   33.52    5.69
 -11  -3  11   13.30    3.31
 -10  -3  11  146.44   11.08
  -9  -3  11  356.07   21.76
  -8  -3  11    1.18    1.68
  -7  -3  11  171.21   13.11
  -7  -3  11  185.83   12.35
  -6  -3  11   80.53    6.57
  -6  -3  11   63.32    6.65
  -5  -3  11   13.39    2.75
  -5  -3  11   11.57    3.11
  -4  -3  11   62.55    6.63
  -3  -3  11  133.10   11.01
  -2  -3  11   61.14    6.79
  -1  -3  11   19.01    4.29
   0  -3  11   76.58    8.29
   1  -3  11    7.95    3.96
   2  -3  11    5.71    3.85
  -3   3 -11    1.25    1.62
   3  -3  11    2.90    3.83
   4  -3  11   38.87    7.13
  -4   3 -11   32.80    4.39
   5  -3  11  105.77   11.87
  -5   3 -11  109.44    7.86
  -6   3 -11    8.93    2.80
   6  -3  11    9.38    5.31
  -7   3 -11   17.91    3.53
   7  -3  11   12.71    6.43
  -8   3 -11    6.73    2.49
   8  -3  11    2.93    5.45
  -9   3 -11   74.30    7.43
   9  -3  11   48.55    9.98
  10  -3  11   30.72    8.64
 -10   3 -11   25.04    4.54
 -11   3 -11    7.19    2.92
 -12   3 -11    2.73    2.40
 -13   3 -11   11.20    4.01
 -16  -2  11    8.17    2.62
 -14  -2  11  124.63   10.66
 -13  -2  11   39.42    5.90
 -12  -2  11   33.33    5.31
 -11  -2  11   36.83    5.34
 -10  -2  11   -0.87    1.34
  -9  -2  11   12.10    3.07
  -8  -2  11   13.76    3.33
  -8  -2  11    7.62    2.36
  -7  -2  11   69.77    6.26
  -7  -2  11   68.22    6.67
  -6  -2  11    8.35    2.86
  -5  -2  11   97.59    8.60
  -4  -2  11   32.77    4.73
  -3  -2  11    2.26    2.06
  -2  -2  11    0.59    2.19
  -1  -2  11    5.47    2.92
   0  -2  11  471.49   31.25
   1  -2  11  509.22   33.68
  -2   2 -11  799.17   37.93
   2  -2  11  816.70   51.52
   3  -2  11  150.11   13.54
  -3   2 -11  137.32    9.08
  -4   2 -11  170.39   10.58
   4  -2  11  177.75   15.25
   5  -2  11    4.22    4.85
  -5   2 -11    2.54    1.76
   6  -2  11    3.01    5.12
  -6   2 -11    3.27    1.90
  -7   2 -11    7.41    2.49
   7  -2  11   10.91    5.45
   8  -2  11    2.94    4.82
  -8   2 -11    1.82    1.97
  -9   2 -11   19.57    3.97
   9  -2  11   11.59    6.32
 -10   2 -11    5.56    2.60
 -11   2 -11    3.54    2.59
 -12   2 -11    3.52    2.97
 -13   2 -11   -0.80    2.70
 -16  -1  11   13.16    3.12
 -14  -1  11   98.29    8.69
 -13  -1  11    7.92    2.45
 -12  -1  11   13.06    3.11
 -11  -1  11    5.93    2.09
 -10  -1  11   65.44    6.33
  -9  -1  11    0.39    1.33
  -9  -1  11   -0.05    2.14
  -8  -1  11    1.62    1.48
  -8  -1  11    4.88    2.48
  -7  -1  11   -2.24    1.38
  -6  -1  11   10.06    2.90
  -5  -1  11  104.22    8.81
  -4  -1  11   33.77    4.79
  -3  -1  11   89.65    8.27
  -2  -1  11   20.38    4.07
  -1  -1  11    3.34    2.51
   0  -1  11  110.80   10.19
  -1   1 -11    7.96    2.28
   1  -1  11    9.32    3.79
  -2   1 -11   82.76    6.29
   2  -1  11   84.63    9.11
   3  -1  11   12.39    4.56
  -3   1 -11    5.35    1.99
   4  -1  11  145.24   13.80
  -4   1 -11  152.01    9.61
  -4   1 -11  149.68   10.52
  -5   1 -11    6.57    2.13
   5  -1  11    4.44    4.96
   6  -1  11  107.07   12.16
  -6   1 -11  110.91    8.20
  -7   1 -11   72.00    7.00
   7  -1  11   74.94   10.25
   8  -1  11    4.82    4.94
  -8   1 -11    2.58    2.10
  -9   1 -11   20.62    4.04
 -10   1 -11    9.54    3.03
 -11   1 -11    7.17    3.37
 -12   1 -11    1.13    2.69
 -17   0  11    2.31    1.90
 -16   0  11   39.04    5.34
 -14   0  11   50.32    6.14
 -13   0  11    1.13    1.50
 -12   0  11    1.59    1.47
 -11   0  11   -0.43    1.33
 -10   0  11    0.59    2.14
 -10   0  11    0.47    1.47
 -10   0  11    0.71    1.45
  -9   0  11  118.38   10.41
  -9   0  11  133.71    9.01
  -8   0  11    9.76    2.44
  -8   0  11    9.30    3.20
  -7   0  11   18.25    3.00
  -7   0  11   12.86    3.28
  -6   0  11   18.94    3.72
  -5   0  11    0.72    1.69
  -4   0  11   22.49    3.96
  -3   0  11   14.57    3.44
  -2   0  11   25.60    4.42
  -1   0  11  860.96   53.45
   0   0  11  433.00   28.98
   1   0  11   31.56    5.45
  -1   0 -11   34.77    3.96
   2   0  11   98.07    9.69
  -2   0 -11   91.07    7.81
  -2   0 -11   87.30    6.45
  -3   0 -11   69.88    6.51
  -3   0 -11   60.60    5.63
   3   0  11   63.35    8.18
  -4   0 -11   -1.50    1.87
   4   0  11    4.97    4.20
  -4   0 -11    3.35    1.91
   5   0  11   27.21    6.40
  -5   0 -11   32.21    4.49
  -6   0 -11   96.71    7.56
   6   0  11   99.85   11.65
   7   0  11    1.17    4.20
  -7   0 -11   -2.18    1.34
   8   0  11    9.43    4.94
  -9   0 -11   15.29    3.82
 -10   0 -11   16.81    3.97
 -11   0 -11    8.84    3.55
 -12   0 -11   -4.35    2.44
 -17   1  11   13.81    3.11
 -16   1  11   14.18    3.38
 -14   1  11    6.41    2.02
 -13   1  11    5.13    2.06
 -12   1  11   56.94    6.18
 -11   1  11   74.30    6.58
 -11   1  11   66.91    6.06
 -11   1  11   68.21    7.51
 -10   1  11   89.32    8.68
 -10   1  11   99.40    7.53
  -9   1  11    4.13    1.65
  -9   1  11    2.00    2.23
  -8   1  11    1.82    1.36
  -8   1  11    3.48    2.34
  -7   1  11  144.92   11.55
  -7   1  11  138.14    9.61
  -6   1  11    2.16    2.03
  -6   1  11    1.52    1.49
  -5   1  11   31.51    4.72
  -4   1  11   17.64    3.66
  -3   1  11    5.02    2.38
  -2   1  11  239.54   17.30
  -1   1  11 1511.57   91.05
   0   1  11  912.33   56.36
   0  -1 -11  930.91   41.79
   0  -1 -11  879.07   49.20
   1   1  11   18.92    4.50
  -1  -1 -11   21.95    3.12
  -1  -1 -11   24.85    4.19
  -2  -1 -11  216.00   14.26
   2   1  11  222.72   16.88
  -2  -1 -11  209.28   12.06
  -3  -1 -11   60.99    5.30
  -3  -1 -11   66.91    6.50
   3   1  11   67.58    8.28
  -4  -1 -11   57.13    5.55
   4   1  11   61.18    8.39
  -4  -1 -11   47.57    5.68
  -5  -1 -11   40.59    5.08
   5   1  11   44.60    7.54
  -5  -1 -11   48.15    5.52
   6   1  11   42.37    7.65
  -6  -1 -11   34.66    4.95
   7   1  11   20.67    5.74
  -7  -1 -11   31.77    4.92
  -8  -1 -11    9.82    3.08
  -9  -1 -11   14.32    3.86
 -10  -1 -11    9.61    3.24
 -11  -1 -11   -1.82    2.48
 -12  -1 -11   -5.04    2.71
 -18   2  11    4.92    1.88
 -17   2  11   19.91    3.83
 -16   2  11    0.45    1.83
 -15   2  11    1.41    1.78
 -14   2  11    5.09    1.91
 -13   2  11    9.36    2.60
 -12   2  11  110.19    8.58
  12  -2 -11  111.50   12.17
  11  -2 -11  181.36   16.30
  -9   2  11  188.25   12.24
  -9   2  11  185.08   14.49
  -8   2  11  106.52    8.05
  -8   2  11  102.73    9.44
  -7   2  11   55.83    5.20
  -7   2  11   47.58    6.13
  -6   2  11 1043.00   64.14
  -6   2  11 1050.18   54.44
  -5   2  11   48.31    5.08
  -5   2  11   55.28    6.10
  -4   2  11   31.62    4.86
  -3   2  11  471.97   30.73
   2  -2 -11 1554.68   82.75
  -2   2  11 1577.84   94.14
   1  -2 -11  127.55   10.21
  -1   2  11  132.43   11.09
   0   2  11   95.32    9.16
   0  -2 -11   94.01    6.42
   0  -2 -11   99.86    8.48
  -1  -2 -11  154.41   11.32
  -1  -2 -11  149.83    9.14
   1   2  11  164.87   13.16
  -2  -2 -11    8.81    3.03
  -2  -2 -11    6.26    1.86
   2   2  11    8.42    3.62
  -3  -2 -11   -0.20    1.95
   3   2  11    5.27    3.57
  -3  -2 -11   -1.63    1.13
  -4  -2 -11   75.94    7.28
  -4  -2 -11   80.85    6.36
   4   2  11   77.00    9.47
  -5  -2 -11   50.56    5.56
  -5  -2 -11   47.89    5.94
   5   2  11   65.75    8.93
   6   2  11   -4.28    2.16
  -6  -2 -11    2.26    2.11
  -7  -2 -11    6.21    2.62
  -8  -2 -11    3.52    2.18
  -9  -2 -11    8.71    3.27
 -10  -2 -11    2.03    2.47
 -11  -2 -11    3.11    2.94
 -18   3  11    1.73    2.05
 -17   3  11    9.66    2.91
 -16   3  11   11.09    2.56
 -15   3  11   16.12    3.22
 -14   3  11    2.71    1.60
  13  -3 -11    9.18    5.50
  12  -3 -11  142.62   14.77
  11  -3 -11    7.06    5.38
  10  -3 -11   63.12    9.20
   9  -3 -11   12.05    5.13
  -8   3  11    0.97    2.13
  -8   3  11    1.12    1.68
  -7   3  11  206.15   13.29
  -7   3  11  209.00   15.65
  -6   3  11  299.03   18.24
  -6   3  11  320.94   21.68
  -5   3  11   59.26    5.57
  -5   3  11   60.82    6.55
  -4   3  11  384.39   25.72
  -3   3  11  578.73   36.96
   3  -3 -11  578.15   33.53
   2  -3 -11   44.06    5.89
  -2   3  11   39.55    5.48
   1  -3 -11   71.92    7.42
  -1   3  11   73.83    7.63
   0   3  11   12.68    3.68
   0  -3 -11   11.03    2.26
   0  -3 -11   11.88    3.45
  -1  -3 -11   60.86    6.58
   1   3  11   48.23    6.60
  -1  -3 -11   44.54    4.44
  -2  -3 -11   12.90    2.56
  -2  -3 -11    8.59    3.19
   2   3  11   12.81    4.12
  -3  -3 -11   11.17    3.25
  -3  -3 -11    9.85    2.40
   3   3  11    0.29    3.38
   4   3  11   12.87    5.28
  -4  -3 -11    8.36    3.26
  -4  -3 -11    8.19    2.49
  -5  -3 -11   78.53    7.17
  -5  -3 -11   79.43    7.78
  -6  -3 -11    0.60    1.85
  -7  -3 -11    4.85    2.41
  -8  -3 -11    9.91    2.88
  -9  -3 -11   74.85    8.39
 -10  -3 -11   -0.99    2.31
 -11  -3 -11    2.91    3.93
 -18   4  11    9.29    2.88
 -17   4  11   12.70    2.96
 -16   4  11    1.20    1.58
 -15   4  11   12.79    2.82
  14  -4 -11    5.76    5.26
  13  -4 -11   47.65    9.05
  12  -4 -11    3.52    5.04
  11  -4 -11  245.04   21.32
  10  -4 -11   46.54    8.61
   9  -4 -11    3.83    4.44
   8  -4 -11  113.53   12.17
  -7   4  11  469.77   26.84
  -7   4  11  487.79   31.83
  -6   4  11  831.54   51.15
  -6   4  11  796.66   43.22
  -5   4  11  114.81    8.48
  -5   4  11  106.85    9.90
   4  -4 -11  825.28   45.32
  -4   4  11  788.21   42.59
  -4   4  11  808.07   50.27
   3  -4 -11  117.91    9.68
  -3   4  11   96.82    9.31
   2  -4 -11    0.94    2.16
  -2   4  11   -1.68    1.82
  -1   4  11   70.98    7.46
   1  -4 -11   62.10    7.07
   1  -4 -11   64.14    4.78
   0  -4 -11   96.72    8.29
   0   4  11  104.40    9.03
   0  -4 -11   61.46    5.17
   1   4  11   -1.59    2.09
  -1  -4 -11    0.83    2.20
  -1  -4 -11    1.73    1.41
   2   4  11    0.72    2.73
  -2  -4 -11   -0.74    1.09
  -2  -4 -11    3.21    2.53
   3   4  11   14.91    4.56
  -3  -4 -11   10.78    2.58
  -3  -4 -11   13.23    3.86
  -4  -4 -11    3.32    2.02
   4   4  11    0.66    1.51
  -4  -4 -11    3.77    2.76
  -5  -4 -11    3.15    1.85
  -5  -4 -11    2.87    2.19
  -6  -4 -11   15.11    3.48
  -7  -4 -11    0.50    1.83
  -8  -4 -11   21.32    4.17
  -9  -4 -11   20.13    4.27
 -10  -4 -11    6.93    3.29
 -15   5  11   41.13    4.83
  15  -5 -11   32.02    8.93
  14  -5 -11  106.10   13.93
 -14   5  11  102.77    7.35
  13  -5 -11   37.22    8.77
  12  -5 -11   49.59    9.79
  11  -5 -11  285.68   23.86
  10  -5 -11   87.00   11.82
   9  -5 -11  100.73   12.40
   8  -5 -11   81.85   10.84
  -6   5  11   63.29    6.41
  -6   5  11   66.37    7.38
   5  -5 -11   81.11    8.80
  -5   5  11   76.56    8.06
  -5   5  11   86.37    7.02
  -4   5  11  125.70   11.11
  -4   5  11  130.67    9.41
   4  -5 -11  140.97   11.23
  -3   5  11    0.91    2.05
   3  -5 -11   -2.30    1.78
  -2   5  11    2.07    2.11
   2  -5 -11    1.73    2.44
  -1   5  11   50.56    6.46
   1  -5 -11   51.67    6.66
   1  -5 -11   45.20    3.96
   0   5  11  236.48   17.84
   0  -5 -11  243.25   16.43
   1   5  11   -1.03    2.26
  -1  -5 -11   -0.26    2.10
  -1  -5 -11    2.32    1.44
  -2  -5 -11   10.31    2.46
   2   5  11   10.60    3.88
  -2  -5 -11    5.84    3.01
  -3  -5 -11   98.67    7.25
  -3  -5 -11   95.10    9.08
  -4  -5 -11   14.26    4.18
  -4  -5 -11   20.93    3.58
  -5  -5 -11    6.39    3.15
  -5  -5 -11    9.92    2.63
  -6  -5 -11   28.62    4.59
  -7  -5 -11    3.62    2.14
  -8  -5 -11   21.03    4.34
  -9  -5 -11   13.37    3.72
 -10  -5 -11    1.86    3.33
  16  -6 -11   45.53   10.62
  15  -6 -11   88.81   13.43
  14  -6 -11    6.54    6.02
  13  -6 -11  157.93   17.19
  12  -6 -11  143.52   15.95
  11  -6 -11  407.32   31.45
  10  -6 -11    7.53    5.88
   9  -6 -11  416.29   31.53
   8  -6 -11  256.03   21.71
   7  -6 -11   81.42   10.92
  -6   6  11    6.30    2.62
   6  -6 -11   12.56    4.17
  -6   6  11   15.63    4.33
   5  -6 -11   71.66    8.67
  -5   6  11   94.95    7.57
  -5   6  11   94.89    8.97
   4  -6 -11    0.95    2.48
  -4   6  11    1.73    1.94
  -4   6  11    1.82    2.30
   3  -6 -11   72.77    7.96
  -3   6  11   58.93    6.89
  -2   6  11   -1.08    2.12
   2  -6 -11    1.33    1.05
   2  -6 -11    2.28    2.72
   1  -6 -11   47.14    3.89
   1  -6 -11   47.29    6.53
  -1   6  11   40.67    5.95
   0   6  11   16.86    4.39
   0  -6 -11   19.08    4.60
   0  -6 -11   22.83    3.01
  -1  -6 -11   -0.02    0.84
   1   6  11    4.28    2.76
  -1  -6 -11   -2.79    2.11
  -2  -6 -11   30.16    3.96
  -2  -6 -11   17.10    4.42
  -3  -6 -11   17.97    3.25
  -3  -6 -11   12.00    4.11
  -4  -6 -11    1.26    2.28
  -4  -6 -11    2.70    1.71
  -5  -6 -11   14.88    4.14
  -5  -6 -11    6.68    2.55
  -6  -6 -11    7.81    2.61
  -7  -6 -11   17.00    3.91
  -8  -6 -11    3.53    2.38
  -9  -6 -11    2.80    2.55
  16  -7 -11   93.73   14.63
  15  -7 -11   24.45    8.59
  14  -7 -11   27.17    8.72
  13  -7 -11    6.28    5.69
  12  -7 -11   32.21    8.72
  11  -7 -11    6.37    6.33
  10  -7 -11    7.44    6.26
   9  -7 -11   72.16   11.36
   8  -7 -11   58.86   10.17
   7  -7 -11   -5.27    3.63
   7  -7 -11    0.38    2.92
  -6   7  11  108.41    8.71
   6  -7 -11  102.93   10.33
  -6   7  11  111.08   10.44
  -5   7  11  256.04   19.18
   5  -7 -11  296.49   18.70
  -5   7  11  239.85   16.01
  -4   7  11   12.90    3.82
  -4   7  11   12.76    3.19
   4  -7 -11   22.74    4.98
  -3   7  11   62.20    7.00
   3  -7 -11   61.46    7.76
   2  -7 -11    5.18    3.31
  -2   7  11    5.43    2.86
   1  -7 -11   31.88    5.88
  -1   7  11   26.51    4.93
   0   7  11   60.12    7.39
   0  -7 -11   48.79    4.57
   0  -7 -11   48.02    7.13
  -1  -7 -11   27.77    3.71
  -1  -7 -11   65.58    7.68
  -2  -7 -11   26.18    3.77
  -2  -7 -11   23.97    5.40
  -3  -7 -11   12.32    4.11
  -3  -7 -11   23.69    3.75
  -4  -7 -11   31.85    4.60
  -4  -7 -11   31.70    6.33
  -5  -7 -11    2.00    3.12
  -5  -7 -11    0.87    2.09
  -6  -7 -11   11.95    3.20
  -7  -7 -11    3.49    2.28
  -8  -7 -11   14.85    4.12
  -9  -7 -11   32.59    6.57
  17  -8 -11   83.20   14.72
  16  -8 -11   53.88   11.79
  15  -8 -11   30.32    9.89
  14  -8 -11   42.47   10.46
  13  -8 -11  115.12   15.53
  12  -8 -11    6.14    6.23
  11  -8 -11   88.80   13.58
  10  -8 -11    2.68    5.61
   9  -8 -11   45.23    9.88
   8  -8 -11   68.24    8.92
   8  -8 -11   59.69   10.63
   7  -8 -11  166.80   14.13
   7  -8 -11  188.75   17.79
  -6   8  11   -1.07    1.84
  -6   8  11    2.72    1.83
   6  -8 -11   -0.16    2.44
  -5   8  11    7.99    2.75
  -5   8  11    7.76    3.21
   5  -8 -11    3.69    3.62
  -4   8  11    2.14    1.89
   4  -8 -11    7.73    3.68
  -4   8  11    3.28    2.51
  -3   8  11   12.00    3.73
   3  -8 -11    9.02    3.76
   2  -8 -11   26.24    5.67
  -2   8  11   19.44    4.66
  -1   8  11   13.18    3.78
   1  -8 -11    2.57    3.10
   0   8  11    3.22    2.48
   0  -8 -11   -1.46    2.18
  -1  -8 -11    3.88    2.87
  -2  -8 -11   18.61    5.12
  -3  -8 -11    4.84    3.12
  -4  -8 -11   39.45    7.12
  -5  -8 -11    1.52    2.74
  18  -9 -11   -2.89    6.53
  17  -9 -11   30.91   10.17
  16  -9 -11   16.83    8.36
  15  -9 -11    6.49    6.19
  14  -9 -11  184.87   20.18
  13  -9 -11    8.15    7.11
  12  -9 -11  116.53   15.97
  11  -9 -11  196.28   20.28
  10  -9 -11  119.75   15.48
   9  -9 -11   29.86    8.90
   9  -9 -11   37.15    7.15
   8  -9 -11   23.81    5.88
   8  -9 -11   25.97    8.30
   7  -9 -11    6.22    3.91
   7  -9 -11   -1.83    4.99
  -6   9  11    2.95    2.85
   6  -9 -11    3.99    3.60
  -6   9  11    6.91    2.46
  -5   9  11    4.34    2.41
   5  -9 -11    2.89    3.27
  -5   9  11    0.61    2.39
   4  -9 -11    1.10    2.53
  -4   9  11    2.33    1.87
  -4   9  11   -0.79    1.63
   3  -9 -11    9.97    4.26
  -3   9  11   22.59    4.45
  -2   9  11    6.80    3.35
   2  -9 -11   11.37    4.36
  -1   9  11    6.66    3.16
   1  -9 -11   16.18    4.84
   0  -9 -11    3.03    2.82
  -1  -9 -11  135.05   12.48
  -2  -9 -11   69.08    9.36
  -3  -9 -11    3.49    2.81
  -4  -9 -11   19.91    5.29
  -5  -9 -11   10.46    4.20
  19 -10 -11   23.01   11.52
  18 -10 -11   -3.11    6.15
  17 -10 -11    0.44    6.23
  16 -10 -11    2.25    6.97
  15 -10 -11   72.07   13.53
  14 -10 -11   40.09   11.17
  13 -10 -11    3.03    5.94
  12 -10 -11    0.95    6.12
  11 -10 -11   30.71    9.47
  10 -10 -11    0.74    3.13
  10 -10 -11    2.00    5.37
   9 -10 -11   26.73    6.41
   9 -10 -11   28.48    8.86
   8 -10 -11    7.22    6.25
   8 -10 -11    9.62    4.45
   7 -10 -11   47.72    7.82
   7 -10 -11   60.28   10.90
   6 -10 -11   25.76    6.08
  -6  10  11   23.02    5.36
  -6  10  11   15.52    3.84
   5 -10 -11  137.40   11.96
  -5  10  11  117.06    9.18
  -5  10  11  102.06   10.47
   4 -10 -11   45.45    7.38
  -4  10  11   33.85    5.04
  -4  10  11   46.31    6.35
   3 -10 -11    0.70    2.64
  -3  10  11    2.29    2.30
  -2  10  11   23.83    4.80
   2 -10 -11   25.48    6.02
   1 -10 -11   11.57    4.43
   0 -10 -11    5.85    3.71
  -1 -10 -11   23.24    5.78
  -2 -10 -11    6.47    3.69
  -3 -10 -11   44.25    7.93
  -4 -10 -11   39.46    7.85
  -5 -10 -11   49.38    8.42
  19 -11 -11   13.61   10.64
  18 -11 -11   11.39    9.05
  17 -11 -11   -2.64    6.64
  16 -11 -11   21.01    9.68
  15 -11 -11    9.32    7.80
  14 -11 -11    3.03    6.56
  13 -11 -11   34.46   10.82
  12 -11 -11   49.00   12.04
  11 -11 -11    2.14    5.32
  10 -11 -11    0.72    5.11
  10 -11 -11    6.17    4.32
   9 -11 -11    4.85    5.61
   9 -11 -11    0.35    2.95
   8 -11 -11  181.58   15.70
   8 -11 -11  209.10   20.10
   7 -11 -11   15.93    7.83
   7 -11 -11   17.72    5.26
  -6  11  11    6.27    2.68
  -6  11  11    7.26    3.70
   6 -11 -11    5.80    3.96
  -5  11  11   21.52    4.17
  -5  11  11   23.81    5.04
   5 -11 -11   17.38    5.62
  -4  11  11   36.12    5.15
  -4  11  11   33.47    5.67
   4 -11 -11   45.65    7.79
   3 -11 -11   22.17    5.84
  -3  11  11   11.94    3.53
   2 -11 -11    3.87    3.17
   1 -11 -11    6.33    3.49
   0 -11 -11    9.13    4.44
  -1 -11 -11   16.30    5.36
  -2 -11 -11    8.12    3.81
  -3 -11 -11   -3.60    2.31
  -4 -11 -11   12.85    4.90
  -5 -11 -11    5.13    3.43
  18 -12 -11    6.85    9.01
  17 -12 -11    2.63    6.21
  16 -12 -11   14.04    9.28
  15 -12 -11   -0.11    6.70
  14 -12 -11   18.95    9.68
  13 -12 -11   29.99   10.75
  12 -12 -11  154.62   19.59
  11 -12 -11   43.54    8.29
  11 -12 -11   49.36   11.49
  10 -12 -11    5.48    3.63
  10 -12 -11    3.85    5.22
   9 -12 -11  174.87   15.81
   9 -12 -11  222.76   21.22
   8 -12 -11  304.38   21.64
   8 -12 -11  281.64   25.70
   7 -12 -11    1.87    3.18
  -6  12  11   43.41    5.85
  -6  12  11   45.14    7.11
   6 -12 -11   47.16    8.06
   5 -12 -11    6.58    4.13
  -5  12  11    5.33    2.38
  -5  12  11    8.04    3.37
   4 -12 -11    2.03    3.53
  -4  12  11    5.97    2.31
  -4  12  11    3.38    2.67
   3 -12 -11   44.11    7.79
   2 -12 -11   12.51    4.64
   1 -12 -11    3.93    3.47
   0 -12 -11   11.56    5.06
  -1 -12 -11    8.06    4.00
  -2 -12 -11   -1.77    3.00
  -3 -12 -11   -1.44    2.70
  -4 -12 -11   -0.20    3.03
  17 -13 -11    1.98    5.08
  16 -13 -11    1.38    6.40
  15 -13 -11   -4.07    6.53
  14 -13 -11    0.18    6.53
  13 -13 -11  170.64   21.26
  12 -13 -11   25.19    6.61
  12 -13 -11   31.02    9.81
  11 -13 -11   -0.65    3.21
  11 -13 -11    0.55    5.79
  10 -13 -11   48.22    8.59
  10 -13 -11   50.73   11.22
   9 -13 -11   93.29   14.27
   9 -13 -11   94.99   11.35
   8 -13 -11   34.12    9.51
   8 -13 -11   41.31    7.77
   7 -13 -11   27.16    6.70
   6 -13 -11  105.80   12.02
  -6  13  11  106.75   10.82
  -6  13  11  114.94    9.32
   5 -13 -11   53.13    8.92
  -5  13  11   56.73    6.53
  -5  13  11   59.29    7.74
   4 -13 -11   -0.97    3.03
   3 -13 -11  154.76   14.45
   2 -13 -11   89.98   11.50
   1 -13 -11    8.23    3.84
   0 -13 -11   11.78    4.84
  -1 -13 -11    1.05    2.93
  -2 -13 -11    1.86    3.40
  -3 -13 -11   -0.83    2.79
  17 -14 -11    1.42    6.47
  16 -14 -11    1.93    5.75
  15 -14 -11   -1.05    6.72
  14 -14 -11   48.21   13.29
  13 -14 -11   64.78   13.92
  12 -14 -11    5.40    4.27
  12 -14 -11   -0.48    5.15
  11 -14 -11   15.60    7.32
  11 -14 -11    4.84    4.11
  10 -14 -11   53.95   12.27
  10 -14 -11   54.65    8.97
   9 -14 -11   45.67    8.12
   9 -14 -11   32.06    9.49
   8 -14 -11   -0.20    4.57
   8 -14 -11    0.68    2.89
  -7  14  11   18.78    4.32
  -7  14  11   25.48    5.74
   7 -14 -11   21.21    6.18
   6 -14 -11   42.30    8.05
  -6  14  11   44.56    5.86
  -6  14  11   34.17    6.31
  -5  14  11    6.24    2.68
   5 -14 -11    6.55    3.97
   4 -14 -11   19.99    6.48
   3 -14 -11   37.22    7.86
   2 -14 -11   13.99    5.00
   1 -14 -11    5.87    3.63
   0 -14 -11   -0.07    3.22
  -1 -14 -11    3.13    3.28
  16 -15 -11    1.68    5.95
  15 -15 -11   24.57   10.41
  14 -15 -11   16.46    7.87
  13 -15 -11   12.43    7.39
  13 -15 -11    4.57    3.90
  12 -15 -11   13.46    5.41
  12 -15 -11    8.28    6.27
  11 -15 -11   44.29    8.64
  11 -15 -11   33.47   10.40
  10 -15 -11  -10.56    3.67
  10 -15 -11    4.88    3.45
   9 -15 -11    5.25    5.70
   9 -15 -11    4.76    3.95
   8 -15 -11    1.16    3.20
  -7  15  11   22.25    4.52
   7 -15 -11   25.20    6.76
  -7  15  11   23.32    5.63
   6 -15 -11   -1.07    3.21
  -6  15  11    1.47    1.89
   5 -15 -11   11.95    5.63
   4 -15 -11    2.41    4.19
   3 -15 -11    1.66    2.72
   2 -15 -11   12.48    4.78
   1 -15 -11    1.29    2.79
  15 -16 -11   71.73   15.90
  14 -16 -11   52.40   13.89
  13 -16 -11   -0.90    5.30
  12 -16 -11   13.96    5.17
  12 -16 -11    4.59    5.59
  11 -16 -11   42.13   11.17
  11 -16 -11   36.45    8.29
  10 -16 -11   -5.80    4.93
  10 -16 -11    1.65    3.31
   9 -16 -11    5.46    4.14
   9 -16 -11    1.39    4.57
   8 -16 -11    5.06    3.77
  -8  16  11    8.12    3.66
  -8  16  11    4.99    2.39
   7 -16 -11   14.58    5.63
   6 -16 -11   -1.07    3.04
   5 -16 -11   -1.03    2.88
   4 -16 -11   -1.85    2.91
   3 -16 -11    0.84    2.84
  13 -17 -11   15.46    8.27
  12 -17 -11   46.53    9.44
  12 -17 -11   42.98   11.76
  11 -17 -11    9.44    6.29
  11 -17 -11    7.58    4.69
  10 -17 -11   21.58    7.75
  10 -17 -11   24.48    7.53
   9 -17 -11   -1.25    3.60
   8 -17 -11    1.58    3.90
   7 -17 -11    1.09    2.98
   6 -17 -11   -1.14    3.07
   5 -17 -11   -0.32    3.60
  12 -18 -11   -0.12    4.51
  12 -18 -11    5.09    6.33
  11 -18 -11    0.83    5.15
  11 -18 -11    0.92    4.69
  10 -18 -11    6.27    5.77
  10 -18 -11    6.92    5.59
   9 -18 -11    5.84    5.78
   8 -18 -11    0.26    3.83
   1 -19  12    0.35    4.01
   2 -19  12   -1.37    2.62
   8 -19  12    7.87    7.03
   9 -19  12   27.77    9.81
  -1 -18  12   40.92    8.24
   0 -18  12    5.65    4.06
   1 -18  12    4.54    3.70
   2 -18  12   -2.44    2.52
   3 -18  12    1.44    2.66
   7 -18  12   12.57    7.67
   8 -18  12    2.61    6.33
   9 -18  12   11.05    8.66
  10 -18  12    8.92    7.73
  -2 -17  12   -2.81    2.70
  -1 -17  12    5.30    3.96
   0 -17  12   17.06    5.20
   1 -17  12   28.76    6.17
   2 -17  12   16.98    4.77
   3 -17  12    3.95    2.84
   6 -17  12   16.63    7.64
   7 -17  12   15.30    7.33
   8 -17  12   24.82   10.11
   9 -17  12   18.97    8.93
  10 -17  12   27.85    9.65
  11 -17  12   34.27   11.11
  -4 -16  12    0.72    3.46
  -3 -16  12    1.44    2.80
  -2 -16  12    3.91    3.48
  -1 -16  12    4.08    3.16
   0 -16  12    4.40    3.04
   1 -16  12   -0.29    1.98
   2 -16  12   -1.54    1.78
   3 -16  12    2.78    2.79
   4 -16  12    1.17    6.08
   5 -16  12    1.62    5.75
   6 -16  12   14.33    7.46
   7 -16  12   -0.37    4.81
   8 -16  12    5.48    6.65
   9 -16  12    5.80    7.05
  10 -16  12    7.53    6.39
  11 -16  12   26.48   10.89
  12 -16  12   15.36   10.17
  -5 -15  12   -2.14    2.62
  -4 -15  12   -1.46    2.89
  -3 -15  12   -1.36    2.29
  -2 -15  12    0.07    2.18
  -1 -15  12   28.37    5.63
   0 -15  12   24.51    5.26
   1 -15  12   24.72    5.08
   2 -15  12   17.80    4.30
   3 -15  12    5.61    2.87
   3 -15  12   -2.92    4.12
   4 -15  12   54.05   10.86
   5 -15  12   -1.65    4.90
   6 -15  12   24.62    8.63
   7 -15  12   21.93    8.89
   8 -15  12   18.29    8.15
   9 -15  12    7.43    6.21
  10 -15  12    2.00    6.81
  11 -15  12   70.53   15.15
  12 -15  12   79.26   16.77
  -7 -14  12   37.21    7.09
  -6 -14  12    7.28    3.89
  -5 -14  12    6.75    4.02
  -4 -14  12    0.03    2.52
  -3 -14  12    3.12    2.91
  -2 -14  12   -0.47    2.18
  -1 -14  12   10.87    3.63
   0 -14  12    3.52    2.61
   1 -14  12    8.43    3.16
   2 -14  12   39.80    5.78
   3 -14  12    2.22    5.09
   3 -14  12    1.35    1.97
   4 -14  12   14.67    6.81
   5 -14  12   34.61    9.21
   6 -14  12   39.21    9.98
   7 -14  12   53.29   11.77
   8 -14  12    7.11    5.98
   9 -14  12   23.69    9.11
  10 -14  12   47.90   12.01
  11 -14  12   14.73    8.33
  12 -14  12    6.41    7.61
  13 -14  12   -3.50    7.15
  -8 -13  12   16.80    4.36
  -7 -13  12   -0.72    2.11
  -6 -13  12   25.87    5.50
  -5 -13  12    8.07    4.04
  -4 -13  12    2.48    2.87
  -3 -13  12    1.72    2.77
  -2 -13  12    1.40    2.32
  -1 -13  12   26.78    5.22
   0 -13  12   17.63    4.15
   1 -13  12   29.43    4.91
   2 -13  12   24.91    4.31
   2 -13  12   21.83    6.89
   3 -13  12   10.54    3.13
   3 -13  12    6.22    5.36
   4 -13  12    6.17    5.58
   5 -13  12    0.56    5.02
   6 -13  12   52.90   11.04
   7 -13  12  242.99   23.20
   8 -13  12   14.14    7.24
   9 -13  12  138.99   18.54
  10 -13  12   33.14   10.47
  11 -13  12   -5.62    7.24
  12 -13  12    2.92    8.75
  13 -13  12   -1.00    6.63
  -9 -12  12   14.30    3.96
  -8 -12  12    4.36    2.86
  -7 -12  12    7.10    3.19
  -6 -12  12    3.31    2.44
  -5 -12  12    0.89    2.26
  -4 -12  12   30.52    5.79
  -3 -12  12    7.96    3.29
  -2 -12  12    4.27    2.52
  -1 -12  12   21.41    4.32
   0 -12  12    6.01    2.56
   1 -12  12   31.40    7.38
   1 -12  12   44.70    5.66
   2 -12  12   21.91    4.15
   2 -12  12    8.85    5.99
   3 -12  12   71.61   10.78
   3 -12  12   67.03    6.44
   4 -12  12    7.78    5.24
   5 -12  12   10.65    5.92
   6 -12  12   18.42    6.95
   7 -12  12   16.04    7.26
   8 -12  12    8.25    6.88
   9 -12  12   42.87   11.30
  10 -12  12   14.92    9.05
  11 -12  12    3.80    7.55
  12 -12  12   33.28   12.44
  13 -12  12    1.02    7.13
 -13  12 -12   15.01    4.46
  14 -12  12   -0.83    7.28
 -14  12 -12   -4.02    3.24
 -10 -11  12   26.00    5.93
  -9 -11  12    8.52    3.69
  -8 -11  12    4.04    2.60
  -7 -11  12    2.10    2.43
  -6 -11  12   12.55    3.70
  -5 -11  12   -1.07    1.95
  -4 -11  12    7.96    3.04
  -3 -11  12    7.62    3.05
  -2 -11  12   27.91    4.94
  -1 -11  12   20.28    4.19
   0 -11  12   66.12    6.36
   0 -11  12   53.06    8.82
   1 -11  12   35.09    4.84
   1 -11  12   39.36    7.96
   2 -11  12  326.24   26.32
   2 -11  12  358.91   20.80
   3 -11  12    6.09    5.68
   3 -11  12    0.89    1.38
   4 -11  12   23.09    7.88
   5 -11  12   91.95   13.27
   6 -11  12   17.48    7.65
   7 -11  12    6.28    5.80
   8 -11  12   43.93   10.38
   9 -11  12    1.40    6.88
  10 -11  12    8.66    8.26
  11 -11  12    5.31    7.88
 -12  11 -12   11.33    4.01
  12 -11  12   16.52   11.06
  13 -11  12    0.63    8.48
 -13  11 -12   -2.25    2.70
 -14  11 -12   18.38    4.97
  14 -11  12   24.44   13.44
 -11 -10  12    4.32    2.69
 -10 -10  12    3.07    3.15
  -9 -10  12   -2.18    1.91
  -8 -10  12   -3.17    1.65
  -7 -10  12    9.18    3.06
  -6 -10  12    5.90    2.75
  -5 -10  12    3.89    2.48
  -4 -10  12    1.26    1.88
  -3 -10  12    1.47    1.86
  -2 -10  12   54.75    6.28
  -1 -10  12    5.75    5.02
  -1 -10  12   10.51    2.92
   0 -10  12  363.08   26.69
   0 -10  12  363.79   21.67
   1 -10  12  159.65   15.91
   1 -10  12  182.71   11.90
   2 -10  12    3.12    4.98
   2 -10  12    6.49    2.25
   4 -10  12  173.09   17.17
   5 -10  12  169.87   17.31
   6 -10  12    8.33    6.44
   7 -10  12    8.48    6.50
   8 -10  12    5.15    7.16
   9 -10  12   -4.57    5.86
  10 -10  12    1.70    6.57
 -10  10 -12   -3.90    1.88
 -11  10 -12   40.85    6.43
  11 -10  12   39.62   12.16
 -12  10 -12   26.57    5.26
  12 -10  12   31.94   11.39
 -13  10 -12    3.61    3.41
  13 -10  12    7.32    8.67
  14 -10  12   20.28   11.00
  15 -10  12    0.12   10.95
 -12  -9  12    0.61    2.30
 -11  -9  12   18.83    4.96
 -10  -9  12   -3.98    1.64
  -9  -9  12   10.81    3.70
  -8  -9  12   30.54    5.61
  -7  -9  12    9.32    3.24
  -6  -9  12    1.69    1.86
  -5  -9  12    7.22    2.74
  -4  -9  12    4.74    2.21
  -3  -9  12   51.96    6.10
  -2  -9  12   43.46    5.46
  -2  -9  12   42.82    7.17
  -1  -9  12  312.01   23.43
  -1  -9  12  325.93   19.54
   0  -9  12  101.48   11.96
   0  -9  12  119.93    8.82
   1  -9  12    7.59    2.24
   1  -9  12   12.77    5.71
   2  -9  12    2.33    1.40
   2  -9  12    1.80    5.20
   3  -9  12   41.63    8.42
   3  -9  12   44.66    4.35
   4  -9  12  161.10   16.22
   5  -9  12   -1.42    4.51
   6  -9  12    2.15    5.41
   7  -9  12   67.86   12.21
   8  -9  12    9.46    7.31
   9  -9  12   60.60   12.46
  -9   9 -12   56.07    7.17
 -10   9 -12   30.15    5.37
  10  -9  12   29.09   10.18
 -11   9 -12    4.66    3.21
  11  -9  12   -0.10    7.13
 -12   9 -12   -1.94    2.18
  12  -9  12   -5.83    6.26
 -13   9 -12    1.72    3.14
  13  -9  12    7.78    7.81
  14  -9  12    5.46    9.37
 -14   9 -12   12.68    4.03
  15  -9  12    0.03    9.93
 -13  -8  12    2.53    2.49
 -12  -8  12    4.13    3.00
 -11  -8  12    7.76    3.19
 -10  -8  12   12.92    3.89
  -9  -8  12   11.23    3.30
  -8  -8  12   -0.67    1.70
  -7  -8  12   10.83    3.15
  -6  -8  12    1.68    1.95
  -5  -8  12    2.85    2.02
  -4  -8  12    1.31    1.94
  -3  -8  12   81.78    9.01
  -3  -8  12   77.22    7.07
  -2  -8  12   70.25    8.53
  -2  -8  12   80.60    6.92
  -1  -8  12  111.01   11.29
  -1  -8  12  111.83    8.49
   0  -8  12   26.41    3.75
   0  -8  12   27.00    6.33
   1  -8  12   45.92    4.79
   1  -8  12   47.73    7.88
   2  -8  12  103.41   11.82
   3  -8  12   94.01    6.84
   3  -8  12   88.98   11.48
   4  -8  12  181.46   18.28
   4  -8  12  219.95   12.51
   5  -8  12   12.27    6.21
   6  -8  12   55.74   10.56
   7  -8  12   -1.25    5.72
  -8   8 -12   15.22    3.96
   8  -8  12    4.61    6.31
   9  -8  12   21.85    8.96
  -9   8 -12   19.90    4.55
 -10   8 -12    9.39    3.38
  10  -8  12   10.57    7.99
  11  -8  12    1.98    6.77
 -11   8 -12   -1.17    2.03
 -12   8 -12    0.59    2.49
  12  -8  12   14.19    8.65
  13  -8  12   -1.58    6.99
 -13   8 -12    2.39    2.83
 -14   8 -12   29.84    5.57
  14  -8  12   33.60   11.88
 -14  -7  12   10.87    2.96
 -13  -7  12   14.32    4.39
 -12  -7  12   -3.17    1.74
 -11  -7  12    0.29    1.95
 -10  -7  12    3.74    2.36
  -9  -7  12   12.58    3.57
  -8  -7  12    4.07    2.03
  -7  -7  12    3.23    1.93
  -6  -7  12    3.46    2.39
  -5  -7  12  107.42    8.86
  -4  -7  12   13.82    4.31
  -4  -7  12   20.20    3.80
  -3  -7  12   12.13    4.20
  -3  -7  12    8.55    2.59
  -2  -7  12   73.73    8.49
  -2  -7  12   63.21    5.88
  -1  -7  12   71.51    6.09
  -1  -7  12   75.25    9.00
   0  -7  12   66.27    5.62
   0  -7  12   70.22    8.91
   1  -7  12   -0.56    0.99
   1  -7  12   -1.62    3.58
   2  -7  12  198.92   17.26
   3  -7  12   38.71    7.69
   3  -7  12   43.36    3.82
   4  -7  12   67.16   10.31
   4  -7  12   81.51    5.58
   5  -7  12  177.11   17.32
   6  -7  12   -1.76    4.97
  -6   7 -12    5.50    2.57
  -7   7 -12  104.26    8.76
   7  -7  12  133.57   15.26
   8  -7  12    0.93    5.83
  -8   7 -12    0.89    1.97
  -9   7 -12   15.44    3.88
   9  -7  12   15.34    8.03
  10  -7  12   30.55    9.84
 -10   7 -12   24.51    4.79
 -11   7 -12    7.06    3.00
  11  -7  12   11.59    8.23
  12  -7  12    1.34    6.87
 -12   7 -12    0.18    2.41
 -13   7 -12   37.30    6.30
  13  -7  12   38.19   11.39
 -14   7 -12   33.56    5.96
 -14  -6  12    2.13    2.55
 -13  -6  12   65.82    8.27
 -12  -6  12    8.44    2.79
 -11  -6  12    7.84    3.01
 -10  -6  12   86.46    8.60
  -9  -6  12   60.85    7.58
  -8  -6  12   48.57    6.52
  -7  -6  12  234.48   15.80
  -6  -6  12  333.80   20.62
  -5  -6  12    8.54    3.85
  -5  -6  12    2.59    1.68
  -4  -6  12    1.16    3.27
  -4  -6  12    1.64    1.50
  -3  -6  12   27.53    5.29
  -3  -6  12   24.71    3.88
  -2  -6  12    6.11    3.80
  -2  -6  12    1.92    1.38
  -1  -6  12  127.38    8.85
  -1  -6  12  128.29   12.02
   0  -6  12    0.68    0.84
   0  -6  12    2.94    3.93
   1  -6  12   -0.25    0.92
   1  -6  12    2.80    3.70
   2  -6  12  102.54   11.38
   2  -6  12   99.37    6.80
   3  -6  12   10.25    5.38
   3  -6  12   26.18    2.76
   4  -6  12   23.14    2.53
   4  -6  12   24.61    6.68
   5  -6  12   -5.97    3.68
  -5   6 -12    1.37    2.07
   6  -6  12    4.70    5.84
  -6   6 -12    6.21    2.46
   7  -6  12    4.64    6.16
  -7   6 -12    0.51    1.77
   8  -6  12   77.31   12.33
  -8   6 -12   69.25    7.39
   9  -6  12   24.77    8.36
  -9   6 -12   18.59    4.12
 -10   6 -12   61.97    7.31
  10  -6  12   53.27   11.46
 -11   6 -12    9.60    2.81
  11  -6  12   17.02    8.43
  12  -6  12   45.73   11.53
 -12   6 -12   54.77    7.31
 -13   6 -12   27.79    5.28
 -14   6 -12   14.93    4.15
 -14  -5  12   50.71    7.46
 -13  -5  12    1.07    2.23
 -12  -5  12   10.50    2.89
 -11  -5  12   16.64    4.17
 -10  -5  12   13.57    3.66
  -9  -5  12  106.67    9.24
  -8  -5  12  165.20   12.18
  -7  -5  12  134.41   10.25
  -6  -5  12  145.26   11.87
  -6  -5  12  153.16   10.92
  -5  -5  12   -0.51    2.69
  -5  -5  12    2.60    1.88
  -4  -5  12    4.85    3.25
  -4  -5  12    1.34    1.23
  -3  -5  12   91.46    9.13
  -3  -5  12   92.96    7.27
  -2  -5  12   16.58    4.40
  -2  -5  12   18.98    3.11
  -1  -5  12   67.31    8.21
  -1  -5  12   59.00    5.14
   0  -5  12  103.96   10.79
   0  -5  12  100.03    7.15
   1  -5  12   18.82    2.65
   1  -5  12   10.05    4.60
   2  -5  12   10.93    1.97
   2  -5  12    9.87    4.65
   3  -5  12    7.02    4.54
   4  -5  12   11.72    5.69
  -5   5 -12   14.49    3.28
   5  -5  12    9.45    5.65
  -6   5 -12   32.28    4.93
   6  -5  12   41.01    8.75
  -7   5 -12   29.17    4.74
   7  -5  12   40.99    9.12
   8  -5  12   29.02    8.45
  -8   5 -12   35.53    5.37
   9  -5  12   82.93   12.64
  -9   5 -12   80.42    8.23
 -10   5 -12   11.56    3.40
  10  -5  12   13.61    7.32
  11  -5  12  110.36   15.72
 -11   5 -12  103.43    9.83
  12  -5  12   45.64   11.40
 -12   5 -12   38.21    6.19
 -13   5 -12   33.24    5.83
 -14  -4  12    2.48    2.41
 -13  -4  12    5.09    2.43
 -12  -4  12   29.15    5.42
 -11  -4  12   51.80    6.82
 -10  -4  12   18.30    4.12
  -9  -4  12  101.88    8.81
  -8  -4  12   48.14    5.94
  -7  -4  12   99.43    8.56
  -7  -4  12  117.42    9.57
  -6  -4  12    8.18    3.25
  -6  -4  12   10.58    2.74
  -5  -4  12    0.03    1.34
  -5  -4  12    1.55    2.50
  -4  -4  12   52.20    6.24
  -4  -4  12   44.09    5.05
  -3  -4  12   27.31    3.83
  -3  -4  12   26.12    4.84
  -2  -4  12    1.47    2.54
  -1  -4  12  106.61   10.18
   0  -4  12  170.97   14.45
   1  -4  12   10.17    4.27
   2  -4  12   43.12    7.30
   3  -4  12    7.50    4.57
   4  -4  12    4.84    4.95
  -4   4 -12   -1.81    1.72
  -5   4 -12   13.84    3.25
   5  -4  12    6.57    5.23
   6  -4  12   95.11   11.85
  -6   4 -12   80.67    7.45
   7  -4  12   82.15   11.96
  -7   4 -12   97.13    7.79
  -8   4 -12   11.10    3.21
   8  -4  12    2.33    5.65
   9  -4  12    4.94    5.20
  -9   4 -12    1.77    1.88
  10  -4  12   39.66    9.84
 -10   4 -12   41.63    6.06
  11  -4  12   34.21    9.80
 -11   4 -12   38.44    5.71
 -12   4 -12   -0.85    2.19
 -13   4 -12    2.11    2.45
 -14  -3  12    5.09    2.87
 -13  -3  12  114.91   10.15
 -12  -3  12   27.93    4.97
 -11  -3  12    7.52    2.75
 -10  -3  12   84.84    7.80
  -9  -3  12   -3.10    0.95
  -8  -3  12    7.96    2.65
  -7  -3  12   70.86    7.30
  -7  -3  12   77.20    6.89
  -6  -3  12   98.88    8.22
  -6  -3  12  113.24    9.52
  -5  -3  12    4.94    2.51
  -5  -3  12    4.14    1.90
  -4  -3  12    3.39    2.46
  -3  -3  12   13.93    3.71
  -2  -3  12    3.55    2.94
  -1  -3  12    6.23    3.32
   0  -3  12  235.86   18.01
   1  -3  12  241.89   18.70
   2  -3  12   29.64    6.23
   3  -3  12    3.63    4.16
  -3   3 -12    8.99    2.73
  -4   3 -12   84.83    7.14
   4  -3  12  105.19   11.55
  -5   3 -12   35.04    4.88
   5  -3  12   46.91    8.38
   6  -3  12   36.20    8.19
  -6   3 -12   39.83    5.28
   7  -3  12   21.62    7.18
  -7   3 -12   24.46    4.35
   8  -3  12   84.69   11.87
  -8   3 -12   67.83    7.30
   9  -3  12   -1.43    4.74
  -9   3 -12   -0.91    1.66
 -10   3 -12   30.70    5.23
  10  -3  12   18.28    7.07
 -11   3 -12    0.94    2.55
 -12   3 -12   -0.99    2.54
 -13   3 -12    0.58    3.23
 -14  -2  12    6.47    3.02
 -13  -2  12   80.22    7.73
 -12  -2  12   35.84    5.54
 -11  -2  12    3.44    1.84
 -10  -2  12  307.43   19.58
  -9  -2  12   28.96    4.64
  -8  -2  12    0.38    1.95
  -8  -2  12    1.15    1.52
  -7  -2  12   67.64    6.43
  -7  -2  12   71.92    7.08
  -6  -2  12   13.38    3.40
  -5  -2  12   58.50    6.43
  -4  -2  12   20.37    4.01
  -3  -2  12   12.44    3.68
  -2  -2  12   30.76    5.21
  -1  -2  12   68.77    7.73
   0  -2  12  159.51   13.49
   1  -2  12  230.68   17.92
   2  -2  12  800.11   50.41
  -2   2 -12  763.67   37.03
  -3   2 -12  333.53   18.52
   3  -2  12  373.29   26.03
  -4   2 -12   11.22    2.90
   4  -2  12   15.59    5.63
   5  -2  12  109.31   12.09
  -5   2 -12   98.51    7.81
   6  -2  12   79.56   11.07
  -6   2 -12   82.20    6.98
  -7   2 -12   62.89    6.69
   7  -2  12   68.10   10.11
   8  -2  12   -2.51    4.24
  -8   2 -12    0.18    1.62
  -9   2 -12   88.95    8.59
   9  -2  12   83.34   12.09
 -10   2 -12   32.45    5.47
 -11   2 -12   41.47    6.37
 -12   2 -12    0.05    2.70
 -14  -1  12   70.71    7.04
 -13  -1  12   33.21    5.21
 -12  -1  12    2.25    1.92
 -11  -1  12    2.84    1.56
 -10  -1  12   -0.97    1.19
  -9  -1  12    4.34    2.07
  -9  -1  12    3.43    2.50
  -8  -1  12    5.03    2.63
  -7  -1  12    7.80    3.00
  -6  -1  12   21.98    4.10
  -5  -1  12   55.05    6.23
  -4  -1  12   32.54    4.92
  -3  -1  12  168.08   13.22
  -2  -1  12    7.28    3.07
  -1  -1  12  309.83   21.92
   0  -1  12   52.05    7.03
   1  -1  12  603.56   39.54
   2  -1  12   91.04    9.92
  -2   1 -12   95.68    6.97
  -3   1 -12    1.13    1.44
   3  -1  12    4.59    3.98
   4  -1  12  124.41   12.81
  -4   1 -12  122.89    8.68
   5  -1  12  155.98   15.66
  -5   1 -12  195.92   11.54
   6  -1  12   -1.56    3.97
  -6   1 -12    2.47    1.85
   7  -1  12   30.36    7.06
  -7   1 -12   19.41    4.13
   8  -1  12   17.06    6.34
  -8   1 -12   14.12    3.63
  -9   1 -12  100.00    8.52
 -10   1 -12    3.63    2.36
 -11   1 -12   23.37    5.04
 -12   1 -12    1.80    3.01
 -17   0  12   11.45    2.91
 -14   0  12   -0.51    1.52
 -13   0  12    5.87    2.44
 -12   0  12   74.77    6.99
 -11   0  12   -0.81    1.16
 -10   0  12   35.88    5.36
 -10   0  12   25.56    4.26
 -10   0  12   26.18    3.97
  -9   0  12    3.19    1.83
  -9   0  12    1.95    2.30
  -8   0  12    8.72    3.12
  -7   0  12    3.47    2.47
  -6   0  12    5.93    2.70
  -5   0  12    3.76    2.34
  -4   0  12   91.89    8.55
  -3   0  12    6.11    2.60
  -2   0  12    5.61    2.71
  -1   0  12 1261.62   76.95
   0   0  12  103.08   10.03
  -1   0 -12  105.40    7.44
   1   0  12  117.75   10.88
   2   0  12  261.83   20.64
  -2   0 -12  277.37   17.73
  -2   0 -12  297.76   15.29
  -3   0 -12   83.80    6.49
  -3   0 -12   84.48    7.66
   3   0  12   79.27    9.78
  -4   0 -12  354.22   21.97
  -4   0 -12  380.62   19.57
   4   0  12  368.12   26.82
  -5   0 -12  299.38   16.19
   5   0  12  266.59   21.92
  -6   0 -12   -2.62    1.23
   6   0  12    0.56    4.15
   7   0  12   -3.88    3.47
  -7   0 -12    0.26    1.75
  -8   0 -12    7.83    3.11
  -9   0 -12    3.82    2.37
 -10   0 -12    2.81    2.56
 -11   0 -12    1.74    2.93
 -12   0 -12   -0.76    3.13
 -17   1  12   19.34    3.62
 -16   1  12   -2.41    1.62
 -14   1  12    2.49    1.71
 -13   1  12   45.96    5.72
 -12   1  12   15.81    3.25
 -11   1  12   22.43    3.88
 -11   1  12   21.95    4.59
 -10   1  12   15.71    4.12
 -10   1  12   14.61    3.12
  -9   1  12    5.02    2.24
  -9   1  12    2.04    2.34
  -8   1  12  339.49   19.98
  -8   1  12  341.65   23.55
  -7   1  12  406.20   22.94
  -7   1  12  401.62   27.00
  -6   1  12  238.59   17.29
  -5   1  12    3.48    2.40
  -4   1  12   -0.04    1.60
  -3   1  12  368.67   24.95
  -2   1  12   29.20    5.04
  -1   1  12  107.27   10.00
   0   1  12  415.22   27.13
   0  -1 -12  381.26   23.75
   0  -1 -12  380.97   19.67
  -1  -1 -12    4.04    1.87
  -1  -1 -12    7.00    2.95
   1   1  12    3.37    2.94
   2   1  12   40.61    6.55
  -2  -1 -12   40.71    4.40
  -2  -1 -12   25.11    4.44
  -3  -1 -12  379.96   19.87
  -3  -1 -12  360.63   22.83
   3   1  12  410.70   27.54
  -4  -1 -12  125.99    8.78
   4   1  12  138.61   13.40
  -4  -1 -12  131.37   10.21
  -5  -1 -12    3.79    2.30
   5   1  12    2.63    4.58
   6   1  12   17.62    5.92
  -6  -1 -12    8.99    2.63
  -7  -1 -12    9.66    2.87
  -8  -1 -12    5.47    2.44
  -9  -1 -12    0.40    2.00
 -10  -1 -12   17.15    4.56
 -11  -1 -12    1.63    2.60
 -18   2  12   -0.54    1.84
 -17   2  12   -0.31    1.69
 -16   2  12    4.61    2.28
 -14   2  12   -0.71    1.21
 -13   2  12    5.64    2.12
 -12   2  12   40.37    5.23
 -12   2  12   57.19    6.93
 -11   2  12   19.46    3.59
 -10   2  12  105.96    9.75
 -10   2  12  101.26    8.14
  -9   2  12  120.85    9.09
  -9   2  12  122.00   10.93
  -8   2  12  259.10   19.21
  -8   2  12  271.21   16.45
  -7   2  12  246.73   18.49
  -7   2  12  263.35   15.88
  -6   2  12   84.14    6.75
  -6   2  12   73.19    7.77
  -5   2  12  282.08   19.92
  -4   2  12   49.80    6.27
  -3   2  12  138.85   11.47
  -2   2  12  970.33   60.04
  -1   2  12 1519.22   94.15
   1  -2 -12 1601.47   82.69
   0  -2 -12  500.43   29.20
   0  -2 -12  515.22   24.33
   0   2  12  477.19   32.87
  -1  -2 -12   20.03    3.08
  -1  -2 -12   16.60    3.91
   1   2  12   14.73    4.36
  -2  -2 -12   62.48    6.94
  -2  -2 -12   63.29    5.75
   2   2  12   67.71    8.32
  -3  -2 -12  138.99    8.87
  -3  -2 -12  118.30   10.15
   3   2  12  134.07   12.65
   4   2  12   13.82    5.31
  -4  -2 -12   11.86    3.73
  -4  -2 -12   11.42    3.05
   5   2  12   95.12   11.08
  -5  -2 -12   77.16    6.79
  -6  -2 -12    5.70    2.15
   6   2  12    5.82    4.40
  -7  -2 -12    2.83    2.29
  -8  -2 -12    5.59    2.71
  -9  -2 -12   -0.63    2.38
 -10  -2 -12   39.38    6.39
 -11  -2 -12   -1.01    3.31
 -18   3  12   -1.54    1.82
 -17   3  12    0.21    1.76
 -16   3  12   13.68    2.99
 -14   3  12    2.31    1.60
  13  -3 -12    2.75    4.28
  12  -3 -12   12.24    5.79
 -10   3  12   22.07    4.89
 -10   3  12   20.22    3.86
  -9   3  12   88.97    9.13
  -9   3  12   88.99    7.58
  -8   3  12  467.17   26.94
  -8   3  12  486.06   31.92
  -7   3  12  201.43   15.94
  -7   3  12  217.09   13.74
  -6   3  12   73.92    7.72
  -6   3  12   70.68    6.44
  -5   3  12  452.65   30.64
  -5   3  12  478.04   26.13
  -4   3  12   45.76    6.12
   3  -3 -12  167.50   13.15
  -3   3  12  174.36   13.70
  -2   3  12 1269.34   78.70
   2  -3 -12 1322.11   69.57
   1  -3 -12  428.57   25.38
  -1   3  12  404.92   28.04
   0  -3 -12    1.25    2.44
   0  -3 -12   12.04    2.42
   0   3  12    4.05    2.71
   1   3  12   78.46    8.63
  -1  -3 -12   73.07    7.71
  -1  -3 -12   79.50    5.90
  -2  -3 -12   74.46    7.75
   2   3  12   76.25    8.85
  -2  -3 -12   69.23    5.82
  -3  -3 -12    4.21    1.83
  -3  -3 -12    2.83    2.72
   3   3  12    1.60    3.55
  -4  -3 -12   59.48    6.01
   4   3  12   57.73    8.72
  -4  -3 -12   61.88    7.10
  -5  -3 -12  105.19    8.09
   5   3  12  105.55   11.59
  -6  -3 -12   56.86    6.49
  -7  -3 -12   29.52    4.94
  -8  -3 -12   19.98    4.25
  -9  -3 -12   12.65    3.86
 -10  -3 -12   19.59    5.07
 -17   4  12   -0.31    1.90
 -16   4  12    4.07    1.98
 -15   4  12   14.04    2.92
  14  -4 -12    5.69    5.31
  13  -4 -12    6.51    5.27
  12  -4 -12    9.29    5.75
  11  -4 -12   98.32   12.58
  10  -4 -12  109.84   12.98
  -8   4  12   68.22    7.69
  -8   4  12   65.45    6.29
  -7   4  12    4.85    2.27
  -7   4  12   -0.69    2.05
  -6   4  12  452.03   25.56
  -6   4  12  441.93   30.05
  -5   4  12 1069.08   66.47
  -5   4  12 1089.28   56.44
  -4   4  12  318.06   22.46
   4  -4 -12  329.10   21.36
   3  -4 -12    9.88    3.59
  -3   4  12    3.30    2.60
   2  -4 -12   16.22    4.38
  -2   4  12   12.49    3.66
   1  -4 -12    3.38    1.33
  -1   4  12    8.50    3.28
   1  -4 -12    5.97    3.16
   0  -4 -12    1.39    2.58
   0   4  12    3.51    2.82
   0  -4 -12    3.50    1.46
   1   4  12    2.16    3.14
  -1  -4 -12    0.98    1.41
  -1  -4 -12    0.59    2.57
  -2  -4 -12    0.01    1.19
   2   4  12    0.20    2.76
  -2  -4 -12    1.05    2.59
  -3  -4 -12    6.11    3.41
   3   4  12    7.06    4.43
  -3  -4 -12    8.02    2.50
  -4  -4 -12   52.89    6.67
  -4  -4 -12   67.64    6.23
   4   4  12   35.57    6.61
  -5  -4 -12    5.60    2.29
  -6  -4 -12   56.75    6.57
  -7  -4 -12   72.15    7.73
  -8  -4 -12    5.95    2.78
  -9  -4 -12    7.37    3.16
 -10  -4 -12    4.51    4.11
  15  -5 -12    3.07    4.89
  14  -5 -12   13.18    6.89
  13  -5 -12   29.34    8.02
  12  -5 -12   -2.02    4.53
  11  -5 -12    7.09    6.07
  10  -5 -12  111.49   13.32
   9  -5 -12   26.63    7.35
  -8   5  12   80.55    8.65
  -8   5  12   77.95    7.20
  -7   5  12    0.71    1.82
  -7   5  12    0.16    2.22
  -6   5  12  124.59    9.81
  -6   5  12  145.61   12.01
  -5   5  12  132.95    9.83
   5  -5 -12  132.78   11.72
  -5   5  12  132.16   11.56
   4  -5 -12    8.10    3.55
  -4   5  12   11.39    3.65
  -3   5  12   37.47    5.72
   3  -5 -12   30.72    5.67
   2  -5 -12   37.13    6.04
  -2   5  12   43.48    6.06
   1  -5 -12   53.69    4.45
  -1   5  12   53.29    7.07
   1  -5 -12   51.75    6.92
   0   5  12    2.75    2.53
   0  -5 -12    0.08    2.56
   0  -5 -12   -0.39    0.79
   1   5  12   26.11    5.44
  -1  -5 -12   21.64    3.22
  -1  -5 -12   13.72    3.96
  -2  -5 -12   12.43    3.73
   2   5  12   14.85    4.77
  -2  -5 -12   17.40    3.24
  -3  -5 -12    1.51    1.72
  -3  -5 -12    2.19    2.27
   3   5  12    2.89    3.06
  -4  -5 -12   38.37    6.06
  -4  -5 -12   39.74    5.18
  -6  -5 -12    7.98    2.67
  -7  -5 -12   17.65    3.96
  -8  -5 -12   40.03    6.31
  -9  -5 -12   18.20    4.65
 -10  -5 -12    2.82    4.41
  16  -6 -12    7.77    6.31
  15  -6 -12   12.26    6.23
  14  -6 -12   34.68    9.30
  13  -6 -12    0.61    5.06
  12  -6 -12    1.45    4.71
  11  -6 -12   38.66    9.06
  10  -6 -12  190.91   18.61
   9  -6 -12    3.22    5.19
  -7   6  12    4.96    3.23
  -7   6  12   11.61    3.31
  -6   6  12  186.06   15.45
  -6   6  12  197.92   13.28
   6  -6 -12  208.95   15.73
  -5   6  12    5.96    2.34
   5  -6 -12    5.54    3.47
  -5   6  12    7.22    3.28
  -4   6  12   -1.25    1.29
   4  -6 -12   -2.18    2.12
  -4   6  12   -3.09    1.85
  -3   6  12   22.50    4.86
   3  -6 -12   22.10    5.01
   2  -6 -12    1.74    1.30
   2  -6 -12    0.10    2.21
  -2   6  12   -2.14    1.65
  -1   6  12   20.42    4.83
   1  -6 -12   21.93    2.97
   1  -6 -12   21.44    5.05
   0  -6 -12   27.06    3.59
   0   6  12   30.62    5.64
   0  -6 -12   27.65    5.39
  -1  -6 -12  238.56   16.43
   1   6  12  207.96   17.29
  -2  -6 -12  182.70   14.81
   2   6  12  197.20   16.40
  -2  -6 -12  227.26   12.29
  -3  -6 -12   10.80    2.61
  -3  -6 -12    3.71    2.73
  -4  -6 -12   -1.04    1.87
  -4  -6 -12   -1.32    1.64
  -5  -6 -12    1.82    2.04
  -5  -6 -12    2.77    2.72
  -6  -6 -12    5.74    2.75
  -7  -6 -12   37.25    5.77
  -8  -6 -12   90.61    9.57
  -9  -6 -12   12.82    4.69
  17  -7 -12   13.63    7.45
  16  -7 -12    0.22    6.22
  15  -7 -12   34.04    9.83
  14  -7 -12   60.39   11.38
  13  -7 -12   28.57    8.62
  12  -7 -12    5.71    5.98
  11  -7 -12   25.04    8.20
  10  -7 -12   24.75    8.42
   9  -7 -12   13.99    6.95
   8  -7 -12   10.86    5.86
   7  -7 -12    0.83    3.16
  -7   7  12    0.42    1.84
  -7   7  12    1.98    2.50
   6  -7 -12    2.97    3.27
  -6   7  12    2.22    1.88
  -6   7  12    0.90    2.27
  -5   7  12   -0.08    1.56
   5  -7 -12    5.39    3.66
  -5   7  12    0.11    2.03
   4  -7 -12   20.81    4.81
  -4   7  12   11.80    3.21
  -4   7  12    4.44    3.01
  -3   7  12   58.62    7.35
   3  -7 -12   52.07    7.53
   2  -7 -12   10.65    3.92
  -2   7  12    7.74    3.46
   1  -7 -12    6.07    3.43
  -1   7  12    1.58    2.58
   0   7  12   24.58    5.20
   0  -7 -12   11.49    4.19
  -1  -7 -12    5.50    3.29
   1   7  12   -1.11    2.58
  -2  -7 -12    0.80    2.42
  -2  -7 -12    0.94    1.83
  -3  -7 -12   53.13    5.74
  -3  -7 -12   50.93    7.62
  -4  -7 -12   84.53    7.46
  -4  -7 -12   56.94    8.22
  -5  -7 -12    6.43    2.81
  -5  -7 -12    5.83    3.21
  -6  -7 -12   -1.61    1.84
  -7  -7 -12  107.77    9.22
  -8  -7 -12   58.22    8.05
  17  -8 -12    3.50    5.60
  16  -8 -12    8.68    6.64
  15  -8 -12  130.96   17.37
  14  -8 -12   57.10   11.70
  13  -8 -12   55.08   11.22
  12  -8 -12   -1.13    5.10
  11  -8 -12   13.34    7.40
  10  -8 -12    5.53    6.24
   9  -8 -12   10.95    7.15
   8  -8 -12   81.62   11.92
   8  -8 -12   75.02    9.64
  -7   8  12   13.90    4.56
  -7   8  12   19.73    4.31
   7  -8 -12   21.08    5.44
  -6   8  12    2.49    2.87
  -6   8  12    1.48    1.99
   6  -8 -12    3.81    3.36
   5  -8 -12   21.00    5.46
  -5   8  12   16.85    4.03
  -5   8  12   21.46    4.92
  -4   8  12   20.21    3.88
   4  -8 -12   24.46    5.44
  -4   8  12   25.90    5.01
   3  -8 -12  129.46   11.51
  -3   8  12  120.32   11.05
  -2   8  12   16.28    4.54
   2  -8 -12   13.96    4.48
   1  -8 -12   48.04    7.43
  -1   8  12   45.14    6.76
   0  -8 -12    6.18    3.42
   0   8  12    3.20    3.35
  -1  -8 -12    0.31    2.40
  -2  -8 -12   47.51    7.50
  -3  -8 -12  131.14   12.21
  -4  -8 -12   -1.17    2.50
  18  -9 -12   53.81   12.86
  17  -9 -12   11.05    7.46
  16  -9 -12   14.30    7.56
  15  -9 -12   64.32   13.07
  14  -9 -12   13.00    7.40
  13  -9 -12   49.55   11.38
  12  -9 -12   22.53    8.31
  11  -9 -12   -2.09    4.84
  10  -9 -12    1.80    6.01
   9  -9 -12   32.11    7.19
   9  -9 -12   50.65   10.23
   8  -9 -12    3.41    5.39
   8  -9 -12    6.29    3.83
  -7   9  12   11.59    3.46
   7  -9 -12   12.17    4.60
  -7   9  12    6.38    3.50
  -6   9  12   -0.15    2.30
   6  -9 -12   -0.63    2.63
  -6   9  12   -1.61    1.39
   5  -9 -12   24.89    6.14
  -5   9  12   21.36    5.12
  -5   9  12   36.42    5.16
   4  -9 -12    1.53    3.29
  -4   9  12    2.56    1.99
  -4   9  12   -0.90    1.64
   3  -9 -12    0.50    2.43
  -3   9  12    4.21    2.85
  -2   9  12   41.80    6.46
   2  -9 -12   33.37    6.69
   1  -9 -12  157.26   13.38
  -1   9  12  143.96   12.84
   0  -9 -12    7.24    4.02
  -1  -9 -12   55.27    8.42
  -2  -9 -12   97.83   10.98
  -3  -9 -12   30.44    6.75
  -4  -9 -12   11.79    4.04
  19 -10 -12    9.76    9.64
  18 -10 -12    7.00    7.79
  17 -10 -12    2.76    6.70
  16 -10 -12   19.64    8.69
  15 -10 -12    2.89    6.66
  14 -10 -12    7.10    7.05
  13 -10 -12   12.43    7.54
  12 -10 -12    8.66    7.17
  11 -10 -12    2.89    6.00
  10 -10 -12    1.27    3.17
  10 -10 -12    1.34    5.40
   9 -10 -12   29.09    8.93
   9 -10 -12   40.78    7.50
   8 -10 -12    0.45    4.93
   8 -10 -12    3.30    3.16
   7 -10 -12   12.83    4.84
  -7  10  12    5.16    3.71
  -7  10  12    6.20    3.05
  -6  10  12  132.43   10.26
  -6  10  12  117.25   11.82
   6 -10 -12  139.77   12.59
  -5  10  12  104.96    8.74
  -5  10  12  103.18   10.27
   5 -10 -12  102.73   11.47
  -4  10  12   -0.91    2.02
   4 -10 -12   -0.51    2.31
  -4  10  12    0.10    1.85
  -3  10  12  102.40    9.92
   3 -10 -12  103.33   11.26
  -2  10  12   76.72    8.35
   2 -10 -12   71.66    9.52
   1 -10 -12   40.73    7.39
   0 -10 -12    5.95    3.50
  -1 -10 -12   67.38    9.38
  -2 -10 -12   31.22    6.73
  -3 -10 -12    4.50    3.51
  -4 -10 -12   23.91    5.84
  19 -11 -12   13.71   10.64
  18 -11 -12    4.04    8.75
  17 -11 -12   11.79    8.38
  16 -11 -12   -5.32    5.94
  15 -11 -12   -2.30    6.21
  14 -11 -12   73.44   14.55
  13 -11 -12   37.97   11.22
  12 -11 -12    2.15    6.03
  11 -11 -12   17.81    8.26
  10 -11 -12    2.77    5.30
  10 -11 -12   10.54    4.95
   9 -11 -12   32.19    9.35
   9 -11 -12   22.20    5.96
   8 -11 -12   -2.28    4.57
   8 -11 -12    0.55    3.04
  -7  11  12  235.05   15.66
   7 -11 -12  218.27   17.61
  -7  11  12  219.70   18.34
  -6  11  12  200.09   14.17
   6 -11 -12  226.73   17.27
  -6  11  12  198.72   16.72
   5 -11 -12    6.29    4.25
  -5  11  12    4.90    2.98
  -5  11  12    1.80    1.98
  -4  11  12   46.37    6.81
  -4  11  12   55.23    6.18
   4 -11 -12   49.61    7.97
  -3  11  12   21.73    4.96
   3 -11 -12   19.13    5.34
   2 -11 -12   -0.48    2.41
   1 -11 -12   -0.25    2.42
   0 -11 -12   10.73    3.95
  -1 -11 -12   41.93    7.81
  -2 -11 -12   24.48    6.47
  -3 -11 -12    9.36    4.10
  -4 -11 -12   30.31    7.11
  18 -12 -12   -4.56    7.99
  17 -12 -12   -0.50    4.77
  16 -12 -12    5.30    7.35
  15 -12 -12   16.08    9.21
  14 -12 -12  112.26   17.31
  13 -12 -12    6.97    7.33
  12 -12 -12   14.79    7.47
  11 -12 -12    7.82    6.81
  11 -12 -12    7.84    4.91
  10 -12 -12    7.38    6.10
  10 -12 -12   16.63    5.56
   9 -12 -12   45.67   10.58
   9 -12 -12   59.92    9.06
   8 -12 -12    3.14    3.51
  -7  12  12   93.30   10.56
   7 -12 -12   97.36   11.46
  -7  12  12  113.68    9.36
  -6  12  12    7.35    3.11
   6 -12 -12   14.00    5.31
  -6  12  12   13.22    4.53
  -5  12  12   -0.57    2.02
   5 -12 -12   -0.73    2.87
  -5  12  12    4.17    2.31
   4 -12 -12  142.16   12.77
  -4  12  12  113.08    9.26
   3 -12 -12  138.35   13.36
   2 -12 -12    4.94    3.45
   1 -12 -12   18.93    5.56
   0 -12 -12    5.99    3.41
  -1 -12 -12   11.74    4.18
  -2 -12 -12    2.90    2.85
  -3 -12 -12    6.47    4.40
  -4 -12 -12    4.42    3.41
  17 -13 -12    0.10    5.11
  16 -13 -12    3.49    5.74
  15 -13 -12    2.25    7.96
  14 -13 -12   33.63   12.10
  13 -13 -12   19.60    7.86
  12 -13 -12   47.91   12.08
  11 -13 -12   46.75   11.96
  11 -13 -12   52.00    9.21
  10 -13 -12   22.56    8.36
  10 -13 -12   15.15    5.63
   9 -13 -12    8.97    6.50
   9 -13 -12    8.55    4.26
   8 -13 -12   33.33    7.42
  -7  13  12    7.56    3.03
  -7  13  12    8.17    4.08
   7 -13 -12    2.20    3.77
  -6  13  12    2.73    2.02
  -6  13  12    0.54    2.44
   6 -13 -12    4.32    3.88
  -5  13  12   14.84    4.21
   5 -13 -12   19.44    6.24
  -5  13  12   11.85    3.29
   4 -13 -12   66.69    9.59
   3 -13 -12  162.68   15.15
   2 -13 -12   -1.02    2.68
   1 -13 -12   26.04    6.40
   0 -13 -12   10.27    4.45
  -1 -13 -12   -2.07    2.26
  -2 -13 -12    0.28    3.17
  16 -14 -12   -1.67    4.78
  15 -14 -12    3.93    5.57
  14 -14 -12   -2.88    5.41
  13 -14 -12   63.51   13.92
  12 -14 -12    8.99    7.38
  12 -14 -12   19.99    6.45
  11 -14 -12   19.34    6.34
  11 -14 -12   36.45   10.64
  10 -14 -12   -0.54    5.09
  10 -14 -12    6.53    4.41
   9 -14 -12   21.57    8.05
   9 -14 -12   31.26    7.30
  -8  14  12    1.05    2.16
  -8  14  12    2.69    2.92
   8 -14 -12   -0.74    2.77
  -7  14  12   14.70    3.77
  -7  14  12   12.49    4.47
   7 -14 -12   22.11    6.69
  -6  14  12   45.20    6.12
  -6  14  12   38.71    6.84
   6 -14 -12   49.24    8.83
   5 -14 -12   70.20   10.46
   4 -14 -12   41.21    8.17
   3 -14 -12    4.98    3.14
   2 -14 -12   22.59    6.21
   1 -14 -12   18.01    5.91
   0 -14 -12    4.38    3.46
  15 -15 -12   26.24   10.37
  14 -15 -12   24.59    9.57
  13 -15 -12   23.50    9.39
  12 -15 -12   37.82   11.09
  12 -15 -12   25.12    6.96
  11 -15 -12    6.24    6.09
  11 -15 -12    1.29    3.55
  10 -15 -12   34.54    7.83
  10 -15 -12   36.84    9.52
   9 -15 -12   12.55    5.20
   8 -15 -12    6.68    4.60
  -8  15  12    8.24    3.09
  -8  15  12    5.26    3.43
  -7  15  12   48.07    7.54
   7 -15 -12   35.46    8.11
  -7  15  12   49.08    6.48
   6 -15 -12    8.41    4.92
   5 -15 -12    0.60    3.54
   4 -15 -12    0.97    2.84
   3 -15 -12    1.71    3.53
   2 -15 -12   28.75    7.00
   1 -15 -12   31.86    7.81
  14 -16 -12   10.98    7.19
  13 -16 -12    4.09    6.51
  13 -16 -12    2.06    4.04
  12 -16 -12    0.01    5.68
  12 -16 -12    4.55    3.90
  11 -16 -12   -2.37    5.15
  11 -16 -12    4.21    3.62
  10 -16 -12   52.39    9.54
  10 -16 -12   52.76   11.47
   9 -16 -12   10.23    5.22
  -9  16  12   16.52    4.06
  -9  16  12   15.41    5.27
   8 -16 -12   26.60    7.40
  -8  16  12   20.58    5.82
  -8  16  12   22.60    4.75
   7 -16 -12    0.32    3.96
   6 -16 -12    0.34    2.90
   5 -16 -12   -0.65    2.98
   4 -16 -12    1.16    3.47
  13 -17 -12   40.84    9.75
  13 -17 -12   51.04   12.68
  12 -17 -12    5.42    5.87
  12 -17 -12    4.96    4.43
  11 -17 -12   16.38    7.18
  11 -17 -12   21.09    6.62
  10 -17 -12   13.30    6.33
  -9  17  12    0.35    3.21
  -9  17  12    5.49    2.76
   9 -17 -12   -1.14    3.70
   8 -17 -12   -5.18    2.47
   7 -17 -12   -1.33    3.28
   6 -17 -12    0.12    3.48
  12 -18 -12   10.49    6.93
  11 -18 -12   -4.01    5.01
  11 -18 -12    3.62    5.31
  10 -18 -12   -4.93    4.76
 -10  18  12    2.97    3.49
 -10  18  12   -1.30    3.46
   1 -19  13    5.81    4.33
   2 -19  13    0.79    2.99
   8 -19  13    1.83    7.35
   9 -19  13   -2.77    5.80
  -1 -18  13    2.53    3.98
   0 -18  13    1.81    3.48
   1 -18  13   -0.45    2.78
   2 -18  13    2.08    2.97
   6 -18  13    5.75    7.03
   7 -18  13   14.98    8.20
   8 -18  13   16.79    8.18
   9 -18  13   14.98    8.30
  10 -18  13   11.03    7.31
  -2 -17  13    0.26    3.05
  -1 -17  13   22.11    6.03
   0 -17  13   15.99    4.84
   1 -17  13   -0.19    2.30
   2 -17  13    6.19    3.13
   5 -17  13    3.51    6.46
   6 -17  13    5.29    6.58
   7 -17  13    6.96    6.59
   8 -17  13    3.95    6.42
   9 -17  13    8.94    7.77
  10 -17  13   41.76   12.19
  11 -17  13  149.61   22.10
  -4 -16  13   -0.11    3.01
  -3 -16  13   -1.26    2.23
  -2 -16  13    4.65    3.32
  -1 -16  13   11.80    4.15
   0 -16  13    1.93    2.48
   1 -16  13    8.12    3.33
   2 -16  13    5.53    2.66
   4 -16  13   23.00    7.69
   5 -16  13   13.06    7.60
   6 -16  13   44.83   11.20
   7 -16  13   15.69    7.40
   8 -16  13    3.61    6.54
   9 -16  13   29.10    8.98
  10 -16  13   10.63    8.52
  11 -16  13   -4.00    6.29
  -5 -15  13    1.58    3.20
  -4 -15  13    3.02    3.28
  -3 -15  13    5.61    3.68
  -2 -15  13    4.79    3.01
  -1 -15  13    0.67    2.27
   0 -15  13    3.06    2.47
   1 -15  13   18.63    4.25
   2 -15  13    2.11    2.20
   3 -15  13   25.97    4.96
   3 -15  13   23.11    7.70
   4 -15  13    4.92    5.10
   5 -15  13   68.24   12.14
   6 -15  13  105.70   15.02
   7 -15  13   10.27    6.54
   8 -15  13   30.96    9.76
   9 -15  13   17.45    7.71
  10 -15  13    0.78    6.64
  11 -15  13    2.42    6.87
  12 -15  13    4.47    6.27
  -6 -14  13    0.40    3.04
  -5 -14  13   -2.25    2.78
  -4 -14  13   -0.47    2.66
  -3 -14  13    0.82    2.38
  -2 -14  13   18.66    4.45
  -1 -14  13    2.04    2.30
   0 -14  13   16.92    4.17
   1 -14  13  152.97   11.96
   2 -14  13   43.08    6.09
   2 -14  13   38.56    8.50
   3 -14  13   13.51    3.62
   3 -14  13   11.22    6.52
   4 -14  13   29.31    8.79
   5 -14  13  114.97   15.53
   6 -14  13    8.16    6.66
   7 -14  13    0.46    5.82
   8 -14  13   85.48   14.75
   9 -14  13   76.32   14.21
  10 -14  13    1.29    5.01
  11 -14  13   44.37   12.48
  12 -14  13   -3.34    5.60
  13 -14  13   -1.62    7.33
  -8 -13  13    3.74    2.84
  -7 -13  13   -0.31    2.34
  -6 -13  13    1.20    3.39
  -5 -13  13    2.27    2.84
  -4 -13  13    0.46    2.41
  -3 -13  13   21.13    4.88
  -2 -13  13   88.27    8.71
  -1 -13  13   11.17    3.55
   0 -13  13   85.68    8.31
   1 -13  13  205.98   18.42
   1 -13  13  197.76   14.34
   2 -13  13    2.57    4.25
   2 -13  13    3.29    2.09
   3 -13  13  226.85   14.94
   3 -13  13  215.01   20.04
   4 -13  13   60.80   11.03
   5 -13  13   16.63    7.25
   6 -13  13  112.00   15.54
   7 -13  13   99.12   15.17
   8 -13  13  135.00   18.23
   9 -13  13   22.92    8.65
  10 -13  13   14.57    7.38
  11 -13  13   45.91   12.91
  12 -13  13   -1.31    6.97
  13 -13  13   -0.74    6.53
  -9 -12  13    3.64    3.09
  -8 -12  13    3.38    2.77
  -7 -12  13   32.33    6.45
  -6 -12  13   -1.58    2.52
  -5 -12  13    4.67    2.87
  -4 -12  13    6.43    3.27
  -3 -12  13   39.81    6.27
  -2 -12  13    0.77    1.87
  -1 -12  13    2.78    2.13
   0 -12  13   62.33    6.96
   1 -12  13   72.62    7.46
   1 -12  13   79.96   10.91
   2 -12  13    9.73    2.97
   2 -12  13    9.67    5.59
   3 -12  13   46.92    5.64
   3 -12  13   51.56    9.77
   4 -12  13    1.35    5.16
   5 -12  13   10.72    6.38
   6 -12  13  147.64   17.47
   7 -12  13  157.97   17.83
   8 -12  13  160.64   19.47
   9 -12  13    3.19    6.09
  10 -12  13   15.32    9.04
  11 -12  13   -1.20    7.79
  12 -12  13    3.75    9.23
  13 -12  13   -3.32    5.59
 -14  12 -13   -1.09    2.90
 -10 -11  13   49.39    8.14
  -9 -11  13    1.28    2.66
  -8 -11  13   -3.15    1.76
  -7 -11  13    2.90    2.28
  -6 -11  13   29.94    5.63
  -5 -11  13   56.61    7.54
  -4 -11  13   53.54    6.98
  -3 -11  13   19.74    4.33
  -2 -11  13    1.60    1.83
  -1 -11  13   76.27    7.25
   0 -11  13  236.63   15.22
   0 -11  13  211.77   18.89
   1 -11  13   83.36   10.73
   1 -11  13   69.39    6.65
   2 -11  13   -0.52    4.23
   2 -11  13   -0.77    1.21
   3 -11  13   13.22    2.82
   3 -11  13   32.49    7.86
   4 -11  13   73.32   11.51
   5 -11  13   51.84   10.36
   6 -11  13   55.85   11.10
   7 -11  13  166.36   18.40
   8 -11  13   28.67    9.28
   9 -11  13    6.32    7.61
  10 -11  13   33.44   11.32
  11 -11  13   27.68   11.09
 -12  11 -13    1.27    3.06
  12 -11  13   -0.77    8.08
 -13  11 -13    0.99    3.22
  13 -11  13    6.24    7.37
  14 -11  13    1.01    9.91
 -14  11 -13    5.86    3.70
 -11 -10  13   12.76    4.40
 -10 -10  13    7.53    3.30
  -9 -10  13    2.58    2.73
  -8 -10  13    3.89    2.66
  -7 -10  13    4.69    2.46
  -6 -10  13   63.79    7.88
  -5 -10  13   61.77    7.48
  -4 -10  13    0.34    1.64
  -3 -10  13    5.46    2.53
  -2 -10  13    3.25    2.09
  -1 -10  13  136.79   10.22
  -1 -10  13  135.44   13.54
   0 -10  13   44.06    5.24
   0 -10  13   37.81    8.02
   1 -10  13  117.22   13.00
   1 -10  13  126.82    9.31
   2 -10  13  175.96   16.51
   2 -10  13  157.51   11.07
   3 -10  13   19.55    3.16
   3 -10  13   32.48    8.02
   4 -10  13   48.42    9.86
   5 -10  13    3.58    5.47
   6 -10  13    9.40    6.08
   7 -10  13   48.39   10.59
   8 -10  13   -3.59    6.03
   9 -10  13   16.10    8.53
 -10  10 -13   86.78    9.59
  10 -10  13   89.89   15.33
 -11  10 -13   16.93    4.70
  11 -10  13   25.76   10.79
  12 -10  13   31.77   11.30
 -12  10 -13   16.93    4.51
 -13  10 -13    8.34    3.68
  13 -10  13    6.08    9.96
  14 -10  13   56.17   15.55
 -14  10 -13   60.20    8.47
 -12  -9  13    7.33    3.44
 -11  -9  13   -0.01    2.41
 -10  -9  13   44.28    7.23
  -9  -9  13    3.46    2.40
  -8  -9  13   13.29    3.67
  -7  -9  13   25.83    5.02
  -6  -9  13  125.30   10.51
  -5  -9  13    0.32    1.76
  -4  -9  13   12.79    3.45
  -3  -9  13   33.74    5.22
  -2  -9  13  323.37   19.09
  -2  -9  13  274.11   21.97
  -1  -9  13   94.93   11.12
  -1  -9  13  110.27    8.59
   0  -9  13   18.80    3.69
   0  -9  13   21.84    6.24
   1  -9  13  131.99   14.22
   1  -9  13  155.95   10.48
   2  -9  13   -0.32    1.23
   2  -9  13   -0.01    4.62
   3  -9  13    2.89    1.52
   3  -9  13    4.07    5.13
   4  -9  13   -1.78    4.50
   5  -9  13   -4.62    4.35
   6  -9  13   64.05   11.32
   7  -9  13   15.72    7.98
   8  -9  13    1.60    6.41
  -9   9 -13   11.21    3.64
   9  -9  13   11.02    8.01
 -10   9 -13   24.06    5.12
  10  -9  13   31.60   10.75
  11  -9  13   -0.55    6.58
 -11   9 -13   13.82    3.52
  12  -9  13    0.17    7.92
 -12   9 -13    1.18    3.13
  13  -9  13    2.05    8.37
 -13   9 -13    5.14    3.60
 -14   9 -13   21.21    4.75
  14  -9  13    5.21   10.59
 -13  -8  13    7.21    3.01
 -12  -8  13    1.68    2.40
 -11  -8  13   -3.69    1.64
 -10  -8  13   15.96    4.11
  -9  -8  13   16.44    4.29
  -8  -8  13   -2.61    1.25
  -7  -8  13   48.12    6.77
  -6  -8  13   37.22    5.97
  -5  -8  13    0.70    1.73
  -4  -8  13   85.93    7.80
  -3  -8  13  185.45   15.33
  -3  -8  13  179.18   12.60
  -2  -8  13   38.95    4.97
  -2  -8  13   38.62    6.94
  -1  -8  13    9.67    2.58
  -1  -8  13    8.47    5.01
   0  -8  13   19.71    3.40
   0  -8  13   15.69    5.78
   1  -8  13   35.11    7.37
   1  -8  13   41.40    4.49
   2  -8  13   15.78    6.03
   3  -8  13   18.73    6.80
   4  -8  13   10.80    5.78
   5  -8  13   15.45    6.64
   6  -8  13    3.86    5.82
   7  -8  13   15.28    7.72
  -8   8 -13   75.37    8.34
   8  -8  13   86.98   13.78
  -9   8 -13    0.68    2.40
   9  -8  13    2.33    6.82
 -10   8 -13    2.35    2.59
  10  -8  13   -4.26    5.88
  11  -8  13   25.18    9.53
 -11   8 -13   20.63    4.70
  12  -8  13    6.63    7.85
 -12   8 -13    2.55    2.75
 -13   8 -13   14.21    3.94
  13  -8  13   16.79   10.13
  14  -8  13    4.90    9.21
 -14  -7  13    4.38    2.91
 -13  -7  13   12.95    4.18
 -12  -7  13    5.79    3.42
 -11  -7  13   24.58    4.94
 -10  -7  13    0.28    1.56
  -9  -7  13    2.37    2.07
  -8  -7  13   88.94    8.60
  -7  -7  13    8.38    2.92
  -6  -7  13  147.31   11.25
  -5  -7  13    7.63    2.63
  -4  -7  13   17.12    3.66
  -4  -7  13   23.60    5.31
  -3  -7  13   43.21    5.16
  -3  -7  13   43.85    6.78
  -2  -7  13   67.59    6.22
  -2  -7  13   83.38    9.10
  -1  -7  13   14.06    2.86
  -1  -7  13    5.00    4.47
   0  -7  13   54.81    5.05
   0  -7  13   67.25    8.88
   1  -7  13   16.64    2.82
   1  -7  13   16.89    5.96
   2  -7  13   63.08    5.28
   2  -7  13  113.60   11.54
   3  -7  13    0.86    4.29
   3  -7  13    2.22    1.19
   4  -7  13   10.34    5.68
   5  -7  13    5.94    5.76
   6  -7  13   36.72    9.21
  -7   7 -13   36.81    5.88
   7  -7  13   58.98   10.88
   8  -7  13   17.19    7.83
  -8   7 -13   20.76    4.27
  -9   7 -13    4.71    2.67
   9  -7  13    8.62    7.00
 -10   7 -13    6.41    2.82
  10  -7  13    2.62    6.71
 -11   7 -13   26.65    4.96
  11  -7  13   13.57    8.07
  12  -7  13    2.58    7.37
 -12   7 -13   10.08    3.63
 -13   7 -13   10.79    3.93
  13  -7  13    9.62    9.03
 -14  -6  13    2.66    2.30
 -13  -6  13    2.97    2.28
 -12  -6  13   11.15    3.62
 -11  -6  13   35.41    6.15
 -10  -6  13   24.71    5.08
  -9  -6  13    3.73    1.92
  -8  -6  13  110.18    9.56
  -7  -6  13   10.56    3.08
  -6  -6  13    2.60    1.87
  -5  -6  13   66.25    7.80
  -5  -6  13   68.31    6.48
  -4  -6  13   90.44    9.22
  -4  -6  13   79.10    7.12
  -3  -6  13    2.08    3.47
  -3  -6  13    3.32    1.71
  -2  -6  13    2.41    3.49
  -2  -6  13    3.95    1.82
  -1  -6  13   43.66    7.38
  -1  -6  13   52.86    4.86
   0  -6  13    8.16    2.01
   0  -6  13    3.77    4.22
   1  -6  13   37.90    4.02
   1  -6  13   46.28    7.66
   2  -6  13   25.82    6.79
   2  -6  13   27.35    3.17
   3  -6  13   18.15    2.44
   3  -6  13   13.45    5.75
   4  -6  13   47.23    8.58
   5  -6  13    9.40    5.69
   6  -6  13   52.63   10.30
  -6   6 -13   58.38    6.68
  -7   6 -13   66.36    7.55
   7  -6  13   77.41   11.94
   8  -6  13    2.98    5.75
  -8   6 -13    5.29    2.70
   9  -6  13   10.24    6.92
  -9   6 -13   -0.02    1.88
  10  -6  13   12.99    7.40
 -10   6 -13   17.22    3.97
  11  -6  13   88.29   14.30
 -11   6 -13   82.71    9.13
  12  -6  13    2.74    7.42
 -12   6 -13    1.92    3.20
 -13   6 -13    0.90    2.68
 -14  -5  13   12.44    3.38
 -13  -5  13   44.56    6.72
 -12  -5  13   14.95    3.77
 -11  -5  13   -0.32    1.87
 -10  -5  13    0.96    1.55
  -9  -5  13   27.83    4.97
  -8  -5  13    6.93    2.56
  -7  -5  13   -0.50    1.37
  -6  -5  13   37.54    5.65
  -6  -5  13   29.94    4.86
  -5  -5  13    0.67    1.30
  -5  -5  13   -1.76    2.63
  -4  -5  13   -1.57    2.52
  -4  -5  13    0.65    1.34
  -3  -5  13   15.49    4.62
  -3  -5  13   26.08    3.86
  -2  -5  13  203.76   16.28
  -2  -5  13  205.26   13.01
  -1  -5  13  132.75    9.28
  -1  -5  13  144.27   12.93
   0  -5  13    2.21    3.58
   0  -5  13   -0.60    0.97
   1  -5  13   23.87    6.06
   2  -5  13   34.75    6.96
   3  -5  13  246.67   20.46
   4  -5  13   24.30    6.99
   5  -5  13  123.76   13.63
  -5   5 -13  109.40    8.70
  -6   5 -13  709.61   35.39
   6  -5  13  707.68   48.60
   7  -5  13   24.38    7.82
  -7   5 -13   12.00    3.30
   8  -5  13    3.20    5.09
  -8   5 -13    4.05    2.57
  -9   5 -13  160.90   11.63
   9  -5  13  159.53   17.96
 -10   5 -13   34.34    5.59
  10  -5  13   27.77    9.49
  11  -5  13    7.09    7.30
 -11   5 -13    3.57    2.40
  12  -5  13   19.23    8.78
 -12   5 -13   17.44    4.25
 -13   5 -13   17.23    4.33
 -14  -4  13   29.77    5.45
 -13  -4  13   10.89    3.42
 -12  -4  13   13.73    3.65
 -11  -4  13    4.19    2.27
 -10  -4  13   18.10    4.00
  -9  -4  13   14.60    3.56
  -8  -4  13    0.27    1.70
  -7  -4  13   -0.99    2.22
  -7  -4  13    2.13    1.41
  -6  -4  13   -2.52    2.00
  -6  -4  13    2.32    1.50
  -5  -4  13   -1.02    2.51
  -5  -4  13    0.46    1.41
  -4  -4  13  105.90    8.26
  -4  -4  13  105.49    9.94
  -3  -4  13   10.38    3.99
  -2  -4  13  468.00   31.53
  -1  -4  13   54.19    7.43
   0  -4  13   10.08    4.50
   1  -4  13  112.76   11.69
   2  -4  13   63.81    9.04
   3  -4  13   17.98    5.83
  -4   4 -13   11.06    2.95
   4  -4  13   11.31    6.01
   5  -4  13  156.80   16.02
  -5   4 -13  170.46   11.18
   6  -4  13  206.81   19.48
  -6   4 -13  227.21   13.75
   7  -4  13   -1.35    4.60
  -7   4 -13    4.49    2.44
   8  -4  13   21.81    6.96
  -8   4 -13   30.76    5.04
   9  -4  13  156.40   17.15
  -9   4 -13  148.23   11.18
 -10   4 -13    8.56    2.93
  10  -4  13    9.40    6.95
  11  -4  13   12.01    7.55
 -11   4 -13   23.81    4.71
 -12   4 -13    1.59    2.62
 -13   4 -13   17.19    4.18
 -14  -3  13   14.64    3.75
 -13  -3  13   36.09    5.89
 -12  -3  13    3.18    2.17
 -11  -3  13   19.37    4.11
 -10  -3  13   20.66    4.17
  -9  -3  13    9.83    2.85
  -8  -3  13    1.23    1.66
  -8  -3  13    2.10    2.51
  -7  -3  13  193.83   14.92
  -7  -3  13  201.17   13.53
  -6  -3  13   19.91    3.77
  -6  -3  13   17.92    4.08
  -5  -3  13    8.07    3.27
  -4  -3  13   17.20    4.22
  -3  -3  13  168.67   13.67
  -2  -3  13   67.78    7.81
  -1  -3  13  138.92   12.40
   0  -3  13  288.94   21.45
   1  -3  13  241.15   18.94
   2  -3  13  192.70   16.62
  -3   3 -13    3.78    2.37
   3  -3  13    6.37    5.01
  -4   3 -13   61.98    6.38
   4  -3  13   60.13    9.15
  -5   3 -13  140.04    9.75
   5  -3  13  134.95   14.39
   6  -3  13  112.02   13.44
  -6   3 -13  116.05    8.82
   7  -3  13   21.09    7.21
  -7   3 -13   21.26    4.30
  -8   3 -13   60.54    7.19
   8  -3  13   63.73   10.54
  -9   3 -13   66.34    7.53
   9  -3  13   63.51   11.28
 -10   3 -13   14.54    4.03
  10  -3  13   15.16    7.18
 -11   3 -13    6.03    3.32
 -12   3 -13   -2.20    2.46
 -14  -2  13   22.15    4.55
 -13  -2  13    1.51    1.88
 -12  -2  13    3.62    2.12
 -11  -2  13   59.27    7.01
 -10  -2  13   33.95    5.17
  -9  -2  13   -0.68    1.13
  -9  -2  13   -1.78    1.96
  -8  -2  13   53.02    6.10
  -8  -2  13   52.11    6.45
  -7  -2  13  154.37   12.46
  -6  -2  13   46.07    6.07
  -5  -2  13   37.20    5.56
  -4  -2  13   40.76    5.76
  -3  -2  13  201.69   15.58
  -2  -2  13   72.87    8.08
  -1  -2  13  128.14   11.47
   0  -2  13  516.46   34.62
   1  -2  13  301.56   22.40
   2  -2  13   62.16    8.73
   3  -2  13    9.74    5.03
  -3   2 -13    5.89    2.45
   4  -2  13   32.40    7.20
  -4   2 -13   35.05    4.80
   5  -2  13   11.68    5.97
  -5   2 -13   10.00    2.88
  -6   2 -13    3.39    2.29
   6  -2  13    7.78    5.53
   7  -2  13   97.29   12.25
  -7   2 -13   83.56    8.20
  -8   2 -13   39.96    5.72
   8  -2  13   40.14    8.67
   9  -2  13   67.50   11.02
  -9   2 -13   40.67    6.15
 -10   2 -13    2.68    2.48
 -11   2 -13    3.26    2.90
 -12   2 -13    2.89    3.04
 -14  -1  13    6.54    2.54
 -13  -1  13   25.62    4.37
 -12  -1  13    1.93    1.60
 -11  -1  13   11.66    2.95
 -10  -1  13    2.55    1.66
 -10  -1  13   -2.08    2.02
  -9  -1  13    8.22    2.90
  -9  -1  13    5.10    2.09
  -8  -1  13   33.21    5.22
  -7  -1  13  108.55    9.68
  -6  -1  13    5.72    2.67
  -5  -1  13   47.62    6.20
  -4  -1  13  127.92   11.02
  -3  -1  13   11.74    3.90
  -2  -1  13   17.38    4.28
  -1  -1  13    6.54    3.36
   0  -1  13  271.35   20.25
   1  -1  13  382.71   27.15
  -2   1 -13    4.11    2.13
   2  -1  13    5.02    3.98
   3  -1  13   87.23   10.44
  -3   1 -13   77.15    6.63
   4  -1  13   24.27    6.64
  -4   1 -13   27.97    4.32
  -5   1 -13   16.51    3.68
   5  -1  13    8.84    5.61
  -6   1 -13   17.40    3.80
   6  -1  13   11.75    5.61
   7  -1  13   25.01    7.04
  -7   1 -13   20.95    4.12
   8  -1  13    1.57    4.86
  -8   1 -13    1.64    1.84
  -9   1 -13    1.70    2.12
 -10   1 -13   19.11    4.44
 -11   1 -13    0.58    2.68
 -12   1 -13    0.75    3.43
 -17   0  13    9.42    2.79
 -14   0  13    5.31    2.50
 -13   0  13   66.33    7.25
 -12   0  13   33.03    5.12
 -11   0  13    6.93    2.13
 -10   0  13   51.55    6.82
 -10   0  13   59.97    5.67
  -9   0  13    9.45    3.43
  -8   0  13  188.46   14.66
  -7   0  13  411.56   27.69
  -6   0  13   15.11    3.95
  -5   0  13   47.96    6.03
  -4   0  13  643.83   41.16
  -3   0  13   63.50    7.19
  -2   0  13  437.92   29.45
  -1   0  13  286.66   20.89
   0   0  13  410.89   28.44
   1   0  13    2.22    3.12
  -1   0 -13    5.78    2.04
  -2   0 -13   12.40    2.84
   2   0  13   14.15    5.03
  -3   0 -13   40.10    5.88
   3   0  13   56.71    8.25
  -3   0 -13   52.87    5.52
  -4   0 -13   11.76    3.53
  -4   0 -13    6.96    2.56
   4   0  13    9.54    5.18
   5   0  13    2.76    4.22
  -5   0 -13    1.26    1.80
  -6   0 -13  106.34    8.30
   6   0  13   99.49   12.08
   7   0  13   30.84    7.20
  -7   0 -13   20.70    4.18
  -8   0 -13    0.70    2.09
  -9   0 -13   -1.37    1.73
 -10   0 -13   16.06    4.36
 -11   0 -13   -0.69    2.44
 -17   1  13   -0.37    1.73
 -14   1  13    8.18    2.54
 -13   1  13   27.27    4.63
 -12   1  13   28.97    4.57
 -11   1  13   75.86    8.41
 -11   1  13   77.08    6.86
 -10   1  13    1.10    1.73
 -10   1  13    1.30    2.38
  -9   1  13  232.10   14.32
  -9   1  13  209.08   16.69
  -8   1  13  149.98   10.41
  -8   1  13  144.91   12.29
  -7   1  13  222.59   16.71
  -6   1  13    0.77    2.06
  -5   1  13  159.49   12.90
  -4   1  13  178.96   13.85
  -3   1  13   55.57    6.91
  -2   1  13  406.39   27.68
  -1   1  13 1525.26   92.69
   0   1  13  326.20   23.55
  -1  -1 -13   15.64    4.19
   1   1  13   21.36    5.20
  -1  -1 -13   22.98    3.62
  -2  -1 -13   78.58    7.90
  -2  -1 -13   72.10    6.10
   2   1  13   78.54    9.59
  -3  -1 -13    2.88    2.69
  -3  -1 -13    0.12    1.67
   3   1  13    2.49    3.78
  -4  -1 -13    1.36    1.77
  -4  -1 -13   -0.06    2.19
   4   1  13    0.21    3.60
   5   1  13    4.28    3.95
  -5  -1 -13    1.85    1.90
   6   1  13    4.20    4.16
  -6  -1 -13   -0.36    1.72
  -7  -1 -13   19.29    4.09
  -8  -1 -13    3.09    2.42
  -9  -1 -13   37.15    5.88
 -10  -1 -13   26.00    5.34
 -11  -1 -13    0.62    2.95
 -18   2  13   22.19    3.69
 -17   2  13    1.48    1.81
 -14   2  13   12.02    3.01
 -13   2  13   56.56    6.23
 -12   2  13   36.02    5.87
 -12   2  13   29.20    4.73
 -11   2  13   20.56    4.70
 -11   2  13   22.46    4.01
 -10   2  13    4.64    2.19
 -10   2  13   10.93    3.92
  -9   2  13  178.61   12.76
  -9   2  13  204.34   15.55
  -8   2  13  127.79   11.17
  -8   2  13  114.17    9.07
  -7   2  13   11.21    3.62
  -7   2  13   12.74    3.23
  -6   2  13   23.06    4.77
  -5   2  13   -0.50    1.80
  -4   2  13   22.42    4.56
  -3   2  13  208.39   15.94
  -2   2  13 1496.69   90.85
  -1   2  13  514.49   34.57
   1  -2 -13  530.62   31.12
   0  -2 -13   42.93    6.09
   0  -2 -13   36.66    4.32
   0   2  13   47.48    6.75
  -1  -2 -13   24.34    4.86
   1   2  13   27.92    5.84
  -1  -2 -13   27.93    3.81
  -2  -2 -13    8.83    3.57
   2   2  13   14.43    4.84
  -2  -2 -13   15.39    3.14
   3   2  13    8.63    4.51
  -3  -2 -13    7.16    3.12
  -3  -2 -13    4.47    2.14
  -4  -2 -13    9.70    3.81
   4   2  13    8.62    5.21
  -4  -2 -13   10.79    2.81
  -5  -2 -13    2.08    1.87
   5   2  13    0.51    3.82
  -6  -2 -13   21.26    4.13
  -7  -2 -13   -0.73    1.77
  -8  -2 -13    6.20    3.01
  -9  -2 -13  135.70   10.79
 -10  -2 -13   18.81    4.86
 -11  -2 -13    2.73    3.81
 -18   3  13   27.55    4.05
 -17   3  13    2.71    1.97
 -16   3  13   11.04    2.49
 -14   3  13   40.76    5.05
 -13   3  13    1.10    2.40
 -13   3  13    1.86    1.96
 -12   3  13   12.13    3.81
 -12   3  13   10.02    2.99
 -11   3  13   44.38    5.78
 -11   3  13   46.70    6.98
 -10   3  13  264.57   19.68
 -10   3  13  254.69   16.57
  -9   3  13    7.77    2.65
  -9   3  13    8.74    3.58
  -8   3  13   28.21    5.43
  -8   3  13   25.19    4.35
  -7   3  13   49.76    6.91
  -7   3  13   59.66    6.24
  -6   3  13  122.65   11.06
  -6   3  13  130.12    9.42
  -5   3  13   68.14    7.58
  -4   3  13   -2.41    1.63
  -3   3  13    4.48    2.64
  -2   3  13    9.54    3.63
   2  -3 -13    7.73    3.34
  -1   3  13  139.52   12.43
   1  -3 -13  143.07   11.65
   0  -3 -13   44.73    4.63
   0  -3 -13   43.52    6.23
   0   3  13   43.49    6.66
   1   3  13    2.02    3.08
  -1  -3 -13    4.10    2.95
  -1  -3 -13    2.42    1.59
   2   3  13   12.46    4.59
  -2  -3 -13   13.30    4.30
  -2  -3 -13   11.76    3.05
   3   3  13   97.41   11.34
  -3  -3 -13  104.56    9.60
  -3  -3 -13  115.76    8.10
  -4  -3 -13    0.84    1.77
  -4  -3 -13    6.02    3.29
   4   3  13   -1.37    3.77
  -5  -3 -13    2.55    2.01
  -6  -3 -13   30.50    4.87
  -7  -3 -13    2.98    2.23
  -8  -3 -13   14.54    3.68
  -9  -3 -13   33.55    5.95
 -10  -3 -13   -0.66    2.92
 -16   4  13    1.20    1.51
  14  -4 -13   43.15    9.13
 -10   4  13  123.01    9.75
 -10   4  13  119.26   11.43
  -9   4  13   12.55    4.21
  -9   4  13   15.51    3.72
  -8   4  13  134.79   12.03
  -8   4  13  134.04   10.19
  -7   4  13  114.17   10.53
  -7   4  13   98.46    8.50
  -6   4  13  255.15   15.93
  -6   4  13  246.54   18.77
  -5   4  13  135.01   11.78
   4  -4 -13   11.96    4.30
  -4   4  13    8.73    3.39
  -3   4  13   25.75    5.00
   3  -4 -13   25.50    5.20
   2  -4 -13  103.28   10.10
  -2   4  13  127.93   11.00
  -1   4  13   65.04    8.20
   1  -4 -13   77.16    8.31
   0  -4 -13   16.16    4.30
   0  -4 -13   18.39    3.00
   0   4  13   16.54    4.52
  -1  -4 -13   25.92    3.67
  -1  -4 -13   16.89    4.59
   1   4  13   17.19    4.98
   2   4  13   47.98    7.43
  -2  -4 -13   40.86    6.26
  -2  -4 -13   40.90    4.91
  -3  -4 -13   53.10    7.13
  -3  -4 -13   65.79    6.30
   3   4  13   67.93    9.04
  -4  -4 -13   99.02    7.68
   4   4  13   96.42   10.98
  -4  -4 -13   85.24    8.72
  -5  -4 -13   83.70    7.77
  -6  -4 -13    7.89    2.91
  -7  -4 -13   52.72    6.94
  -8  -4 -13   17.58    4.16
  -9  -4 -13   16.17    4.04
 -10  -4 -13    3.85    4.10
  15  -5 -13   13.63    7.25
  14  -5 -13  182.37   18.26
  13  -5 -13    3.85    5.21
  12  -5 -13   36.42    8.37
  11  -5 -13  195.61   18.49
  -9   5  13  146.34   13.36
  -9   5  13  152.16   11.29
  -8   5  13  108.32   10.83
  -8   5  13  116.48    9.37
  -7   5  13   60.89    6.73
  -7   5  13   65.80    8.07
  -6   5  13   28.82    4.70
  -6   5  13   37.93    6.02
  -5   5  13  114.31    8.94
  -5   5  13  113.27   10.60
   5  -5 -13  114.12   11.01
  -4   5  13  163.21   13.94
   4  -5 -13  183.82   13.92
   3  -5 -13    4.55    3.36
  -3   5  13    8.74    3.35
  -2   5  13   -2.33    1.80
   2  -5 -13    2.18    2.56
  -1   5  13   -0.78    2.09
   1  -5 -13   -2.10    1.89
   1  -5 -13    0.92    1.44
   0  -5 -13   16.50    4.61
   0   5  13   13.52    4.49
   1   5  13    0.53    2.84
  -1  -5 -13   -2.70    1.33
  -1  -5 -13   -1.73    2.26
  -2  -5 -13    1.71    2.55
  -2  -5 -13    2.08    1.72
   2   5  13   11.48    4.68
  -3  -5 -13   33.46    5.94
   3   5  13   37.50    7.09
  -3  -5 -13   44.11    5.22
  -4  -5 -13  112.89   10.47
  -4  -5 -13  124.80    8.88
  -5  -5 -13    0.48    2.02
  -6  -5 -13    5.34    2.44
  -7  -5 -13   56.65    7.07
  -8  -5 -13   28.67    5.57
  -9  -5 -13    3.45    3.53
  16  -6 -13   22.31    7.99
  15  -6 -13   38.21    9.60
  14  -6 -13   35.59    9.08
  13  -6 -13   40.13    9.45
  12  -6 -13   44.08    9.45
  11  -6 -13   46.23    9.59
  10  -6 -13   11.08    6.37
  -9   6  13    6.17    2.67
  -9   6  13    9.01    3.63
  -8   6  13    1.47    2.58
  -8   6  13    5.87    2.59
  -7   6  13   75.54    9.07
  -7   6  13   81.68    7.51
  -6   6  13   -0.90    1.57
  -6   6  13    0.64    2.18
   6  -6 -13    0.51    3.00
  -5   6  13    1.05    1.90
   5  -6 -13    2.68    2.87
  -5   6  13    0.57    1.87
  -4   6  13    7.25    3.15
   4  -6 -13    4.45    2.92
   3  -6 -13    2.60    2.53
  -3   6  13    0.77    2.33
   2  -6 -13   -2.14    2.26
  -2   6  13    1.14    2.33
   1  -6 -13   70.87    5.46
   1  -6 -13   77.34    8.76
  -1   6  13   72.69    8.70
   0  -6 -13   53.00    7.31
   0  -6 -13   43.42    4.55
   0   6  13   40.23    6.84
  -1  -6 -13    5.29    1.87
  -1  -6 -13    4.28    3.13
   1   6  13    9.62    4.23
  -2  -6 -13    3.47    2.78
  -2  -6 -13    4.76    1.97
   2   6  13    0.93    3.29
  -3  -6 -13   18.60    4.61
  -3  -6 -13   27.27    4.24
  -4  -6 -13   14.21    3.38
  -4  -6 -13    9.80    3.83
  -5  -6 -13    4.76    2.33
  -6  -6 -13   16.48    3.86
  -7  -6 -13   56.24    7.12
  -8  -6 -13   12.38    3.95
  -9  -6 -13   45.85    8.08
  17  -7 -13    8.90    6.65
  16  -7 -13   49.18   10.96
  15  -7 -13   42.49   10.58
  14  -7 -13    5.21    5.97
  13  -7 -13    0.33    4.91
  12  -7 -13   39.50    9.43
  11  -7 -13   -0.60    4.78
  10  -7 -13    5.93    5.96
  -8   7  13   27.86    6.10
  -8   7  13   20.61    4.67
  -7   7  13   26.28    5.70
   7  -7 -13   20.43    5.83
  -7   7  13   20.25    4.41
  -6   7  13    4.21    2.71
   6  -7 -13   12.93    4.84
  -6   7  13    3.52    2.27
   5  -7 -13   96.36    9.94
  -5   7  13   71.67    8.31
  -5   7  13   69.24    6.83
  -4   7  13    4.46    3.11
   4  -7 -13   10.09    4.24
   3  -7 -13    0.74    2.59
  -3   7  13    1.88    2.43
   2  -7 -13   85.39    9.53
  -2   7  13   75.85    8.30
   1  -7 -13  165.95   13.54
  -1   7  13  156.24   13.70
   0  -7 -13    9.16    3.84
   0   7  13   10.96    4.23
  -1  -7 -13    0.24    2.31
   1   7  13    0.50    2.98
  -2  -7 -13    6.05    3.17
  -3  -7 -13    0.58    2.63
  -4  -7 -13   12.98    4.44
  17  -8 -13    9.12    7.19
  16  -8 -13   32.82   10.01
  15  -8 -13   -1.38    5.07
  14  -8 -13    2.44    5.66
  13  -8 -13   14.19    7.49
  12  -8 -13   -2.00    5.09
  11  -8 -13   -3.01    4.79
  10  -8 -13    7.05    6.36
  -8   8  13   19.28    4.51
  -8   8  13   24.53    6.12
   8  -8 -13   22.55    6.00
   7  -8 -13  108.46   11.41
  -7   8  13  105.76   10.89
  -7   8  13  103.20    9.12
  -6   8  13  137.37   12.73
  -6   8  13  138.21   10.87
   6  -8 -13  147.64   12.99
  -5   8  13   15.84    4.46
   5  -8 -13   19.49    5.37
  -5   8  13   27.50    4.59
  -4   8  13    9.98    3.70
   4  -8 -13   21.91    5.52
   3  -8 -13   49.46    7.52
  -3   8  13   49.21    7.04
   2  -8 -13   50.95    7.89
  -2   8  13   49.49    7.11
  -1   8  13   22.96    5.42
   1  -8 -13   28.61    5.97
   0  -8 -13   -4.19    1.90
   0   8  13   -1.62    2.65
  -1  -8 -13   29.42    6.36
  -2  -8 -13   28.67    6.51
  -3  -8 -13   25.47    6.09
  -4  -8 -13   21.97    5.40
  18  -9 -13    2.17    7.23
  17  -9 -13    3.50    7.32
  16  -9 -13    3.46    6.39
  15  -9 -13    4.00    5.97
  14  -9 -13    6.58    6.59
  13  -9 -13   20.89    8.42
  12  -9 -13   10.85    7.59
  11  -9 -13    5.20    6.36
  10  -9 -13   -0.58    5.53
   9  -9 -13   13.02    5.59
   9  -9 -13   26.26    8.46
  -8   9  13    0.74    2.46
   8  -9 -13   -1.64    2.91
  -8   9  13    5.65    2.73
  -7   9  13   -0.93    2.16
  -7   9  13   -1.01    1.88
   7  -9 -13   -0.57    3.15
   6  -9 -13  100.87   11.25
  -6   9  13   97.96   10.35
  -6   9  13  108.60    9.15
   5  -9 -13   51.52    8.17
  -5   9  13   61.75    6.73
  -5   9  13   54.64    7.59
   4  -9 -13   -2.45    2.23
  -4   9  13    5.58    2.99
   3  -9 -13   59.70    8.63
  -3   9  13   55.97    7.61
   2  -9 -13   54.13    8.01
  -2   9  13   45.33    6.94
  -1   9  13    9.27    3.69
   1  -9 -13    5.30    3.37
   0  -9 -13   21.30    5.62
  -1  -9 -13   21.66    5.42
  -2  -9 -13   36.58    7.32
  -3  -9 -13   10.70    4.32
  -4  -9 -13   29.02    6.85
  19 -10 -13    0.77    8.85
  18 -10 -13    8.37    7.85
  17 -10 -13    0.40    7.01
  16 -10 -13   43.09   11.89
  15 -10 -13   -9.92    5.30
  14 -10 -13   -2.58    5.56
  13 -10 -13   30.66   10.44
  12 -10 -13   39.40   11.07
  11 -10 -13   73.21   13.20
  10 -10 -13    5.57    5.94
   9 -10 -13    9.48    5.79
   9 -10 -13   13.50    5.20
  -8  10  13   26.74    6.51
  -8  10  13   32.89    5.70
   8 -10 -13   26.76    6.61
   7 -10 -13  137.83   12.96
  -7  10  13  128.43   10.70
  -7  10  13  125.84   12.54
   6 -10 -13   24.91    6.45
  -6  10  13   18.79    4.29
  -6  10  13   15.27    4.81
  -5  10  13    0.17    1.68
   5 -10 -13    1.51    3.47
  -5  10  13    1.75    2.49
  -4  10  13   14.94    4.40
   4 -10 -13   18.02    5.26
  -3  10  13   17.15    4.72
   3 -10 -13   11.03    4.22
   2 -10 -13   11.26    4.23
  -2  10  13    9.43    3.83
   1 -10 -13   -0.11    3.11
   0 -10 -13    2.67    2.52
  -1 -10 -13   10.00    3.85
  -2 -10 -13    0.20    2.60
  -3 -10 -13   17.51    5.76
  -4 -10 -13   33.51    7.28
  18 -11 -13   -0.71    8.06
  17 -11 -13    4.97    7.72
  16 -11 -13    5.92    6.97
  15 -11 -13   19.90    9.10
  14 -11 -13   19.16    8.99
  13 -11 -13    4.65    7.02
  12 -11 -13   25.83   10.22
  11 -11 -13   98.61   15.01
  10 -11 -13   17.24    6.13
  10 -11 -13   28.54    8.94
   9 -11 -13   94.56   11.42
  -8  11  13  182.91   16.59
   8 -11 -13  176.93   15.85
  -8  11  13  192.10   14.14
   7 -11 -13  151.57   13.78
  -7  11  13  156.93   11.61
  -7  11  13  116.64   12.69
   6 -11 -13   -0.44    3.25
  -6  11  13    0.73    2.20
  -6  11  13   -1.48    1.73
  -5  11  13    4.72    2.36
   5 -11 -13   -1.45    2.85
  -5  11  13    2.23    2.44
  -4  11  13    7.42    3.38
   4 -11 -13    9.00    4.14
  -3  11  13    2.41    3.16
   3 -11 -13    2.32    2.91
   2 -11 -13    5.75    4.05
   1 -11 -13    5.93    3.43
   0 -11 -13    2.00    3.26
  -1 -11 -13   -0.27    2.51
  -2 -11 -13   -4.11    2.43
  -3 -11 -13    4.87    3.09
  -4 -11 -13   -1.59    2.82
  18 -12 -13   19.16   11.69
  17 -12 -13    5.43    6.03
  16 -12 -13    1.23    7.17
  15 -12 -13   20.43    8.74
  14 -12 -13    5.57    6.42
  13 -12 -13   92.35   15.99
  12 -12 -13  179.62   20.32
  11 -12 -13   -3.13    5.09
  11 -12 -13   11.02    4.83
  10 -12 -13   24.59    8.39
  10 -12 -13   17.20    5.48
   9 -12 -13   51.97    9.04
  -8  12  13  162.74   14.96
   8 -12 -13  163.98   14.91
  -8  12  13  135.14   11.83
  -7  12  13    2.17    2.73
  -7  12  13    0.82    1.91
   7 -12 -13    0.96    2.97
   6 -12 -13   11.15    4.83
  -6  12  13   18.69    4.92
  -6  12  13   18.36    4.18
  -5  12  13    0.39    2.39
   5 -12 -13    9.47    4.41
  -5  12  13    3.19    2.26
   4 -12 -13    2.94    3.08
  -4  12  13    4.80    3.52
   3 -12 -13   -4.72    1.63
   2 -12 -13   -0.88    2.49
   1 -12 -13   10.83    4.29
   0 -12 -13   -0.95    2.89
  -1 -12 -13    2.40    2.76
  -2 -12 -13   12.80    4.61
  -3 -12 -13    6.62    3.18
  17 -13 -13    3.12    5.89
  16 -13 -13   -1.29    5.29
  15 -13 -13   -2.74    8.12
  14 -13 -13   54.00   13.51
  13 -13 -13  129.99   18.64
  12 -13 -13   18.29    8.82
  11 -13 -13   -1.38    3.11
  11 -13 -13    1.54    5.46
  10 -13 -13   23.86    8.65
  10 -13 -13   22.77    6.44
  -9  13  13  152.23   15.14
   9 -13 -13  152.67   14.87
  -8  13  13   14.85    4.87
   8 -13 -13    4.82    4.11
  -8  13  13   16.91    4.36
   7 -13 -13   20.45    6.27
  -7  13  13    7.98    3.20
  -7  13  13    8.94    4.12
  -6  13  13   31.67    5.50
  -6  13  13   31.59    6.34
   6 -13 -13   43.96    8.38
   5 -13 -13   23.79    6.80
  -5  13  13   31.32    4.89
  -5  13  13   15.37    4.16
   4 -13 -13    2.68    2.67
   3 -13 -13    0.27    2.56
   2 -13 -13    3.31    3.41
   1 -13 -13    3.32    3.24
   0 -13 -13   -0.97    2.70
  -1 -13 -13   10.46    4.45
  -2 -13 -13    5.53    3.85
  16 -14 -13    5.18    6.58
  15 -14 -13    1.36    5.33
  14 -14 -13   99.00   16.89
  13 -14 -13   63.45   13.77
  12 -14 -13   20.22    8.21
  12 -14 -13    6.55    4.08
  11 -14 -13    4.09    3.74
  11 -14 -13    3.23    5.79
  10 -14 -13   10.31    5.48
  10 -14 -13   21.39    8.76
  -9  14  13   39.30    8.26
   9 -14 -13   50.71    9.05
  -9  14  13   58.23    7.91
  -8  14  13   -2.06    2.84
  -8  14  13    1.38    2.20
   8 -14 -13   -1.80    3.20
  -7  14  13    3.46    2.59
   7 -14 -13   11.48    5.36
  -7  14  13    4.17    3.50
   6 -14 -13    6.77    4.46
  -6  14  13   -1.48    2.19
  -6  14  13    0.69    1.91
   5 -14 -13   -2.68    3.25
   4 -14 -13   19.80    5.87
   3 -14 -13    8.44    4.39
   2 -14 -13    2.13    3.44
   1 -14 -13   10.88    5.34
   0 -14 -13    6.47    3.58
  15 -15 -13   11.52    7.87
  14 -15 -13   16.32    8.85
  13 -15 -13    8.58    7.06
  12 -15 -13   31.56    9.82
  12 -15 -13   19.26    6.52
  11 -15 -13   23.75    6.98
  11 -15 -13   22.47    8.00
  10 -15 -13   20.89    6.60
   9 -15 -13    4.59    4.29
  -9  15  13    1.43    3.40
  -9  15  13    5.97    3.00
  -8  15  13    1.25    3.32
  -8  15  13    4.61    2.45
   8 -15 -13   -3.77    4.96
  -7  15  13    4.08    2.36
   7 -15 -13   -5.58    2.65
  -7  15  13    0.72    2.43
   6 -15 -13    5.83    4.75
   5 -15 -13    0.28    3.97
   4 -15 -13    2.62    3.07
   3 -15 -13   -1.47    2.67
   2 -15 -13    8.93    4.58
  14 -16 -13   30.39    9.96
  13 -16 -13    7.06    6.98
  13 -16 -13    5.21    4.80
  12 -16 -13    5.83    6.73
  12 -16 -13    1.88    4.09
  11 -16 -13    0.88    5.14
  11 -16 -13   -5.22    3.02
 -10  16  13    0.30    2.75
 -10  16  13    0.01    3.78
  10 -16 -13    2.80    3.87
  -9  16  13    7.31    4.28
  -9  16  13    8.24    3.38
   9 -16 -13    7.87    5.33
   8 -16 -13   -2.11    3.64
  -8  16  13    1.69    3.46
  -8  16  13    6.58    2.84
   7 -16 -13   -4.38    2.60
   6 -16 -13    3.19    3.84
   5 -16 -13   -1.66    3.23
  13 -17 -13    8.33    5.62
  12 -17 -13    9.76    6.93
  12 -17 -13    0.58    4.24
  11 -17 -13   20.90    7.53
 -10  17  13   20.60    6.65
  10 -17 -13   18.97    7.39
 -10  17  13   21.18    5.12
  -9  17  13    0.57    3.66
   9 -17 -13    1.33    3.91
  -9  17  13    7.56    3.25
   8 -17 -13   -2.00    3.12
   7 -17 -13    0.35    3.78
 -11  18  13   10.02    5.99
 -11  18  13   10.04    5.48
 -10  18  13    2.29    4.76
 -10  18  13    1.92    3.91
   1 -19  14   -3.27    3.49
   7 -19  14   21.30    8.77
   8 -19  14    2.06    6.45
  -1 -18  14   -0.08    3.81
   0 -18  14    0.20    3.69
   1 -18  14    2.01    3.23
   2 -18  14    2.91    3.09
   6 -18  14   25.59    9.76
   7 -18  14   16.52    7.95
   8 -18  14   25.88    9.95
   9 -18  14   27.50    9.83
  -2 -17  14    0.82    3.35
  -1 -17  14    1.52    2.84
   0 -17  14   16.14    4.80
   1 -17  14    0.80    2.47
   2 -17  14    2.29    2.53
   5 -17  14   59.82   12.48
   6 -17  14   13.27    7.86
   7 -17  14   27.29    9.47
   8 -17  14   60.59   13.22
   9 -17  14   41.35   12.35
  10 -17  14  -13.33    4.95
  -4 -16  14   -1.76    3.14
  -3 -16  14   -0.13    2.60
  -2 -16  14    2.69    2.93
  -1 -16  14   27.06    5.79
   0 -16  14   12.36    4.23
   1 -16  14   16.47    4.35
   2 -16  14    1.20    2.27
   4 -16  14  100.03   14.33
   5 -16  14   90.30   14.11
   6 -16  14    2.95    5.13
   7 -16  14   30.62    9.64
   8 -16  14   35.33   10.28
   9 -16  14    4.44    7.40
  10 -16  14   37.80   11.84
  11 -16  14   63.38   14.53
  -5 -15  14    4.56    3.44
  -4 -15  14    0.63    2.81
  -3 -15  14   -0.26    2.72
  -2 -15  14    8.49    3.53
  -1 -15  14    3.02    2.92
   0 -15  14   12.32    4.04
   1 -15  14    2.84    2.40
   2 -15  14    6.81    2.87
   3 -15  14   10.94    6.09
   4 -15  14   73.42   12.26
   5 -15  14   47.07   10.70
   6 -15  14   28.97    9.12
   7 -15  14   76.58   13.96
   8 -15  14   46.61   11.84
   9 -15  14   13.29    7.50
  10 -15  14   91.35   15.94
  11 -15  14   75.22   15.53
  -6 -14  14   -3.66    2.40
  -5 -14  14   -0.73    2.93
  -4 -14  14    1.04    2.74
  -3 -14  14   -0.81    2.21
  -2 -14  14   13.65    4.25
  -1 -14  14   78.67    8.81
   0 -14  14  129.86   11.07
   1 -14  14    6.53    2.99
   2 -14  14    0.02    1.92
   2 -14  14   -6.31    3.74
   3 -14  14   34.47    9.18
   4 -14  14   55.08   11.24
   5 -14  14    0.53    5.73
   6 -14  14  141.78   17.91
   7 -14  14   44.81   11.08
   8 -14  14   16.59    8.34
   9 -14  14   17.24    7.80
  10 -14  14   28.98   10.03
  11 -14  14   31.14   10.59
  12 -14  14    2.15    7.01
  -8 -13  14    9.08    3.63
  -7 -13  14    2.32    3.03
  -6 -13  14   -2.05    2.87
  -5 -13  14   14.12    4.36
  -4 -13  14    4.20    2.83
  -3 -13  14   40.06    6.45
  -2 -13  14   47.41    6.80
  -1 -13  14   40.01    6.09
   0 -13  14    2.96    2.26
   1 -13  14    3.20    4.40
   1 -13  14    3.60    2.46
   2 -13  14  185.98   13.07
   2 -13  14  161.03   16.99
   3 -13  14   61.11   10.78
   4 -13  14    6.88    6.59
   5 -13  14   13.53    7.22
   6 -13  14  143.73   17.56
   7 -13  14   48.84   11.36
   8 -13  14   11.90    6.43
   9 -13  14   42.65   11.65
  10 -13  14    8.49    6.35
  11 -13  14    1.75    8.36
  12 -13  14    5.00    6.75
  -9 -12  14   -0.19    2.45
  -8 -12  14   -0.56    2.31
  -7 -12  14    1.92    2.92
  -6 -12  14   13.55    4.38
  -5 -12  14   62.98    8.21
  -4 -12  14    6.44    2.79
  -3 -12  14    4.13    2.39
  -2 -12  14   48.50    6.57
  -1 -12  14    6.19    3.03
   0 -12  14   16.78    3.66
   0 -12  14   18.34    5.99
   1 -12  14   49.41    8.90
   1 -12  14   54.08    6.23
   2 -12  14   46.66    5.61
   2 -12  14   33.75    8.50
   3 -12  14    3.28    2.08
   3 -12  14   -0.97    4.34
   4 -12  14   13.25    6.72
   5 -12  14   -1.04    4.94
   6 -12  14   -4.46    4.27
   7 -12  14   -0.04    5.28
   8 -12  14   -3.50    5.01
   9 -12  14   -3.71    5.15
  10 -12  14    7.46    7.71
  11 -12  14    6.36    9.22
  12 -12  14    0.18    5.83
  13 -12  14    1.90    7.06
 -10 -11  14   64.90    9.22
  -9 -11  14    2.85    2.74
  -8 -11  14   20.69    4.87
  -7 -11  14   65.62    8.40
  -6 -11  14   72.85    8.82
  -5 -11  14    7.76    3.23
  -4 -11  14   45.19    6.57
  -3 -11  14   29.61    5.21
  -2 -11  14    6.31    2.40
  -1 -11  14   22.56    4.41
  -1 -11  14   23.76    6.33
   0 -11  14    2.69    4.76
   0 -11  14    4.27    2.18
   1 -11  14    6.75    2.44
   1 -11  14   12.13    5.75
   2 -11  14   16.34    3.43
   2 -11  14    3.66    5.29
   3 -11  14   15.43    6.86
   4 -11  14   -1.09    4.71
   5 -11  14   20.53    7.76
   6 -11  14   40.02   10.02
   7 -11  14  149.74   18.24
   8 -11  14   -0.71    5.13
   9 -11  14   12.37    8.00
  10 -11  14    4.52    7.39
  11 -11  14   16.00    9.38
  12 -11  14    4.04    9.03
  13 -11  14   -2.98    6.50
 -13  11 -14   -0.93    3.35
 -11 -10  14   18.07    4.98
 -10 -10  14   37.02    6.95
  -9 -10  14   -0.38    2.02
  -8 -10  14    6.50    2.99
  -7 -10  14   65.24    8.14
  -6 -10  14  177.07   13.67
  -5 -10  14   28.18    5.24
  -4 -10  14    8.11    2.86
  -3 -10  14    2.03    1.77
  -2 -10  14   75.44    7.13
  -1 -10  14    4.44    1.88
  -1 -10  14   -1.04    4.39
   0 -10  14  109.18   12.61
   0 -10  14  112.42    8.81
   1 -10  14    2.66    5.11
   1 -10  14    2.86    1.65
   2 -10  14    0.75    1.40
   2 -10  14    3.85    5.27
   3 -10  14   21.12    3.20
   3 -10  14    8.61    5.88
   4 -10  14  132.24   15.53
   5 -10  14   73.49   12.16
   6 -10  14   23.15    8.28
   7 -10  14    3.56    5.50
   8 -10  14   -2.24    6.14
   9 -10  14    7.05    7.88
  10 -10  14    0.86    6.36
  11 -10  14   29.87   11.10
 -11  10 -14   15.63    4.44
 -12  10 -14   -2.00    2.72
  12 -10  14   -3.73    6.82
  13 -10  14    1.57    9.16
 -13  10 -14    0.59    2.99
  14 -10  14   -4.74    9.44
 -12  -9  14   10.97    3.84
 -11  -9  14   33.60    6.34
 -10  -9  14   49.37    7.55
  -9  -9  14   11.96    3.50
  -8  -9  14    6.45    3.05
  -7  -9  14   59.99    7.61
  -6  -9  14  145.06   11.85
  -5  -9  14   -0.96    1.70
  -4  -9  14   42.03    5.93
  -3  -9  14  142.69   11.03
  -2  -9  14   13.03    5.40
  -2  -9  14   19.10    3.95
  -1  -9  14  163.23   11.79
  -1  -9  14  170.97   15.38
   0  -9  14   66.85   10.15
   0  -9  14   74.70    6.70
   1  -9  14   10.08    5.84
   1  -9  14    7.07    2.36
   2  -9  14    8.80    2.28
   2  -9  14    9.19    5.72
   3  -9  14    9.90    5.94
   3  -9  14    6.40    2.12
   4  -9  14    7.02    5.71
   5  -9  14   20.73    7.73
   6  -9  14    5.50    5.45
   7  -9  14   16.78    8.00
   8  -9  14   25.93    9.25
   9  -9  14   22.24    9.88
  -9   9 -14   33.68    5.89
 -10   9 -14   30.61    5.39
  10  -9  14   20.89    9.44
  11  -9  14   68.33   14.04
 -11   9 -14   63.01    8.25
 -12   9 -14   10.70    3.57
  12  -9  14   11.59    9.90
  13  -9  14    2.24    8.01
 -13   9 -14   -5.39    2.58
  14  -9  14   16.67   11.51
 -13  -8  14    3.97    2.87
 -12  -8  14    2.29    2.11
 -11  -8  14   32.34    6.31
 -10  -8  14    2.81    2.58
  -9  -8  14    1.78    1.75
  -8  -8  14   68.21    8.36
  -7  -8  14   19.51    4.43
  -6  -8  14   47.19    6.57
  -5  -8  14    8.64    2.91
  -4  -8  14    4.06    2.08
  -3  -8  14  209.36   14.09
  -3  -8  14  209.96   17.11
  -2  -8  14   16.56    5.81
  -2  -8  14   32.59    4.55
  -1  -8  14   45.69    5.09
  -1  -8  14   30.80    7.09
   0  -8  14   85.79   10.67
   0  -8  14   74.82    6.51
   1  -8  14   76.71   10.23
   1  -8  14   70.40    6.04
   2  -8  14   80.64   10.91
   3  -8  14   -1.31    4.54
   3  -8  14    2.83    1.29
   4  -8  14   15.02    6.75
   5  -8  14   47.48    9.91
   6  -8  14    7.26    6.42
   7  -8  14  162.47   18.24
  -8   8 -14    5.50    3.01
   8  -8  14   -0.99    5.75
  -9   8 -14   -1.03    2.26
   9  -8  14    0.26    6.51
  10  -8  14    8.76    7.27
 -10   8 -14   11.37    3.48
  11  -8  14   53.54   13.15
 -11   8 -14   35.62    6.03
  12  -8  14    2.43    7.52
 -12   8 -14   -1.32    2.80
  13  -8  14    8.62    9.73
 -13   8 -14   21.18    4.84
  14  -8  14   -5.65    9.34
 -14  -7  14   13.08    3.56
 -13  -7  14    4.30    2.74
 -12  -7  14   28.92    5.83
 -11  -7  14    2.21    2.46
 -10  -7  14    7.43    2.77
  -9  -7  14   13.56    3.81
  -8  -7  14    3.34    2.45
  -7  -7  14  106.43    9.34
  -6  -7  14   17.97    3.95
  -5  -7  14   30.64    4.97
  -4  -7  14   53.82    7.48
  -4  -7  14   45.82    5.75
  -3  -7  14   11.45    5.15
  -3  -7  14    6.23    2.12
  -2  -7  14   11.21    2.76
  -2  -7  14   10.37    4.94
  -1  -7  14    6.73    2.07
  -1  -7  14    6.84    4.51
   0  -7  14   40.68    8.09
   0  -7  14   49.83    4.75
   1  -7  14  170.33   10.85
   1  -7  14  155.19   15.49
   2  -7  14   51.20    4.67
   2  -7  14   68.75    9.83
   3  -7  14    1.50    1.00
   3  -7  14   -3.30    3.85
   4  -7  14   55.00    9.65
   5  -7  14  191.97   18.80
   6  -7  14  158.90   17.26
  -7   7 -14   43.28    6.49
   7  -7  14   60.62   11.17
  -8   7 -14    5.10    2.73
   8  -7  14   -6.39    4.98
  -9   7 -14   -0.53    2.52
   9  -7  14    5.49    6.59
  10  -7  14    3.45    6.38
 -10   7 -14    1.22    2.31
 -11   7 -14   14.06    3.80
  11  -7  14    0.74    6.74
 -12   7 -14    8.21    3.54
  12  -7  14    9.27    8.27
 -13   7 -14   35.25    6.06
  13  -7  14   34.88   11.73
 -14  -6  14   30.40    5.68
 -13  -6  14   73.31    9.16
 -12  -6  14   -2.77    1.75
 -11  -6  14   11.35    3.57
 -10  -6  14    7.68    2.57
  -9  -6  14    4.28    2.30
  -8  -6  14   86.37    8.27
  -7  -6  14   30.58    4.99
  -6  -6  14    1.93    1.93
  -5  -6  14   15.86    3.40
  -5  -6  14   14.67    4.77
  -4  -6  14   61.64    6.17
  -4  -6  14   69.96    8.24
  -3  -6  14  103.42    8.42
  -3  -6  14  119.98   11.62
  -2  -6  14  199.23   17.07
  -2  -6  14  216.05   13.57
  -1  -6  14    2.04    1.37
  -1  -6  14    4.42    4.11
   0  -6  14    0.52    1.07
   0  -6  14    1.01    3.91
   1  -6  14   75.77    9.70
   1  -6  14   62.37    5.31
   2  -6  14   53.25    8.67
   2  -6  14   41.12    4.01
   3  -6  14   37.16    3.54
   3  -6  14   51.20    8.88
   4  -6  14   28.86    7.69
   5  -6  14   78.92   11.75
  -6   6 -14   93.84    9.04
   6  -6  14  121.01   14.39
   7  -6  14   -1.95    4.97
  -7   6 -14    2.55    2.42
  -8   6 -14   18.93    4.49
   8  -6  14   15.47    7.59
   9  -6  14    9.46    7.67
  -9   6 -14   10.02    3.53
 -10   6 -14    4.42    2.55
  10  -6  14    7.66    6.91
 -11   6 -14    7.16    3.45
  11  -6  14    9.83    7.51
 -12   6 -14   66.21    8.63
  12  -6  14   64.58   13.63
 -13   6 -14    6.38    3.39
 -15  -5  14   17.43    4.03
 -14  -5  14   21.65    4.73
 -13  -5  14   16.89    4.35
 -12  -5  14    2.62    2.22
 -11  -5  14   69.13    8.30
 -10  -5  14   39.25    6.15
  -9  -5  14   36.83    5.75
  -8  -5  14   -0.36    1.39
  -7  -5  14    8.76    2.98
  -6  -5  14   23.67    5.01
  -6  -5  14   24.18    4.20
  -5  -5  14   20.43    3.83
  -5  -5  14   22.73    5.04
  -4  -5  14   90.32    7.65
  -4  -5  14   90.93    9.80
  -3  -5  14  110.28    8.54
  -3  -5  14  115.67   11.29
  -2  -5  14  255.76   15.14
  -2  -5  14  219.61   18.29
  -1  -5  14    5.00    4.27
  -1  -5  14    3.39    1.67
   0  -5  14  156.98   14.50
   1  -5  14  190.41   16.89
   2  -5  14   87.13   10.86
   3  -5  14    3.78    4.80
   4  -5  14   36.81    8.20
  -5   5 -14   11.16    3.53
   5  -5  14   12.83    6.38
  -6   5 -14    3.83    2.27
   6  -5  14    7.40    5.68
  -7   5 -14   -2.35    1.80
   7  -5  14    7.87    6.07
   8  -5  14   99.85   14.15
  -8   5 -14  108.22    8.95
   9  -5  14   63.38   11.66
  -9   5 -14   67.36    7.88
  10  -5  14   -1.41    5.78
 -10   5 -14    5.14    2.63
 -11   5 -14   22.77    5.00
  11  -5  14   18.28    8.50
 -12   5 -14   18.19    4.72
 -15  -4  14   14.24    3.38
 -14  -4  14    7.03    3.28
 -13  -4  14   -1.05    1.77
 -12  -4  14   42.49    6.52
 -11  -4  14   24.11    4.61
 -10  -4  14    0.33    1.88
  -9  -4  14  104.31    9.21
  -8  -4  14   80.32    7.58
  -7  -4  14  138.53   10.60
  -7  -4  14  132.93   11.63
  -6  -4  14   60.50    7.47
  -6  -4  14   65.52    6.43
  -5  -4  14   11.64    4.13
  -5  -4  14    5.51    2.10
  -4  -4  14  302.62   18.33
  -4  -4  14  293.39   21.48
  -3  -4  14   26.51    5.33
  -2  -4  14    3.02    3.38
  -1  -4  14   41.60    6.96
   0  -4  14  528.08   35.84
   1  -4  14  132.00   13.31
   2  -4  14   14.09    5.78
   3  -4  14   24.15    6.70
   4  -4  14   84.39   11.49
  -4   4 -14   85.39    7.89
   5  -4  14    8.08    5.57
  -5   4 -14   -0.54    2.23
  -6   4 -14  106.96    8.87
   6  -4  14  121.90   14.11
   7  -4  14   39.53    8.96
  -7   4 -14   28.70    5.08
   8  -4  14   43.61    9.72
  -8   4 -14   35.68    5.67
  -9   4 -14   -2.35    1.90
   9  -4  14    8.49    6.29
  10  -4  14   16.31    7.49
 -10   4 -14   24.46    5.18
 -11   4 -14    1.77    2.73
 -12   4 -14    4.06    3.49
 -15  -3  14    1.72    2.19
 -14  -3  14   -1.47    1.73
 -13  -3  14    0.03    1.76
 -12  -3  14    2.13    1.97
 -11  -3  14   -2.21    1.31
 -10  -3  14    1.53    1.78
  -9  -3  14    2.74    1.85
  -8  -3  14   32.61    5.57
  -8  -3  14   31.15    4.93
  -7  -3  14  313.09   22.06
  -7  -3  14  308.59   19.52
  -6  -3  14    2.71    1.77
  -6  -3  14    4.77    3.16
  -5  -3  14   18.91    4.52
  -4  -3  14  122.34   11.08
  -3  -3  14    2.14    3.03
  -2  -3  14   71.44    8.54
  -1  -3  14   38.08    6.58
   0  -3  14  102.79   10.83
   1  -3  14   34.77    6.59
   2  -3  14   80.71   10.45
  -3   3 -14  475.54   24.84
   3  -3  14  482.08   34.15
   4  -3  14  105.56   12.02
  -4   3 -14   96.65    8.00
  -5   3 -14   21.47    4.15
   5  -3  14    5.90    5.37
  -6   3 -14    9.41    3.01
   6  -3  14   11.73    5.99
  -7   3 -14    5.09    2.60
   7  -3  14   20.02    6.88
   8  -3  14    4.83    5.74
  -8   3 -14    7.48    2.94
  -9   3 -14    0.41    2.46
   9  -3  14    0.26    5.12
 -10   3 -14   27.44    5.33
  10  -3  14   21.41    8.61
 -11   3 -14   -2.68    2.71
 -12   3 -14   -0.45    3.01
 -15  -2  14   10.95    3.21
 -14  -2  14    1.13    1.89
 -13  -2  14    0.07    1.75
 -12  -2  14   44.14    6.40
 -11  -2  14   10.70    2.95
 -10  -2  14   -0.32    1.24
  -9  -2  14  111.03    8.88
  -9  -2  14   87.20    9.12
  -8  -2  14  253.62   16.05
  -8  -2  14  227.93   17.66
  -7  -2  14    1.14    2.37
  -6  -2  14   -2.82    2.19
  -5  -2  14    7.28    2.98
  -4  -2  14  244.89   18.39
  -3  -2  14   -1.03    2.07
  -2  -2  14   94.14    9.67
  -1  -2  14   31.94    5.98
   0  -2  14  380.00   27.10
   1  -2  14    2.25    3.65
   2  -2  14  258.51   20.76
   3  -2  14  251.02   21.17
  -3   2 -14  277.68   15.47
  -4   2 -14   38.30    5.39
   4  -2  14   43.71    8.36
  -5   2 -14    6.68    2.49
   5  -2  14    9.57    5.59
  -6   2 -14   98.37    8.04
   6  -2  14   83.32   11.85
   7  -2  14    9.25    5.24
  -7   2 -14    9.73    3.25
  -8   2 -14   30.74    5.26
   8  -2  14   23.21    7.86
  -9   2 -14    3.55    2.17
   9  -2  14    4.42    5.82
 -10   2 -14   -2.44    2.34
 -11   2 -14    1.45    2.84
 -12   2 -14   -1.83    3.03
 -15  -1  14    4.34    2.12
 -14  -1  14    3.25    2.03
 -13  -1  14   21.05    4.40
 -12  -1  14    0.23    1.38
 -11  -1  14    2.95    1.85
 -10  -1  14   34.61    5.18
 -10  -1  14   29.37    5.40
  -9  -1  14  177.60   14.33
  -8  -1  14   17.64    4.20
  -7  -1  14    0.09    2.11
  -6  -1  14   22.06    4.63
  -5  -1  14  219.22   16.75
  -4  -1  14   14.24    4.07
  -3  -1  14   36.65    5.88
  -2  -1  14  683.82   44.11
  -1  -1  14    9.24    3.92
   0  -1  14  185.85   15.57
   1  -1  14    0.81    3.52
  -2   1 -14   16.94    3.62
   2  -1  14   18.23    5.72
  -3   1 -14   95.93    7.61
   3  -1  14   93.16   11.33
  -4   1 -14    0.32    1.65
   4  -1  14    0.15    4.26
   5  -1  14   16.03    6.43
  -5   1 -14   17.83    3.66
  -6   1 -14    0.48    2.16
   6  -1  14    3.57    4.61
   7  -1  14    0.65    4.29
  -7   1 -14   -0.82    2.01
   8  -1  14    9.80    6.33
  -8   1 -14    7.71    2.86
  -9   1 -14   11.00    3.70
 -10   1 -14    5.03    3.13
 -11   1 -14    0.85    2.72
 -15   0  14   11.94    3.49
 -14   0  14   14.77    3.71
 -13   0  14   37.12    5.59
 -12   0  14    5.50    2.10
 -11   0  14    3.05    1.88
 -11   0  14   -1.80    2.29
 -10   0  14  157.13   13.18
  -9   0  14   -1.14    2.04
  -8   0  14    1.27    2.21
  -7   0  14   10.64    3.57
  -6   0  14  188.05   14.77
  -5   0  14  187.03   14.77
  -4   0  14   10.48    3.47
  -3   0  14   -0.48    2.26
  -2   0  14    1.24    2.67
  -1   0  14  302.65   22.21
   0   0  14  662.22   43.41
   1   0  14   33.87    6.47
   2   0  14   13.10    5.35
  -2   0 -14   18.87    3.69
  -3   0 -14  139.42    9.59
   3   0  14  139.49   14.04
  -4   0 -14   31.12    4.73
   4   0  14   22.68    6.91
   5   0  14   -0.72    3.84
  -5   0 -14    5.14    2.51
  -6   0 -14    2.27    2.11
   6   0  14    4.11    4.38
   7   0  14    0.00    4.61
  -7   0 -14    3.10    2.45
  -8   0 -14   10.05    3.14
  -9   0 -14   12.45    3.28
 -10   0 -14    2.37    3.15
 -11   0 -14   -3.68    2.80
 -17   1  14    2.63    1.90
 -15   1  14   16.53    3.37
 -14   1  14   29.85    4.94
 -13   1  14    3.05    1.96
 -12   1  14    1.95    1.57
 -12   1  14   -2.15    1.61
 -12   1  14    2.93    2.61
 -11   1  14   22.50    5.06
 -11   1  14   22.48    4.22
 -10   1  14   53.71    6.20
 -10   1  14   62.79    7.72
  -9   1  14   -3.90    1.84
  -8   1  14    2.18    2.63
  -7   1  14  415.83   28.36
  -6   1  14  339.24   23.80
  -5   1  14  139.10   11.87
  -4   1  14   75.75    8.14
  -3   1  14  244.47   18.41
  -2   1  14   -0.43    2.15
  -1   1  14  521.18   34.90
   0   1  14  115.61   11.42
  -1  -1 -14   32.34    5.71
  -1  -1 -14   33.24    4.36
   1   1  14   30.45    6.27
  -2  -1 -14   88.34    6.97
   2   1  14   84.84   10.51
  -2  -1 -14   88.96    8.69
  -3  -1 -14   45.77    5.33
   3   1  14   42.72    7.72
  -3  -1 -14   37.45    5.91
   4   1  14   -3.36    4.02
  -4  -1 -14    5.20    2.23
  -5  -1 -14   13.25    3.26
   5   1  14   15.13    5.74
   6   1  14    1.17    3.75
  -6  -1 -14    1.25    1.98
  -7  -1 -14   12.61    3.14
  -8  -1 -14   36.38    5.73
  -9  -1 -14   67.83    8.22
 -10  -1 -14    0.89    3.36
 -18   2  14    0.54    1.53
 -17   2  14    2.48    2.04
 -15   2  14   75.96    7.18
 -14   2  14   67.35    6.57
 -12   2  14   48.08    6.00
 -12   2  14   43.00    6.89
 -11   2  14    5.75    2.47
 -11   2  14    7.68    3.13
 -10   2  14   -1.06    2.17
 -10   2  14    1.05    1.95
  -9   2  14   19.11    4.97
  -9   2  14   18.59    3.96
  -8   2  14   12.12    3.13
  -8   2  14   16.78    4.47
  -7   2  14   21.40    4.74
  -6   2  14  130.59   11.56
  -5   2  14   -0.87    1.67
  -4   2  14    8.29    3.33
  -3   2  14  101.42    9.90
  -2   2  14   15.61    4.41
  -1   2  14   65.50    8.23
   1  -2 -14   67.53    8.11
   0  -2 -14    8.98    3.71
   0  -2 -14    3.28    2.07
   0   2  14    4.27    3.17
  -1  -2 -14    4.51    2.93
  -1  -2 -14    6.20    2.43
   1   2  14    3.94    3.61
  -2  -2 -14   -2.50    1.34
   2   2  14    3.04    3.39
  -2  -2 -14    2.06    2.61
  -3  -2 -14    4.89    3.30
   3   2  14    1.88    3.78
  -3  -2 -14    3.65    2.08
  -4  -2 -14    0.70    1.68
   4   2  14   -2.14    3.71
  -5  -2 -14   -1.71    1.56
   5   2  14    7.92    4.68
  -6  -2 -14    3.46    2.12
  -7  -2 -14   52.30    6.70
  -8  -2 -14  113.18    9.63
  -9  -2 -14   -1.58    2.51
 -10  -2 -14   81.38    9.89
 -17   3  14    4.14    2.02
 -15   3  14   62.72    6.14
 -13   3  14    2.74    2.89
 -13   3  14    7.68    2.45
 -12   3  14   31.21    5.11
 -12   3  14   26.28    5.77
 -11   3  14  155.47   13.34
 -11   3  14  139.20   10.93
 -10   3  14    8.56    2.86
 -10   3  14   14.32    4.19
  -9   3  14   47.38    5.90
  -9   3  14   36.21    6.36
  -8   3  14   75.54    7.06
  -8   3  14   82.81    8.71
  -7   3  14    2.99    2.68
  -7   3  14    1.34    1.69
  -6   3  14   55.04    7.24
  -5   3  14    4.29    2.83
  -4   3  14    8.47    3.25
  -3   3  14   10.39    3.67
  -2   3  14  230.06   17.56
   2  -3 -14  216.79   16.36
   1  -3 -14   31.59    5.89
  -1   3  14   31.43    5.89
   0  -3 -14  108.85   10.19
   0   3  14  106.62   10.97
   0  -3 -14  118.87    7.86
  -1  -3 -14   95.62    7.17
  -1  -3 -14   96.34    9.36
   1   3  14   98.92   10.65
  -2  -3 -14   31.58    5.82
   2   3  14   40.54    7.24
  -2  -3 -14   43.31    4.99
  -3  -3 -14  123.43    8.63
   3   3  14  121.08   12.35
  -3  -3 -14   98.23    9.72
  -4  -3 -14   65.53    6.55
   4   3  14   57.86    9.15
  -4  -3 -14   45.11    6.56
  -5  -3 -14    1.71    2.10
  -6  -3 -14   14.47    3.36
  -7  -3 -14   91.36    8.94
  -8  -3 -14    7.31    3.06
  -9  -3 -14   -1.89    2.58
 -10  -3 -14   25.60    6.43
 -14   4  14    1.90    2.48
 -14   4  14   -1.43    1.57
 -13   4  14   63.26    7.29
 -13   4  14   58.89    8.41
 -12   4  14   19.50    4.29
 -12   4  14   19.19    5.09
 -11   4  14   92.35   10.05
 -11   4  14  102.52    8.78
 -10   4  14    4.68    2.95
 -10   4  14   -0.62    1.52
  -9   4  14    2.69    2.49
  -9   4  14   -1.27    1.49
  -8   4  14    3.29    2.88
  -8   4  14    2.56    1.87
  -7   4  14    1.14    1.35
  -7   4  14    3.05    2.57
  -6   4  14   -0.90    1.82
  -5   4  14   15.53    4.22
  -4   4  14   89.25    9.31
  -3   4  14   22.87    4.90
   3  -4 -14   25.56    5.82
   2  -4 -14   23.36    5.42
  -2   4  14   18.19    4.87
  -1   4  14   95.94   10.03
   1  -4 -14   84.28    9.26
   0  -4 -14    7.81    2.18
   0   4  14    5.29    3.66
   0  -4 -14    1.50    2.80
  -1  -4 -14    0.05    2.33
   1   4  14   -4.20    2.69
  -1  -4 -14    2.05    1.72
   2   4  14  106.49   11.57
  -2  -4 -14  109.26   10.00
  -2  -4 -14  106.21    8.00
  -3  -4 -14   51.35    7.16
  -3  -4 -14   61.70    6.32
   3   4  14   61.05    8.91
  -4  -4 -14   -0.14    2.28
  -4  -4 -14    0.91    1.61
  -5  -4 -14   54.55    6.63
  -6  -4 -14   81.95    8.24
  -7  -4 -14   56.92    7.08
  -8  -4 -14   -0.47    2.37
  -9  -4 -14   -3.37    2.61
 -12   5  14    1.14    1.54
 -12   5  14    5.02    2.81
 -11   5  14   35.81    5.97
 -11   5  14   38.63    7.12
 -10   5  14    6.15    2.55
 -10   5  14    4.89    3.27
  -9   5  14   32.94    5.50
  -9   5  14   27.67    5.90
  -8   5  14    1.39    2.08
  -8   5  14   -1.00    2.22
  -7   5  14   31.34    5.08
  -7   5  14   36.46    6.30
  -6   5  14   18.84    4.07
  -6   5  14   15.30    4.36
   5  -5 -14   -0.16    2.56
  -5   5  14    2.83    2.56
  -4   5  14    1.11    2.17
   4  -5 -14    2.50    2.92
   3  -5 -14   -3.82    2.14
  -3   5  14   -0.55    2.13
   2  -5 -14   11.86    3.98
  -2   5  14   10.36    4.14
  -1   5  14   34.12    6.44
   1  -5 -14   43.56    6.83
   1  -5 -14   43.29    4.39
   0  -5 -14    1.22    2.71
   0  -5 -14   -0.30    1.02
   0   5  14    0.11    3.00
  -1  -5 -14    6.33    3.78
  -1  -5 -14   19.81    3.48
   1   5  14   18.21    5.40
  -2  -5 -14   18.61    4.60
   2   5  14   30.69    6.44
  -2  -5 -14   29.11    4.41
   3   5  14  100.01   11.40
  -3  -5 -14   92.88   10.09
  -3  -5 -14  110.85    8.13
  -4  -5 -14    6.47    3.21
  -4  -5 -14    9.07    2.78
  -5  -5 -14   69.41    7.53
  -6  -5 -14   46.75    6.37
  -7  -5 -14   31.13    5.23
  -8  -5 -14   -0.82    2.74
  -9  -5 -14    2.90    4.33
  16  -6 -14   11.65    6.65
  15  -6 -14    7.93    6.10
  14  -6 -14   69.32   11.66
  13  -6 -14   -2.64    4.38
 -10   6  14   88.60    8.46
 -10   6  14   87.99   10.14
  -9   6  14   12.72    4.36
  -9   6  14    8.93    3.14
  -8   6  14   18.16    4.08
  -8   6  14   23.86    5.44
  -7   6  14   55.14    7.87
  -7   6  14   54.10    6.78
  -6   6  14   35.22    6.25
   6  -6 -14   33.88    7.27
  -6   6  14   43.55    5.68
  -5   6  14   23.71    5.04
   5  -6 -14   17.90    5.18
  -4   6  14    5.74    3.14
   4  -6 -14    3.03    3.00
   3  -6 -14    3.06    3.09
  -3   6  14    3.92    2.80
   2  -6 -14   48.20    7.55
  -2   6  14   77.41    8.30
   1  -6 -14   50.85    7.76
  -1   6  14   63.20    8.43
   0  -6 -14   72.37    9.12
   0  -6 -14   90.21    6.45
   0   6  14   82.48    9.84
  -1  -6 -14   88.27    7.05
  -1  -6 -14   99.30   10.27
   1   6  14   99.20   10.66
  -2  -6 -14   41.56    5.04
  -2  -6 -14   20.09    4.97
   2   6  14   28.52    6.25
  -3  -6 -14    3.94    2.88
  -3  -6 -14    6.06    2.41
  -4  -6 -14   16.87    3.63
  -4  -6 -14    7.64    3.48
  -5  -6 -14   27.13    4.81
  -6  -6 -14   71.21    7.84
  -7  -6 -14   -0.21    2.50
  -8  -6 -14   45.12    7.18
  17  -7 -14   18.37    7.61
  16  -7 -14   17.94    7.71
  15  -7 -14   13.79    7.24
  14  -7 -14   15.49    7.37
  13  -7 -14   30.92    9.14
  12  -7 -14   22.09    7.75
 -10   7  14  156.80   12.53
 -10   7  14  162.06   15.09
  -9   7  14    5.63    3.50
  -9   7  14    8.72    3.35
  -8   7  14    4.74    3.18
  -8   7  14   -0.83    2.05
   7  -7 -14   31.10    7.14
  -7   7  14   44.41    6.31
  -7   7  14   40.18    6.99
  -6   7  14   71.33    7.60
  -6   7  14   77.40    9.15
   6  -7 -14   68.84    9.38
  -5   7  14  228.55   18.13
   5  -7 -14  236.29   17.70
  -4   7  14    7.20    3.48
   4  -7 -14    3.06    2.75
   3  -7 -14   13.98    4.68
  -3   7  14   20.96    5.14
   2  -7 -14  222.86   16.74
  -2   7  14  210.45   17.10
   1  -7 -14    3.20    2.95
  -1   7  14   -0.81    2.68
   0  -7 -14  127.60   11.96
   0   7  14  139.85   12.91
  -1  -7 -14   17.97    4.75
   1   7  14   11.92    4.87
  -2  -7 -14   10.69    3.84
  -3  -7 -14   37.59    6.81
  -4  -7 -14   16.32    4.68
  17  -8 -14   -2.47    5.62
  16  -8 -14    4.89    6.25
  15  -8 -14   13.22    7.50
  14  -8 -14   -3.39    4.72
  13  -8 -14   -4.56    4.94
  12  -8 -14   15.75    7.48
  11  -8 -14   29.76    9.03
  -9   8  14   10.86    4.56
  -9   8  14   10.69    3.59
  -8   8  14   22.49    4.85
   8  -8 -14   25.62    6.61
  -8   8  14   17.84    5.37
   7  -8 -14  102.30   11.80
  -7   8  14  121.96   10.08
  -7   8  14  116.42   11.73
  -6   8  14   20.57    5.06
   6  -8 -14   11.84    4.88
  -6   8  14   15.98    3.98
   5  -8 -14  145.69   12.62
  -5   8  14  116.01   11.56
  -4   8  14   91.30    9.55
   4  -8 -14   80.02    9.84
  -3   8  14  109.83   10.91
   3  -8 -14  120.88   11.43
   2  -8 -14    9.99    4.24
  -2   8  14    7.92    3.78
  -1   8  14   10.39    4.18
   1  -8 -14   10.97    3.99
   0  -8 -14   49.04    7.93
   0   8  14   54.45    7.90
  -1  -8 -14    2.80    2.79
  -2  -8 -14    0.30    2.45
  -3  -8 -14   13.52    4.48
  -4  -8 -14    2.53    2.64
  18  -9 -14   -1.07    6.76
  17  -9 -14   18.82    8.85
  16  -9 -14    6.41    6.82
  15  -9 -14   34.92   10.13
  14  -9 -14   -0.67    5.54
  13  -9 -14    7.85    6.54
  12  -9 -14   39.88   10.54
  11  -9 -14    5.23    6.31
  -9   9  14    2.45    2.71
  -9   9  14   -2.34    2.58
   8  -9 -14   36.59    7.49
  -8   9  14   43.67    7.82
  -8   9  14   40.39    6.36
   7  -9 -14   48.10    8.52
  -7   9  14   57.20    8.40
  -7   9  14   66.96    7.71
  -6   9  14   82.08    8.11
  -6   9  14   61.27    8.51
   6  -9 -14   59.42    9.12
   5  -9 -14   27.38    6.36
  -5   9  14   28.96    5.70
   4  -9 -14   40.77    7.58
  -4   9  14   46.89    7.25
  -3   9  14    3.17    3.22
   3  -9 -14    0.69    2.67
   2  -9 -14    2.28    3.24
  -2   9  14   14.46    4.61
  -1   9  14    2.86    3.29
   1  -9 -14   -2.68    2.13
   0  -9 -14    8.72    3.84
  -1  -9 -14    3.11    2.93
  -2  -9 -14    3.17    2.70
  -3  -9 -14    3.67    3.17
  -4  -9 -14    6.72    3.70
  18 -10 -14   36.03   12.59
  17 -10 -14   14.91    8.73
  16 -10 -14   44.45   11.55
  15 -10 -14   -1.87    5.52
  14 -10 -14    0.38    6.24
  13 -10 -14    6.08    6.15
  12 -10 -14   16.39    8.50
  11 -10 -14    4.41    6.07
   9 -10 -14    1.19    3.49
  -9  10  14    2.39    2.53
  -9  10  14    0.61    3.31
  -8  10  14   44.93    6.91
  -8  10  14   53.00    8.54
   8 -10 -14   49.81    8.55
   7 -10 -14   14.68    5.31
  -7  10  14   10.45    4.33
  -7  10  14   17.74    4.70
  -6  10  14   48.93    7.65
   6 -10 -14   61.40    9.15
  -6  10  14   57.31    7.10
  -5  10  14  124.50   11.53
   5 -10 -14  104.05   11.97
  -4  10  14   10.11    3.80
   4 -10 -14    6.08    3.53
  -3  10  14   22.55    5.42
   3 -10 -14   19.47    5.55
   2 -10 -14   11.21    4.23
  -2  10  14   16.28    5.00
   1 -10 -14    3.56    3.14
   0 -10 -14   11.65    4.12
  -1 -10 -14   -0.78    2.36
  -2 -10 -14    9.31    3.90
  -3 -10 -14   12.52    4.69
  18 -11 -14   19.43   11.54
  17 -11 -14   15.94    9.38
  16 -11 -14   11.77    8.96
  15 -11 -14    5.49    6.59
  14 -11 -14   17.00    9.11
  13 -11 -14   12.43    7.69
  12 -11 -14   13.99    7.41
  11 -11 -14   -6.16    5.46
  10 -11 -14   33.32    7.94
  -9  11  14    8.33    3.69
  -9  11  14    0.15    3.46
   9 -11 -14   -2.19    3.08
  -8  11  14   29.21    6.91
  -8  11  14   36.41    6.17
   8 -11 -14   38.13    7.88
  -7  11  14   11.23    3.63
   7 -11 -14    9.28    4.87
  -7  11  14    6.00    3.78
  -6  11  14    2.04    1.96
  -6  11  14    2.57    2.65
   6 -11 -14   -1.54    2.85
  -5  11  14    4.24    2.83
   5 -11 -14    2.70    2.77
   4 -11 -14    2.25    2.79
  -4  11  14    7.11    3.73
  -3  11  14   24.62    5.59
   3 -11 -14   24.83    6.24
   2 -11 -14    6.06    3.71
   1 -11 -14    8.85    3.81
   0 -11 -14   -0.16    2.48
  -1 -11 -14    0.42    2.58
  -2 -11 -14    9.52    4.06
  -3 -11 -14    6.63    3.44
  17 -12 -14    3.85    6.37
  16 -12 -14   -0.34    5.41
  15 -12 -14    6.89    8.08
  14 -12 -14   20.47    9.79
  13 -12 -14   33.62   11.20
  12 -12 -14   28.73    9.45
  11 -12 -14   31.38    9.62
  10 -12 -14   44.55    8.89
  -9  12  14    1.95    3.54
  -9  12  14    3.10    2.79
   9 -12 -14    1.11    3.62
  -8  12  14   -1.67    2.40
   8 -12 -14    1.39    3.37
  -8  12  14    0.00    1.85
  -7  12  14   -1.66    2.54
  -7  12  14    3.85    2.68
   7 -12 -14   -0.63    3.16
  -6  12  14    8.99    3.76
  -6  12  14    6.52    2.70
   6 -12 -14    3.76    4.02
  -5  12  14   25.09    5.69
   5 -12 -14   12.61    4.61
   4 -12 -14   -2.75    1.93
  -4  12  14   -0.96    2.58
   3 -12 -14   -0.30    2.87
   2 -12 -14    6.48    3.84
   1 -12 -14    3.19    2.95
   0 -12 -14   15.83    5.32
  -1 -12 -14   10.14    4.75
  -2 -12 -14   11.31    4.47
  17 -13 -14   -4.82    5.36
  16 -13 -14   -1.22    5.05
  15 -13 -14    1.01    5.60
  14 -13 -14    6.69    7.54
  13 -13 -14    2.67    6.23
  12 -13 -14   26.43    9.33
  11 -13 -14    2.45    5.45
  11 -13 -14    4.13    4.19
 -10  13  14    0.32    2.42
 -10  13  14    4.24    4.13
  10 -13 -14    0.75    2.99
  -9  13  14    0.41    2.78
   9 -13 -14   -2.56    2.90
  -9  13  14   -1.74    3.06
  -8  13  14    4.56    2.73
  -8  13  14   -0.85    2.58
   8 -13 -14   -4.49    2.62
  -7  13  14    5.90    3.62
  -7  13  14   12.18    3.83
   7 -13 -14   11.95    4.77
  -6  13  14   16.02    3.99
  -6  13  14   16.74    4.95
   6 -13 -14   14.38    6.02
   5 -13 -14    4.61    3.37
  -5  13  14    7.95    3.52
   4 -13 -14   -0.52    2.79
   3 -13 -14    3.74    3.71
   2 -13 -14   -3.71    1.91
   1 -13 -14   43.41    8.40
   0 -13 -14   41.87    8.68
  -1 -13 -14    9.44    3.88
  16 -14 -14   -1.54    5.77
  15 -14 -14    1.90    5.96
  14 -14 -14   10.21    7.43
  13 -14 -14    1.58    6.18
  12 -14 -14    4.39    6.23
  12 -14 -14    4.62    4.49
  11 -14 -14   -0.67    3.62
 -10  14  14   12.05    5.45
  10 -14 -14    8.32    4.43
 -10  14  14    6.72    3.58
  -9  14  14   -0.87    2.18
  -9  14  14    1.56    3.51
   9 -14 -14   -0.49    3.15
  -8  14  14    0.99    2.06
  -8  14  14    0.38    2.83
   8 -14 -14    0.68    3.68
  -7  14  14   13.79    4.30
   7 -14 -14   19.23    6.47
  -7  14  14   14.31    3.66
   6 -14 -14   11.65    5.33
  -6  14  14   12.53    3.45
  -6  14  14   10.49    4.02
   5 -14 -14    2.04    3.96
   4 -14 -14    9.93    4.17
   3 -14 -14   13.79    4.90
   2 -14 -14    9.25    4.58
   1 -14 -14   89.49   12.17
  14 -15 -14    2.82    6.24
  13 -15 -14   14.00    7.81
  12 -15 -14    7.95    4.81
  12 -15 -14   10.98    7.52
  11 -15 -14   -2.74    3.09
  10 -15 -14    2.97    3.83
 -10  15  14    0.46    3.81
 -10  15  14   -0.62    2.50
   9 -15 -14    0.37    3.32
  -9  15  14    1.86    3.32
  -9  15  14    1.49    2.52
  -8  15  14    8.44    3.46
  -8  15  14    8.63    4.75
   8 -15 -14    6.10    4.88
  -7  15  14   19.13    4.32
  -7  15  14   20.74    5.34
   6 -15 -14    1.64    3.80
   5 -15 -14    4.22    4.27
   4 -15 -14   18.62    6.17
   3 -15 -14    3.16    3.67
  13 -16 -14    0.25    4.03
  13 -16 -14    5.15    5.86
  12 -16 -14    4.64    4.68
 -11  16  14    2.92    3.55
 -11  16  14    6.21    4.45
  11 -16 -14   -1.85    3.92
 -10  16  14    6.23    4.54
 -10  16  14    1.54    2.88
  10 -16 -14    6.96    4.95
  -9  16  14    3.37    4.58
  -9  16  14    6.77    3.38
   9 -16 -14   -0.99    3.18
  -8  16  14   12.70    4.01
  -8  16  14   16.89    5.36
   8 -16 -14    0.90    3.01
   7 -16 -14   -1.87    3.41
   6 -16 -14    1.08    4.00
  13 -17 -14   -0.31    5.40
 -12  17  14   29.66    9.41
  12 -17 -14   15.44    7.51
 -12  17  14   30.16    7.80
  11 -17 -14   -5.93    4.65
 -11  17  14    2.05    5.18
 -11  17  14    0.24    3.99
 -10  17  14    3.02    3.33
 -10  17  14    1.67    4.47
  10 -17 -14   -2.63    4.76
  -9  17  14    6.13    3.71
  -9  17  14    6.95    4.06
   9 -17 -14    1.21    4.39
  -1 -18  15    2.64    4.56
   0 -18  15    9.21    5.00
   1 -18  15   -1.33    2.92
   6 -18  15   35.53   10.42
   7 -18  15   23.42    9.71
   8 -18  15   60.26   13.99
  -2 -17  15    0.35    3.63
  -1 -17  15   12.96    4.89
   0 -17  15   25.71    5.66
   1 -17  15   10.26    4.14
   5 -17  15    3.86    6.34
   6 -17  15   10.98    6.95
   7 -17  15   37.19   11.41
   8 -17  15   58.39   13.07
   9 -17  15   22.12    8.70
  -4 -16  15    0.37    3.22
  -3 -16  15   -0.51    2.68
  -2 -16  15   15.03    4.89
  -1 -16  15   28.42    5.98
   0 -16  15   29.32    5.78
   1 -16  15   -1.01    1.85
   2 -16  15   57.78    7.46
   4 -16  15  143.07   17.54
   5 -16  15    3.20    5.21
   6 -16  15   41.31   11.26
   7 -16  15   51.10   11.78
   8 -16  15   37.86   11.07
   9 -16  15   48.58   12.18
  10 -16  15   46.68   11.83
  -5 -15  15   -0.42    3.23
  -4 -15  15   -0.40    2.46
  -3 -15  15   -0.39    2.52
  -2 -15  15   31.33    6.01
  -1 -15  15    3.23    2.46
   0 -15  15    3.69    2.48
   1 -15  15   59.70    7.40
   2 -15  15  146.83   11.92
   3 -15  15   15.95    5.74
   4 -15  15   -1.53    4.75
   5 -15  15   26.09    8.79
   6 -15  15    9.60    6.08
   7 -15  15   12.25    7.17
   8 -15  15   10.77    7.15
   9 -15  15   93.41   16.23
  10 -15  15   38.30   10.86
  11 -15  15    0.39    6.48
  -6 -14  15    0.36    3.15
  -5 -14  15   -1.92    2.76
  -4 -14  15   12.53    4.42
  -3 -14  15   32.12    6.26
  -2 -14  15   92.69    9.13
  -1 -14  15   73.28    8.51
   0 -14  15    3.14    2.64
   1 -14  15  168.42   13.04
   2 -14  15   55.06    6.83
   2 -14  15   52.71   10.02
   3 -14  15    6.00    5.41
   4 -14  15   76.34   12.63
   5 -14  15   54.94   11.43
   6 -14  15   -2.79    4.98
   7 -14  15   19.79    8.81
   8 -14  15   37.41   10.68
   9 -14  15   26.56    9.66
  10 -14  15    8.33    5.94
  11 -14  15    0.76    6.87
  -7 -13  15   -2.11    2.62
  -6 -13  15    1.29    3.19
  -5 -13  15    0.75    2.73
  -4 -13  15   37.80    6.56
  -3 -13  15   69.97    8.36
  -2 -13  15  197.20   14.63
  -1 -13  15    2.75    2.36
   0 -13  15  118.01   10.07
   1 -13  15  124.61   13.81
   1 -13  15  110.43    9.65
   2 -13  15   32.88    5.22
   2 -13  15   33.34    8.38
   3 -13  15  200.66   19.89
   4 -13  15  145.81   17.33
   5 -13  15    7.94    5.98
   6 -13  15   31.90    9.55
   7 -13  15   35.70   10.28
   8 -13  15   47.67   11.89
   9 -13  15    6.66    6.42
  10 -13  15    2.87    5.79
  11 -13  15   -0.25    5.40
  12 -13  15    1.88    7.37
  -9 -12  15   11.75    3.92
  -8 -12  15   17.95    5.00
  -7 -12  15    3.38    3.35
  -6 -12  15    4.20    3.07
  -5 -12  15    5.30    3.00
  -4 -12  15  101.05    9.66
  -3 -12  15   67.52    8.07
  -2 -12  15   67.21    7.82
  -1 -12  15   55.55    6.86
   0 -12  15   66.53    9.82
   0 -12  15   72.88    7.48
   1 -12  15   48.90    9.48
   1 -12  15   66.33    6.96
   2 -12  15   -0.36    1.55
   2 -12  15   -6.37    3.20
   3 -12  15   24.57    7.68
   4 -12  15   64.96   11.75
   5 -12  15   30.71    9.36
   6 -12  15   48.87   11.24
   7 -12  15    5.35    6.04
   8 -12  15   27.50    9.41
   9 -12  15    7.38    5.84
  10 -12  15   11.01    9.01
  11 -12  15    2.10    7.99
  12 -12  15    2.95    6.88
 -10 -11  15    0.12    2.70
  -9 -11  15    9.99    3.82
  -8 -11  15    7.39    3.54
  -7 -11  15   31.23    6.60
  -6 -11  15    1.15    2.45
  -5 -11  15  101.26    9.51
  -4 -11  15  109.85    9.92
  -3 -11  15    4.66    2.47
  -2 -11  15   11.79    3.35
  -1 -11  15   42.46    7.82
  -1 -11  15   28.32    4.86
   0 -11  15   25.67    4.44
   0 -11  15   18.81    6.56
   1 -11  15   16.34    6.60
   1 -11  15   26.73    4.28
   2 -11  15    6.23    2.29
   2 -11  15    2.75    4.57
   3 -11  15  122.67   14.84
   4 -11  15    8.62    5.76
   5 -11  15   61.52   11.60
   6 -11  15   23.29    8.39
   7 -11  15   20.77    7.98
   8 -11  15   23.53    8.99
   9 -11  15   -1.53    6.12
  10 -11  15   -6.53    6.18
  11 -11  15    1.21    8.08
  12 -11  15    3.52    5.77
 -13  11 -15   13.55    4.14
  13 -11  15    3.93    8.83
 -11 -10  15    5.85    3.23
 -10 -10  15    5.93    3.43
  -9 -10  15   22.66    5.20
  -8 -10  15   22.59    4.86
  -7 -10  15   11.64    3.77
  -6 -10  15   45.45    6.85
  -5 -10  15   75.69    8.43
  -4 -10  15   59.68    7.36
  -3 -10  15    0.60    1.97
  -2 -10  15   33.02    7.29
  -2 -10  15   40.81    5.73
  -1 -10  15    5.39    2.49
  -1 -10  15   13.62    5.78
   0 -10  15   12.72    6.17
   0 -10  15    9.53    2.81
   1 -10  15    6.27    2.36
   1 -10  15    2.62    4.88
   2 -10  15    4.71    5.38
   2 -10  15    5.93    2.12
   3 -10  15  141.15   15.82
   4 -10  15    1.35    4.92
   5 -10  15    3.67    5.66
   6 -10  15    3.56    5.66
   7 -10  15    6.46    6.09
   8 -10  15    5.27    7.32
   9 -10  15    7.24    7.71
  10 -10  15   -7.67    6.05
  11 -10  15   13.65    9.25
 -12  10 -15   73.82    9.34
  12 -10  15   29.57   11.22
  13 -10  15   25.07   13.12
 -13  10 -15   17.40    5.33
 -12  -9  15   10.33    3.34
 -11  -9  15   -6.11    1.82
 -10  -9  15    4.31    2.77
  -9  -9  15   53.03    7.90
  -8  -9  15   17.14    4.20
  -7  -9  15    1.83    1.98
  -6  -9  15   25.90    5.22
  -5  -9  15    1.27    2.14
  -4  -9  15   61.55    7.30
  -3  -9  15   27.38    4.74
  -2  -9  15   47.72    8.54
  -2  -9  15   54.67    6.18
  -1  -9  15   12.30    2.99
  -1  -9  15    4.84    5.06
   0  -9  15   64.07    5.76
   0  -9  15   42.93    8.63
   1  -9  15   73.83   10.89
   1  -9  15   77.54    6.65
   2  -9  15   52.98    9.70
   3  -9  15   13.29    7.03
   4  -9  15    3.87    5.32
   5  -9  15    0.89    4.91
   6  -9  15    6.26    5.63
   7  -9  15    1.46    6.04
   8  -9  15   -6.32    5.58
   9  -9  15    1.39    6.98
 -10   9 -15    6.69    3.45
  10  -9  15    4.02    6.96
  11  -9  15   35.53   12.10
 -11   9 -15   24.63    5.59
  12  -9  15  114.40   19.22
 -12   9 -15  109.18   11.40
  13  -9  15   34.74   12.89
 -13   9 -15   22.53    5.58
 -13  -8  15   24.62    5.45
 -12  -8  15    2.03    2.46
 -11  -8  15    6.93    3.11
 -10  -8  15   13.78    3.78
  -9  -8  15   22.49    5.17
  -8  -8  15    2.29    2.37
  -7  -8  15    0.71    1.46
  -6  -8  15    0.22    1.88
  -5  -8  15   -0.82    1.79
  -4  -8  15   -0.41    1.61
  -3  -8  15    5.65    2.51
  -3  -8  15   10.67    5.32
  -2  -8  15   15.95    5.75
  -2  -8  15   19.68    3.73
  -1  -8  15   27.74    4.16
  -1  -8  15   23.15    6.78
   0  -8  15   25.20    6.59
   0  -8  15   12.31    2.80
   1  -8  15  227.75   14.27
   1  -8  15  231.46   20.07
   2  -8  15   45.86    8.86
   3  -8  15    3.78    5.26
   4  -8  15  110.54   14.02
   5  -8  15    4.72    5.47
   6  -8  15   17.86    7.88
   7  -8  15  130.33   16.63
   8  -8  15   58.45   12.14
   9  -8  15   18.39    8.36
  -9   8 -15    9.48    3.50
 -10   8 -15    8.77    3.31
  10  -8  15    8.43    7.36
 -11   8 -15   18.23    4.28
  11  -8  15   19.28    9.90
 -12   8 -15   38.75    6.67
  12  -8  15   36.73   11.62
  13  -8  15    0.18    9.10
 -13  -7  15    5.36    3.20
 -12  -7  15   -2.78    1.98
 -11  -7  15   26.54    5.26
 -10  -7  15    8.84    3.46
  -9  -7  15    7.10    2.57
  -8  -7  15    1.52    1.94
  -7  -7  15   85.79    8.24
  -6  -7  15    8.30    2.94
  -5  -7  15    5.29    2.36
  -4  -7  15   14.64    3.56
  -4  -7  15   16.01    5.37
  -3  -7  15   15.63    3.61
  -3  -7  15   23.31    6.20
  -2  -7  15    3.70    4.19
  -2  -7  15    1.10    1.44
  -1  -7  15   15.11    3.10
  -1  -7  15   16.97    6.09
   0  -7  15   56.42    8.79
   0  -7  15   53.39    5.09
   1  -7  15  243.45   20.27
   1  -7  15  234.30   14.55
   2  -7  15   47.55    4.37
   2  -7  15   39.55    8.53
   3  -7  15    5.83    5.38
   4  -7  15  118.89   14.30
   5  -7  15   17.93    7.60
   6  -7  15   11.17    6.96
  -7   7 -15  280.96   17.68
   7  -7  15  290.74   25.58
   8  -7  15   33.10    9.74
  -8   7 -15   48.58    6.83
   9  -7  15    3.01    6.07
  -9   7 -15    4.05    2.87
  10  -7  15    4.39    6.41
 -10   7 -15    2.91    2.89
 -11   7 -15    3.41    3.23
  11  -7  15    4.47    7.12
 -12   7 -15   49.26    7.35
  12  -7  15   26.50   11.27
  13  -7  15   -3.39    7.74
 -14  -6  15    6.68    2.98
 -13  -6  15   10.32    3.62
 -12  -6  15   13.11    4.11
 -11  -6  15    3.90    2.56
 -10  -6  15    3.72    2.45
  -9  -6  15    1.20    1.90
  -8  -6  15    3.44    2.12
  -7  -6  15   14.05    3.55
  -6  -6  15   -1.13    1.54
  -5  -6  15   -0.02    1.67
  -5  -6  15    2.50    3.74
  -4  -6  15    8.11    4.62
  -4  -6  15   13.14    3.23
  -3  -6  15  193.25   12.79
  -3  -6  15  175.70   15.73
  -2  -6  15   31.97    4.43
  -2  -6  15   38.29    7.35
  -1  -6  15  180.79   12.26
  -1  -6  15  200.12   16.77
   0  -6  15  155.90   10.40
   0  -6  15  153.37   14.93
   1  -6  15    3.87    4.82
   1  -6  15    5.95    1.82
   2  -6  15  105.76    7.25
   2  -6  15   83.07   11.69
   3  -6  15   38.93    8.37
   4  -6  15   58.20   10.24
   5  -6  15    2.37    5.26
   6  -6  15   58.80   10.81
  -6   6 -15   56.15    7.25
   7  -6  15   59.72   10.93
  -7   6 -15   47.13    6.79
   8  -6  15   35.99    9.96
  -8   6 -15   46.12    6.58
  -9   6 -15    0.97    2.13
   9  -6  15    1.92    5.56
  10  -6  15   10.55    7.10
 -11   6 -15    1.46    2.67
  11  -6  15   -1.97    6.50
  12  -6  15   15.37    9.08
 -12   6 -15    7.22    3.25
 -15  -5  15    2.60    3.01
 -14  -5  15    3.11    2.19
 -13  -5  15   -3.56    1.70
 -12  -5  15    2.91    2.33
 -11  -5  15    0.95    2.14
 -10  -5  15    0.93    1.70
  -9  -5  15   79.35    8.68
  -8  -5  15  292.24   19.36
  -7  -5  15    7.23    2.52
  -6  -5  15   13.64    4.59
  -6  -5  15    8.76    3.00
  -5  -5  15    9.09    4.71
  -5  -5  15   10.95    2.85
  -4  -5  15  193.47   13.34
  -4  -5  15  201.92   16.52
  -3  -5  15    5.02    2.03
  -3  -5  15    0.80    3.57
  -2  -5  15    4.10    1.99
  -2  -5  15    5.64    4.40
  -1  -5  15  559.84   38.04
   0  -5  15  234.81   19.53
   1  -5  15   66.68    9.76
   2  -5  15  145.64   14.72
   3  -5  15   59.10    9.76
   4  -5  15   19.40    7.14
  -5   5 -15   55.67    6.82
   5  -5  15   45.00    9.32
  -6   5 -15    4.75    3.10
   6  -5  15    8.15    6.14
   7  -5  15   49.10   10.49
  -7   5 -15   57.70    7.26
  -8   5 -15    3.62    2.89
   8  -5  15   10.18    6.63
  -9   5 -15   30.12    5.32
   9  -5  15   33.94    9.85
 -10   5 -15    0.78    1.94
  10  -5  15    1.26    5.56
  11  -5  15    2.14    7.04
 -11   5 -15   -3.53    2.13
 -12   5 -15   14.06    3.95
 -15  -4  15    1.35    2.25
 -14  -4  15    1.87    2.29
 -13  -4  15    1.67    2.28
 -12  -4  15    2.57    2.43
 -11  -4  15    8.06    2.76
 -10  -4  15    2.30    1.95
  -9  -4  15  598.61   35.04
  -8  -4  15  149.24   11.61
  -7  -4  15   -1.31    2.48
  -7  -4  15   -1.75    1.20
  -6  -4  15  231.17   15.68
  -6  -4  15  239.65   18.18
  -5  -4  15   88.86    9.35
  -5  -4  15   77.75    7.30
  -4  -4  15   -1.18    2.93
  -3  -4  15  267.08   20.28
  -2  -4  15  565.81   38.03
  -1  -4  15  574.53   38.65
   0  -4  15    6.23    4.71
   1  -4  15  147.52   14.43
   2  -4  15  155.03   15.23
   3  -4  15    5.78    4.94
   4  -4  15   45.30    9.07
   5  -4  15   10.44    6.13
  -5   4 -15    7.07    2.69
   6  -4  15    0.23    4.35
  -6   4 -15   -0.62    2.23
  -7   4 -15   26.68    5.33
   7  -4  15   30.59    8.36
   8  -4  15    3.95    5.27
  -8   4 -15   -1.81    1.76
   9  -4  15    1.29    5.46
  -9   4 -15    0.16    2.33
 -10   4 -15    9.14    3.57
  10  -4  15   15.17    8.57
 -11   4 -15    0.59    2.69
 -12   4 -15   -4.40    3.18
 -15  -3  15    2.43    2.16
 -14  -3  15   17.45    4.15
 -13  -3  15   12.89    3.37
 -12  -3  15    5.83    2.70
 -11  -3  15   14.57    3.91
 -10  -3  15   29.49    5.07
  -9  -3  15  389.89   24.25
  -8  -3  15   36.83    5.46
  -8  -3  15   32.47    5.76
  -7  -3  15  132.18   10.34
  -7  -3  15  128.88   11.70
  -6  -3  15   26.92    5.43
  -5  -3  15    4.41    3.11
  -4  -3  15   74.76    8.58
  -3  -3  15  304.34   22.45
  -2  -3  15   47.42    7.46
  -1  -3  15   -1.08    3.13
   0  -3  15    0.97    3.62
   1  -3  15  408.03   29.46
   2  -3  15  161.44   15.59
   3  -3  15   20.02    6.75
  -4   3 -15   26.23    4.65
   4  -3  15   15.76    6.25
   5  -3  15   14.57    6.34
  -5   3 -15   20.41    4.22
  -6   3 -15   -3.08    2.14
   6  -3  15    6.41    5.50
   7  -3  15    6.78    5.55
  -7   3 -15   13.21    3.74
   8  -3  15   11.02    6.73
  -8   3 -15    0.84    2.53
   9  -3  15   -4.69    4.89
  -9   3 -15    8.46    3.18
 -10   3 -15    8.72    3.58
 -11   3 -15   -1.78    2.48
 -15  -2  15   11.42    3.16
 -14  -2  15   85.34    8.38
 -13  -2  15   10.90    3.22
 -12  -2  15    1.40    1.67
 -11  -2  15   -0.30    1.59
 -10  -2  15  158.81   12.16
  -9  -2  15   33.36    5.15
  -9  -2  15   34.35    5.77
  -8  -2  15   10.71    4.15
  -7  -2  15  170.79   14.16
  -6  -2  15   -0.04    2.39
  -5  -2  15    9.04    3.70
  -4  -2  15  176.24   14.63
  -3  -2  15  298.64   22.04
  -2  -2  15   12.13    4.46
  -1  -2  15  138.56   13.00
   0  -2  15    1.68    3.90
   1  -2  15  151.20   14.25
   2  -2  15   73.50   10.17
  -3   2 -15    1.93    2.28
   3  -2  15    7.26    5.22
   4  -2  15   27.37    7.33
  -4   2 -15   19.86    4.11
   5  -2  15    0.63    4.37
  -5   2 -15   -0.42    2.02
  -6   2 -15    1.41    2.32
   6  -2  15   -5.39    4.03
   7  -2  15   20.59    7.10
  -7   2 -15   19.38    4.28
   8  -2  15    3.77    5.95
  -8   2 -15    4.49    2.67
  -9   2 -15    3.93    2.86
   9  -2  15    4.24    5.64
 -10   2 -15    4.11    3.56
 -11   2 -15    0.28    3.14
 -15  -1  15   20.62    4.23
 -14  -1  15   67.19    7.82
 -13  -1  15   12.27    3.26
 -12  -1  15   88.22    8.24
 -11  -1  15    3.70    2.09
 -10  -1  15   65.48    7.67
 -10  -1  15   48.86    6.33
  -9  -1  15    2.55    2.58
  -8  -1  15   20.89    4.58
  -7  -1  15   63.43    7.77
  -6  -1  15    3.73    2.75
  -5  -1  15   26.49    5.17
  -4  -1  15  507.39   33.98
  -3  -1  15   31.79    5.82
  -2  -1  15    8.47    3.80
  -1  -1  15   12.84    4.67
   0  -1  15   -1.54    3.18
   1  -1  15   16.87    5.55
   2  -1  15    7.13    4.57
  -2   1 -15   -0.29    1.98
  -3   1 -15    1.98    2.09
   3  -1  15   -1.60    4.28
  -4   1 -15    3.74    2.25
   4  -1  15   -1.38    4.37
  -5   1 -15    9.99    3.03
   5  -1  15    8.49    5.51
  -6   1 -15    3.21    2.41
   6  -1  15    4.43    4.74
   7  -1  15   18.32    6.69
  -7   1 -15    7.78    3.24
   8  -1  15   14.96    7.06
  -8   1 -15    8.59    3.29
  -9   1 -15    5.22    2.82
 -10   1 -15   -4.20    2.64
 -11   1 -15   -0.16    3.22
 -15   0  15   55.71    6.96
 -14   0  15   61.82    7.16
 -13   0  15    5.55    2.42
 -12   0  15   -2.56    1.25
 -11   0  15   34.31    5.93
 -10   0  15  154.26   13.39
  -9   0  15   94.64    9.55
  -8   0  15   87.28    9.18
  -7   0  15  270.98   19.89
  -6   0  15    6.66    3.10
  -5   0  15  119.17   11.09
  -4   0  15   53.67    7.19
  -3   0  15    9.82    3.74
  -2   0  15  216.70   17.23
  -1   0  15    3.72    3.46
   0   0  15   89.69   10.24
   1   0  15   -1.24    3.24
  -2   0 -15   68.97    6.63
   2   0  15   58.80    9.02
  -3   0 -15   59.06    6.45
   3   0  15   64.08    9.57
   4   0  15  111.91   13.16
  -4   0 -15  140.39    9.68
   5   0  15   59.31    9.58
  -5   0 -15   58.11    6.75
  -6   0 -15   95.75    8.89
   6   0  15   81.95   11.48
  -7   0 -15   28.62    5.07
   7   0  15   24.01    7.62
  -8   0 -15    5.11    2.62
  -9   0 -15   -2.69    2.23
 -10   0 -15    0.27    2.55
 -15   1  15   16.93    3.65
 -14   1  15   -1.63    1.28
 -13   1  15    1.10    1.48
 -12   1  15   49.57    7.14
 -12   1  15   54.57    6.08
 -11   1  15   28.63    5.79
 -10   1  15   -2.39    2.02
  -9   1  15  188.94   15.36
  -8   1  15  170.23   14.28
  -7   1  15   32.24    5.71
  -6   1  15    3.83    2.63
  -5   1  15   22.54    4.87
  -4   1  15   25.29    5.22
  -3   1  15    1.17    2.21
  -2   1  15  171.79   14.50
  -1   1  15    1.62    3.17
   0   1  15   33.58    6.65
  -1  -1 -15   -1.50    1.48
   1   1  15   -2.45    2.91
  -2  -1 -15   31.68    4.70
  -2  -1 -15   15.15    4.65
   2   1  15   30.46    6.81
  -3  -1 -15   15.10    4.55
  -3  -1 -15   19.74    3.83
   3   1  15   15.93    5.85
  -4  -1 -15   15.27    3.55
   4   1  15   19.33    6.30
  -5  -1 -15   43.38    5.88
   5   1  15   29.43    7.51
   6   1  15   14.32    5.93
  -6  -1 -15   22.94    4.43
  -7  -1 -15   10.06    3.02
  -8  -1 -15    4.40    2.45
  -9  -1 -15   41.31    6.81
 -10  -1 -15   -3.92    2.65
 -18   2  15    2.60    1.68
 -15   2  15   34.61    5.19
 -14   2  15   13.53    3.22
 -13   2  15   37.78    6.55
 -13   2  15   32.43    5.16
 -12   2  15    9.04    2.87
 -12   2  15    3.80    2.97
 -11   2  15   -0.85    2.14
 -11   2  15   -3.46    1.76
 -10   2  15    0.60    2.45
 -10   2  15   -3.53    1.34
  -9   2  15    5.32    3.03
  -9   2  15    5.82    2.40
  -8   2  15   33.38    5.83
  -7   2  15    0.22    2.34
  -6   2  15    6.67    3.03
  -5   2  15    1.08    2.29
  -4   2  15   74.49    8.28
  -3   2  15   -0.16    2.00
  -2   2  15    2.73    3.09
  -1   2  15   88.98    9.94
   0  -2 -15   20.01    5.08
   0   2  15   10.87    4.90
  -1  -2 -15    0.59    1.78
   1   2  15    0.37    3.56
  -1  -2 -15    0.18    2.84
   2   2  15    4.91    4.68
  -2  -2 -15   11.03    3.93
  -2  -2 -15    6.26    2.63
   3   2  15   -0.51    3.55
  -3  -2 -15    0.01    2.46
  -3  -2 -15   -0.45    1.71
   4   2  15   47.28    8.66
  -4  -2 -15   48.74    6.09
   5   2  15   52.00    8.88
  -5  -2 -15   44.18    6.14
  -6  -2 -15   41.74    5.95
  -7  -2 -15   10.37    3.23
  -8  -2 -15    1.82    2.47
  -9  -2 -15   19.10    4.84
 -10  -2 -15    5.17    4.45
 -15   3  15    1.22    1.40
 -13   3  15   35.06    6.56
 -13   3  15   31.64    5.49
 -12   3  15  233.99   18.85
 -12   3  15  231.25   15.89
 -11   3  15    6.20    3.37
 -11   3  15    5.48    2.43
 -10   3  15   -1.41    2.21
 -10   3  15    2.98    1.91
  -9   3  15   73.72    9.07
  -9   3  15   74.45    7.15
  -8   3  15   18.30    3.85
  -8   3  15   22.33    5.11
  -7   3  15  107.39   10.41
  -6   3  15    0.66    1.87
  -5   3  15    4.95    2.74
  -4   3  15   48.98    6.84
  -3   3  15   92.76    9.80
   2  -3 -15   -3.64    2.34
  -2   3  15    3.12    3.11
   1  -3 -15    2.96    3.38
  -1   3  15    2.29    3.17
   0   3  15   -3.32    2.80
   0  -3 -15   -2.56    2.32
   0  -3 -15    1.64    1.91
  -1  -3 -15   48.26    7.15
  -1  -3 -15   62.78    6.06
   1   3  15   57.04    8.55
  -2  -3 -15   26.90    4.31
   2   3  15   25.94    6.60
  -2  -3 -15   25.68    5.34
  -3  -3 -15    7.89    2.52
   3   3  15    8.91    4.56
  -3  -3 -15    1.23    2.54
  -4  -3 -15  103.86    8.50
   4   3  15  102.22   12.32
  -5  -3 -15   12.38    3.57
  -6  -3 -15   58.78    7.16
  -7  -3 -15   -2.62    2.24
  -8  -3 -15   11.74    3.58
  -9  -3 -15    3.27    3.32
 -14   4  15  112.28    9.47
 -14   4  15   97.27   10.86
 -13   4  15   10.42    4.30
 -13   4  15    6.33    2.93
 -12   4  15    4.53    3.10
 -12   4  15   -2.72    1.69
 -11   4  15    5.93    3.39
 -11   4  15    9.68    2.89
 -10   4  15    4.68    2.45
 -10   4  15    5.07    3.21
  -9   4  15    1.31    1.85
  -9   4  15   -0.04    2.37
  -8   4  15   -0.99    1.44
  -8   4  15    1.54    2.37
  -7   4  15   91.97    9.67
  -6   4  15  114.74   11.04
  -5   4  15   30.31    5.74
  -4   4  15  106.57   10.49
   3  -4 -15   -0.28    3.07
  -3   4  15    4.63    3.15
   2  -4 -15    1.91    2.56
  -2   4  15   -2.03    2.41
   1  -4 -15    6.53    3.77
  -1   4  15   11.38    4.37
   0   4  15    4.24    3.74
   0  -4 -15    5.38    2.19
   0  -4 -15    4.99    3.38
  -1  -4 -15   43.39    6.98
   1   4  15   53.64    8.27
  -1  -4 -15   52.84    5.63
   2   4  15    3.94    3.71
  -2  -4 -15    6.31    2.47
  -2  -4 -15    9.60    3.67
   3   4  15   13.80    5.08
  -3  -4 -15   10.30    3.41
  -3  -4 -15    8.82    2.82
  -4  -4 -15  193.79   12.68
  -5  -4 -15   26.47    4.98
  -6  -4 -15    6.31    2.66
  -7  -4 -15    4.50    2.67
  -8  -4 -15   -2.02    2.55
  -9  -4 -15    2.74    4.09
 -15   5  15   11.28    3.21
 -15   5  15   10.63    4.13
 -14   5  15    6.51    3.88
 -14   5  15   13.06    3.46
 -13   5  15    8.88    4.20
 -13   5  15   11.78    3.56
 -12   5  15   18.06    4.52
 -12   5  15   17.25    5.22
 -11   5  15    0.16    2.02
 -11   5  15    2.66    2.87
 -10   5  15    0.67    2.65
 -10   5  15    4.12    2.59
  -9   5  15    8.15    3.10
  -9   5  15   11.05    4.23
  -8   5  15    6.08    3.48
  -8   5  15    6.46    2.87
  -7   5  15  201.08   16.92
  -7   5  15  220.32   14.64
  -6   5  15   68.19    8.52
  -5   5  15    0.97    2.32
   4  -5 -15  103.21   10.74
  -4   5  15   81.14    9.28
  -3   5  15    0.74    2.48
   3  -5 -15    2.36    3.06
   2  -5 -15    2.23    2.83
  -2   5  15    1.19    2.61
  -1   5  15   98.14   10.32
   1  -5 -15   85.29    9.85
   0   5  15   83.35    9.83
   0  -5 -15   78.81    9.13
   0  -5 -15   64.53    6.19
  -1  -5 -15    4.78    2.32
  -1  -5 -15    3.58    3.05
   1   5  15    0.61    3.50
  -2  -5 -15    5.82    3.51
  -2  -5 -15   11.08    2.84
   2   5  15   12.35    5.03
  -3  -5 -15    8.93    3.37
  -3  -5 -15    7.12    2.53
  -4  -5 -15   40.31    5.70
  -5  -5 -15    2.06    1.95
  -6  -5 -15    7.31    2.56
  -7  -5 -15   -0.82    2.35
  -8  -5 -15   -7.25    2.45
 -14   6  15    4.88    2.37
 -14   6  15    5.96    3.30
 -13   6  15   29.12    6.71
 -13   6  15   27.85    5.52
 -12   6  15   22.50    5.02
 -12   6  15   17.75    5.57
 -11   6  15  173.11   13.81
 -11   6  15  189.65   16.66
 -10   6  15   50.39    8.55
 -10   6  15   55.09    7.37
  -9   6  15   11.47    4.61
  -9   6  15   12.63    3.89
  -8   6  15   32.09    5.54
  -8   6  15   35.67    6.82
  -7   6  15   68.12    7.60
  -7   6  15   66.70    8.86
  -6   6  15   13.24    4.21
   5  -6 -15   40.33    7.46
  -5   6  15   38.50    6.65
  -4   6  15    2.84    2.79
   4  -6 -15    0.61    2.79
  -3   6  15    0.97    2.47
   3  -6 -15    1.01    2.59
  -2   6  15    8.93    4.02
   2  -6 -15    5.30    3.75
   1  -6 -15  215.95   16.58
  -1   6  15  216.34   17.81
   0   6  15   -0.48    2.95
   0  -6 -15    5.96    3.57
   1   6  15    4.87    3.93
  -1  -6 -15    5.25    3.14
  -2  -6 -15   13.43    4.41
  -3  -6 -15   17.02    4.98
 -12   7  15  141.45   12.13
 -12   7  15  141.91   14.47
 -11   7  15   57.86    7.96
 -11   7  15   58.33    9.61
 -10   7  15    1.45    3.24
 -10   7  15    1.14    2.31
  -9   7  15   37.61    7.39
  -9   7  15   40.61    6.48
  -8   7  15    4.76    3.28
  -8   7  15   -2.13    1.82
  -7   7  15   44.59    7.44
  -7   7  15   43.36    6.39
   6  -7 -15   93.87   11.20
  -6   7  15  101.64   10.51
  -6   7  15   99.25    8.75
  -5   7  15   62.00    8.51
   5  -7 -15   76.07    9.55
  -4   7  15   15.25    4.78
   4  -7 -15   23.68    5.75
  -3   7  15    3.90    3.28
   3  -7 -15   11.71    4.52
  -2   7  15   31.57    6.43
   2  -7 -15   27.41    6.14
  -1   7  15   90.77   10.05
   1  -7 -15   89.23   10.33
   0  -7 -15    7.46    3.70
   0   7  15    4.60    4.08
   1   7  15    4.32    3.75
  -1  -7 -15    1.59    3.10
  -2  -7 -15    7.87    3.77
  -3  -7 -15    7.88    3.36
  18  -8 -15  -12.77    5.84
  17  -8 -15   42.58   11.18
  16  -8 -15    8.01    7.02
  15  -8 -15   -0.05    5.05
  14  -8 -15   10.64    6.68
 -11   8  15   26.00    5.45
 -11   8  15   29.51    7.18
 -10   8  15   10.13    3.90
 -10   8  15    6.37    4.43
  -9   8  15   39.22    6.48
  -9   8  15   34.17    7.36
  -8   8  15    2.60    2.69
  -8   8  15    2.33    3.17
  -7   8  15   25.78    5.21
   7  -8 -15   16.08    5.61
  -7   8  15   23.12    5.62
   6  -8 -15  109.31   11.91
  -6   8  15  106.02   10.89
  -6   8  15  102.81    9.02
  -5   8  15    4.43    2.99
   5  -8 -15   -1.19    2.70
   4  -8 -15    0.35    2.54
  -4   8  15   -0.86    2.39
   3  -8 -15   19.92    5.42
  -3   8  15   14.79    4.73
   2  -8 -15   45.68    7.65
  -2   8  15   38.23    7.02
  -1   8  15   45.38    7.62
   1  -8 -15   62.10    8.76
   0   8  15   31.91    6.77
   0  -8 -15   30.95    6.67
  -1  -8 -15   21.86    5.47
  -2  -8 -15    0.17    2.32
  -3  -8 -15   10.66    4.25
  18  -9 -15   -3.84    5.66
  17  -9 -15   53.48   12.45
  16  -9 -15   70.39   13.81
  15  -9 -15   15.50    8.31
  14  -9 -15   35.79   10.40
  13  -9 -15   -1.29    5.14
 -11   9  15  224.73   17.03
 -11   9  15  226.75   20.40
 -10   9  15  112.73   12.95
 -10   9  15  114.09   10.91
  -9   9  15   12.32    4.76
  -9   9  15   13.75    4.17
   8  -9 -15   49.39    9.21
  -8   9  15   58.59    7.88
  -8   9  15   82.82   10.31
   7  -9 -15    1.86    3.15
  -7   9  15    2.10    2.52
  -7   9  15    3.63    3.09
   6  -9 -15   -1.80    2.82
  -6   9  15   -1.77    1.67
  -6   9  15   -2.08    2.18
   5  -9 -15   32.96    7.08
  -5   9  15   31.41    6.22
   4  -9 -15    0.06    2.46
  -4   9  15    4.49    3.08
  -3   9  15   10.08    3.77
   3  -9 -15    7.93    4.36
   2  -9 -15   -0.07    2.15
  -2   9  15    0.68    2.73
  -1   9  15   -2.05    2.69
   1  -9 -15   -0.27    2.36
   0  -9 -15    4.72    3.27
  -1  -9 -15   10.12    4.56
  -2  -9 -15   12.37    4.97
  -3  -9 -15    1.88    3.11
  18 -10 -15    4.41    9.06
  17 -10 -15   23.49    9.99
  16 -10 -15    6.42    7.23
  15 -10 -15   35.23   10.67
  14 -10 -15   90.11   15.15
  13 -10 -15    6.16    7.14
 -11  10  15  236.86   17.67
 -11  10  15  213.73   20.44
 -10  10  15   76.94   11.37
 -10  10  15   63.11    8.98
   9 -10 -15   -2.08    3.31
  -9  10  15    4.51    3.70
  -9  10  15    7.76    3.40
   8 -10 -15    3.48    3.89
  -8  10  15    1.41    2.95
  -8  10  15    2.17    2.52
   7 -10 -15   43.05    8.51
  -7  10  15   61.10    7.64
  -7  10  15   48.53    7.99
  -6  10  15    2.66    2.72
   6 -10 -15    2.31    3.40
  -6  10  15    2.34    2.36
  -5  10  15    5.50    3.76
   5 -10 -15    5.10    3.33
   4 -10 -15    6.97    3.72
  -4  10  15    1.41    2.72
  -3  10  15   -1.89    2.11
   3 -10 -15    0.13    2.25
  -2  10  15    4.09    3.71
   2 -10 -15    7.15    3.68
   1 -10 -15   19.37    5.78
   0 -10 -15   25.79    6.50
  -1 -10 -15   34.25    7.00
  -2 -10 -15   12.99    4.50
  -3 -10 -15   10.68    4.20
  18 -11 -15    4.47    9.84
  17 -11 -15   23.93   10.43
  16 -11 -15   10.02    7.72
  15 -11 -15   53.59   12.83
  14 -11 -15   25.97    9.57
  13 -11 -15    6.21    6.78
 -11  11  15   95.73   11.48
 -11  11  15  111.42   14.14
  10 -11 -15   -0.05    3.76
 -10  11  15    8.07    4.69
 -10  11  15   10.52    3.95
   9 -11 -15   23.67    6.70
  -9  11  15   34.75    6.45
  -9  11  15   28.05    7.11
  -8  11  15    4.77    3.15
   8 -11 -15   -0.38    3.08
  -8  11  15    2.59    2.83
  -7  11  15    9.81    3.31
   7 -11 -15   13.86    5.58
  -7  11  15   14.47    4.62
  -6  11  15    4.93    2.55
  -6  11  15    7.45    3.59
   6 -11 -15    3.62    3.61
  -5  11  15    1.37    2.62
   5 -11 -15    1.75    2.72
   4 -11 -15   23.06    6.44
  -4  11  15   25.25    5.87
   3 -11 -15    3.02    3.04
  -3  11  15   -0.86    2.59
   2 -11 -15   25.82    6.34
   1 -11 -15    1.59    3.44
   0 -11 -15   23.74    6.18
  -1 -11 -15   -5.68    2.06
  -2 -11 -15    4.48    2.80
  -3 -11 -15   31.73    6.53
  17 -12 -15   -1.14    5.82
  16 -12 -15   -4.00    3.79
  15 -12 -15    8.62    8.06
  14 -12 -15    4.55    7.36
  13 -12 -15    2.27    7.30
 -11  12  15    0.86    2.72
 -11  12  15    3.24    4.07
 -10  12  15   38.25    6.91
  10 -12 -15   23.09    6.82
 -10  12  15   45.49    9.14
   9 -12 -15   29.91    7.34
  -9  12  15   29.33    5.96
  -9  12  15   23.31    6.61
  -8  12  15    2.00    3.14
   8 -12 -15    0.40    3.40
  -8  12  15    0.05    2.13
  -7  12  15   -1.78    2.07
   7 -12 -15   -1.78    2.96
  -7  12  15   -0.55    2.61
  -6  12  15    0.03    2.57
   6 -12 -15   -1.19    2.82
  -5  12  15    8.89    3.93
   5 -12 -15   -0.66    2.27
   4 -12 -15    5.13    3.34
  -4  12  15    2.56    3.14
   3 -12 -15   34.84    7.45
   2 -12 -15    5.37    3.71
   1 -12 -15   28.55    6.84
   0 -12 -15    0.03    2.62
  -1 -12 -15   -2.48    2.22
  -2 -12 -15   14.91    4.87
  16 -13 -15    0.19    5.71
  15 -13 -15    0.71    4.92
  14 -13 -15    2.56    6.95
  13 -13 -15   23.65    8.77
  11 -13 -15   25.80    7.35
 -11  13  15   21.19    7.20
 -11  13  15   27.11    6.42
 -10  13  15    9.24    4.10
  10 -13 -15   10.95    4.69
 -10  13  15    6.98    4.96
  -9  13  15   -0.57    2.38
  -9  13  15    1.46    2.89
   9 -13 -15   -4.97    2.74
  -8  13  15    6.12    3.46
   8 -13 -15    3.76    3.92
  -8  13  15   -0.11    2.65
   7 -13 -15    8.30    4.57
  -7  13  15    0.92    2.21
  -7  13  15    0.37    2.66
  -6  13  15   17.87    5.23
   6 -13 -15   24.93    7.06
  -5  13  15   13.56    4.57
   5 -13 -15   15.71    5.24
   4 -13 -15    4.94    3.62
   3 -13 -15   31.65    7.67
   2 -13 -15   31.62    7.14
   1 -13 -15   11.28    4.58
   0 -13 -15   -1.30    2.70
  15 -14 -15   -5.41    5.12
  14 -14 -15   16.90    8.23
  13 -14 -15   -0.56    5.31
 -11  14  15    0.63    4.35
 -11  14  15    0.37    2.94
  11 -14 -15    7.17    4.76
 -10  14  15    3.45    3.21
  10 -14 -15    1.92    3.49
 -10  14  15   -0.46    4.08
  -9  14  15    7.58    3.54
  -9  14  15    1.36    3.43
   9 -14 -15    3.66    4.23
  -8  14  15    0.19    2.23
  -8  14  15   -0.31    3.15
   8 -14 -15    1.69    3.63
  -7  14  15    0.63    2.19
   7 -14 -15    4.37    4.31
  -7  14  15    2.99    3.02
   6 -14 -15   -0.87    3.64
  -6  14  15   11.02    4.05
   5 -14 -15   16.58    5.31
   4 -14 -15    0.63    2.55
   3 -14 -15   18.27    6.09
   2 -14 -15   39.55    8.18
  14 -15 -15    2.09    5.39
 -12  15  15   -1.96    3.01
 -12  15  15    1.73    3.05
  12 -15 -15   -0.14    4.18
 -11  15  15   -8.50    3.42
  11 -15 -15    2.75    4.49
 -11  15  15    0.43    3.10
 -10  15  15    5.55    4.59
  10 -15 -15    0.96    3.93
 -10  15  15    4.02    3.19
  -9  15  15    4.39    3.07
   9 -15 -15   -2.58    3.56
  -9  15  15    9.08    4.72
  -8  15  15   12.13    4.82
   8 -15 -15    0.11    3.85
  -8  15  15   18.98    4.54
  -7  15  15   21.17    4.61
  -7  15  15   20.46    5.54
   6 -15 -15    1.38    2.91
   5 -15 -15   54.10    9.52
   4 -15 -15   -2.56    3.20
  12 -16 -15   -2.80    4.39
 -12  16  15   -6.48    3.06
 -12  16  15    2.24    4.14
  11 -16 -15    5.01    5.53
 -11  16  15    0.30    4.37
 -11  16  15    2.57    3.71
 -10  16  15    1.68    3.44
 -10  16  15    2.39    4.04
  10 -16 -15   -0.98    3.47
  -9  16  15   -1.10    2.87
   9 -16 -15   -2.77    2.82
  -9  16  15   -0.36    2.37
  -8  16  15    3.63    2.78
  -8  16  15    2.29    3.54
   8 -16 -15    0.27    3.44
   7 -16 -15   -0.10    3.92
 -11  17  15   41.76    8.75
 -11  17  15   41.10    9.73
 -10  17  15   15.38    5.93
 -10  17  15   12.87    5.88
  -9  17  15    1.78    3.56
  -9  17  15    1.55    4.15
   0 -18  16   10.56    4.91
   1 -18  16   24.27    5.89
   6 -18  16   32.06   10.37
   7 -18  16   30.10   10.40
   8 -18  16   31.63   10.90
  -2 -17  16    8.73    4.47
  -1 -17  16   10.76    4.64
   0 -17  16    7.23    3.60
   1 -17  16   20.71    5.17
   5 -17  16   61.60   12.44
   6 -17  16   24.64    8.13
   7 -17  16   11.67    6.20
   8 -17  16   15.88    7.58
   9 -17  16   24.80    9.49
  -3 -16  16    1.30    3.18
  -2 -16  16   25.37    6.17
  -1 -16  16    2.52    3.01
   0 -16  16   16.79    4.45
   1 -16  16   58.48    7.64
   4 -16  16   14.38    6.30
   5 -16  16   42.40   10.78
   6 -16  16   18.26    7.86
   7 -16  16   12.14    6.49
   8 -16  16   12.20    7.06
   9 -16  16   27.07    9.65
  -5 -15  16    2.15    3.59
  -4 -15  16    1.16    2.86
  -3 -15  16    9.31    4.04
  -2 -15  16    0.67    2.75
  -1 -15  16    9.21    3.62
   0 -15  16   43.41    6.63
   1 -15  16   82.95    8.71
   3 -15  16    3.10    5.74
   4 -15  16   23.39    8.18
   5 -15  16   63.83   12.57
   6 -15  16   25.77    9.17
   7 -15  16   76.09   14.15
   8 -15  16   10.23    7.01
   9 -15  16   -2.39    5.43
  10 -15  16   27.91    9.70
  -6 -14  16   -0.35    3.29
  -5 -14  16    1.67    2.97
  -4 -14  16    9.62    4.15
  -3 -14  16   19.55    4.99
  -2 -14  16    2.94    2.42
  -1 -14  16   99.63    9.51
   0 -14  16   63.97    7.69
   1 -14  16   -0.77    1.80
   2 -14  16   38.75    9.43
   3 -14  16   13.23    6.38
   4 -14  16   37.07    9.89
   5 -14  16    6.52    5.32
   6 -14  16    2.42    5.35
   7 -14  16    7.00    6.67
   8 -14  16    1.54    5.80
   9 -14  16    5.72    6.22
  10 -14  16   -0.75    5.89
  11 -14  16   -1.41    7.29
  -7 -13  16    1.96    3.29
  -6 -13  16   -5.10    2.72
  -5 -13  16   20.93    5.20
  -4 -13  16   15.26    4.54
  -3 -13  16    4.27    2.65
  -2 -13  16    2.05    1.98
  -1 -13  16   54.30    7.14
   0 -13  16    3.76    2.12
   1 -13  16   50.73    9.52
   1 -13  16   45.83    6.19
   2 -13  16  126.80   15.65
   2 -13  16  156.70   11.50
   3 -13  16   63.16   11.43
   4 -13  16   32.50    9.13
   5 -13  16    7.30    6.09
   6 -13  16    1.23    5.82
   7 -13  16    2.44    5.37
   8 -13  16   17.13    7.22
   9 -13  16    2.17    6.41
  10 -13  16    4.86    7.07
  11 -13  16    2.62    6.18
  -8 -12  16    3.91    3.20
  -7 -12  16   -2.73    2.47
  -6 -12  16   35.21    6.63
  -5 -12  16   37.28    6.56
  -4 -12  16    0.15    1.92
  -3 -12  16   15.16    4.21
  -2 -12  16   27.11    4.91
  -1 -12  16   21.63    4.47
   0 -12  16   15.94    6.55
   1 -12  16   36.82    8.49
   1 -12  16   40.48    5.53
   2 -12  16    2.33    1.84
   2 -12  16   -4.36    4.38
   3 -12  16   28.80    8.80
   4 -12  16    3.15    5.72
   5 -12  16   13.22    7.43
   6 -12  16   62.60   12.36
   7 -12  16    2.13    5.50
   8 -12  16   58.64   12.98
   9 -12  16   39.03   11.60
  10 -12  16    6.92    9.56
  11 -12  16   -0.88    5.53
  12 -12  16    2.34    7.26
  -9 -11  16   47.08    7.77
  -8 -11  16    0.55    2.22
  -7 -11  16   21.72    5.67
  -6 -11  16   58.57    7.90
  -5 -11  16   16.16    4.14
  -4 -11  16   27.81    5.29
  -3 -11  16    8.43    3.48
  -2 -11  16   22.84    4.40
  -1 -11  16   15.65    6.04
  -1 -11  16    7.68    2.82
   0 -11  16   40.82    8.44
   0 -11  16   46.93    5.78
   1 -11  16   23.40    7.16
   1 -11  16   28.94    4.43
   2 -11  16    9.20    2.69
   2 -11  16   13.62    6.67
   3 -11  16   11.74    6.09
   4 -11  16    3.72    5.50
   5 -11  16   24.49    8.64
   6 -11  16    8.49    7.02
   7 -11  16   32.50   10.35
   8 -11  16   72.82   13.58
   9 -11  16   34.55   11.30
  10 -11  16   15.63    9.87
  11 -11  16    4.48    7.46
  12 -11  16    1.62    6.87
 -10 -10  16   68.54    9.59
  -9 -10  16   18.28    4.41
  -8 -10  16    5.19    2.39
  -7 -10  16   12.01    3.88
  -6 -10  16   24.84    5.24
  -5 -10  16    0.89    1.85
  -4 -10  16   69.35    8.11
  -3 -10  16    2.83    2.12
  -2 -10  16   92.16   10.99
  -2 -10  16   75.06    8.09
  -1 -10  16   39.85    7.92
  -1 -10  16   40.98    5.67
   0 -10  16   12.95    5.85
   0 -10  16   13.71    3.28
   1 -10  16   59.68    6.33
   1 -10  16   60.13   10.32
   2 -10  16    2.66    4.74
   2 -10  16   -0.16    1.36
   3 -10  16    3.99    5.00
   4 -10  16    0.39    4.95
   5 -10  16   15.47    7.62
   6 -10  16   10.38    6.40
   7 -10  16   50.46   11.38
   8 -10  16   43.25   11.63
   9 -10  16   32.97   11.13
  10 -10  16    5.50    8.38
  11 -10  16    4.20    8.40
  12 -10  16    9.53    9.34
 -12  10 -16   49.62    7.92
 -11  -9  16    7.73    3.55
 -10  -9  16   20.79    4.70
  -9  -9  16    3.75    2.24
  -8  -9  16   -0.81    1.42
  -7  -9  16    5.47    3.04
  -6  -9  16   30.05    5.83
  -5  -9  16    0.59    1.82
  -4  -9  16    6.83    2.59
  -3  -9  16    3.29    4.53
  -3  -9  16    3.97    2.26
  -2  -9  16  143.06   14.16
  -2  -9  16  139.69   10.70
  -1  -9  16   21.47    6.58
  -1  -9  16   16.46    3.64
   0  -9  16   11.25    2.94
   0  -9  16   10.69    5.89
   1  -9  16    5.53    2.14
   1  -9  16    2.60    5.43
   2  -9  16   16.44    7.22
   3  -9  16   15.07    6.81
   4  -9  16   67.71   11.53
   5  -9  16   14.99    6.74
   6  -9  16   15.44    6.92
   7  -9  16   41.38   10.76
   8  -9  16   34.39   11.08
   9  -9  16   -2.30    6.27
  10  -9  16   37.71   11.30
  11  -9  16  100.36   16.99
 -11   9 -16   83.72   10.28
  12  -9  16   13.31   10.10
 -12   9 -16    6.93    4.08
  13  -9  16   28.27   12.65
 -12  -8  16   40.07    7.15
 -11  -8  16   11.92    3.64
 -10  -8  16   40.89    7.07
  -9  -8  16    6.82    2.52
  -8  -8  16    4.65    2.36
  -7  -8  16   14.79    4.01
  -6  -8  16   -4.03    1.25
  -5  -8  16   29.11    5.02
  -4  -8  16    3.60    2.03
  -3  -8  16    2.74    1.75
  -3  -8  16    1.29    4.16
  -2  -8  16    2.65    1.78
  -2  -8  16    5.18    4.68
  -1  -8  16   -1.69    4.51
  -1  -8  16    2.31    1.74
   0  -8  16    5.28    5.12
   0  -8  16    3.26    1.65
   1  -8  16   22.04    7.31
   1  -8  16   28.47    3.99
   2  -8  16   98.07   12.92
   3  -8  16   84.05   12.08
   4  -8  16    8.64    5.46
   5  -8  16   75.02   12.25
   6  -8  16  102.23   14.63
   7  -8  16   97.74   14.60
   8  -8  16    5.86    7.01
  -9   8 -16   12.54    3.94
   9  -8  16   13.47    8.36
  10  -8  16   69.01   14.06
 -10   8 -16   84.38    9.66
  11  -8  16    0.81    7.55
 -11   8 -16    0.28    2.79
 -12   8 -16    9.11    3.30
  12  -8  16   -0.01    7.50
  13  -8  16    4.26   10.61
 -13  -7  16   13.06    3.89
 -12  -7  16   40.52    7.07
 -11  -7  16    8.42    3.46
 -10  -7  16    1.80    1.95
  -9  -7  16   -2.48    1.54
  -8  -7  16   20.29    4.51
  -7  -7  16    1.98    2.22
  -6  -7  16    0.68    1.71
  -5  -7  16   23.91    4.46
  -4  -7  16   14.19    5.93
  -4  -7  16   12.17    3.26
  -3  -7  16    1.36    1.43
  -3  -7  16   -2.68    3.98
  -2  -7  16  116.03    8.88
  -2  -7  16  104.98   12.12
  -1  -7  16  112.67   12.35
  -1  -7  16  110.83    8.59
   0  -7  16    2.64    4.74
   0  -7  16    1.25    1.24
   1  -7  16   37.32    4.31
   1  -7  16   26.06    7.74
   2  -7  16  192.75   17.87
   2  -7  16  176.04   11.49
   3  -7  16   50.35   10.02
   4  -7  16   35.61    8.91
   5  -7  16  164.17   17.41
   6  -7  16  169.64   18.31
   7  -7  16   18.20    8.35
   8  -7  16   12.40    7.68
  -8   7 -16    7.35    3.59
   9  -7  16   -1.88    5.11
  -9   7 -16    2.91    2.91
 -10   7 -16   -0.32    2.59
  10  -7  16    3.67    7.75
 -11   7 -16   15.91    4.74
  11  -7  16   11.48    8.48
 -12   7 -16   12.99    4.19
  12  -7  16    7.71    8.26
 -14  -6  16   14.49    3.87
 -13  -6  16    0.66    2.45
 -12  -6  16   -2.18    1.84
 -11  -6  16   -0.26    1.68
 -10  -6  16    3.44    1.75
  -9  -6  16    3.88    2.59
  -8  -6  16   -2.11    1.49
  -7  -6  16    0.00    1.72
  -6  -6  16  120.26   10.14
  -5  -6  16   -0.11    4.14
  -5  -6  16    2.73    2.06
  -4  -6  16    1.92    4.13
  -4  -6  16    0.05    1.65
  -3  -6  16  112.76   12.09
  -3  -6  16  105.13    8.72
  -2  -6  16  121.79   13.02
  -2  -6  16  127.81    9.50
  -1  -6  16   47.97    8.32
  -1  -6  16   46.63    5.22
   0  -6  16    1.28    4.66
   0  -6  16    0.41    1.01
   1  -6  16   47.38    4.94
   1  -6  16   53.83    9.02
   2  -6  16   12.54    2.59
   2  -6  16   14.78    6.33
   3  -6  16   12.27    6.29
   4  -6  16   47.43    9.71
   5  -6  16  235.45   21.65
   6  -6  16    2.61    5.39
  -7   6 -16    1.26    2.63
   7  -6  16    5.42    5.99
   8  -6  16    9.38    6.79
  -8   6 -16    8.11    3.12
  -9   6 -16    3.37    2.86
   9  -6  16    4.73    6.76
  10  -6  16   20.13    9.02
 -10   6 -16   23.92    5.38
 -11   6 -16    7.38    3.51
  11  -6  16   12.94    8.78
 -12   6 -16    4.06    3.36
  12  -6  16    1.68    8.36
 -15  -5  16   20.04    3.89
 -14  -5  16    4.40    2.31
 -13  -5  16   33.58    6.10
 -12  -5  16   16.44    4.15
 -11  -5  16    1.71    2.15
 -10  -5  16   -0.69    1.81
  -9  -5  16   87.60    8.50
  -8  -5  16   43.92    6.53
  -7  -5  16  168.29   12.74
  -6  -5  16  162.85   14.67
  -6  -5  16  173.13   12.61
  -5  -5  16   47.93    7.72
  -5  -5  16   47.96    6.05
  -4  -5  16    8.64    4.85
  -4  -5  16    4.96    2.06
  -3  -5  16  269.86   21.21
  -3  -5  16  276.52   17.35
  -2  -5  16   43.94    7.72
  -1  -5  16    6.14    4.62
   0  -5  16  166.46   15.83
   1  -5  16   73.04   10.51
   2  -5  16   61.62    9.92
   3  -5  16   15.68    6.42
   4  -5  16   25.93    8.15
   5  -5  16   -0.48    4.69
  -6   5 -16   -0.95    2.30
   6  -5  16    6.27    5.21
   7  -5  16    6.93    6.32
  -7   5 -16    9.14    3.51
  -8   5 -16    2.60    2.54
   8  -5  16    8.24    6.11
  -9   5 -16    0.80    2.80
   9  -5  16    4.77    6.28
 -10   5 -16   -2.07    2.70
  10  -5  16    2.09    6.39
  11  -5  16   16.20    9.27
 -11   5 -16    0.53    2.45
 -15  -4  16    0.64    2.18
 -14  -4  16   -0.59    2.22
 -13  -4  16    2.31    2.35
 -12  -4  16    6.46    2.95
 -11  -4  16    0.15    1.99
 -10  -4  16   42.46    6.53
  -8  -4  16  100.69    9.05
  -7  -4  16  328.10   24.32
  -7  -4  16  347.25   21.50
  -6  -4  16  177.67   15.13
  -6  -4  16  175.18   12.83
  -5  -4  16    9.98    2.97
  -5  -4  16   15.03    5.04
  -4  -4  16  324.16   23.83
  -3  -4  16  182.63   15.94
  -2  -4  16   49.37    8.07
  -1  -4  16   76.09    9.79
   0  -4  16  115.50   12.42
   1  -4  16   69.37   10.09
   2  -4  16    5.18    4.84
   3  -4  16   10.55    6.11
   4  -4  16   17.17    6.87
  -5   4 -16    2.04    2.65
   5  -4  16   10.10    6.20
  -6   4 -16    4.79    2.95
   6  -4  16    4.43    5.69
   7  -4  16   -1.02    4.95
  -7   4 -16    3.92    2.92
  -8   4 -16   19.50    4.79
   8  -4  16   20.07    7.72
  -9   4 -16    6.94    3.13
   9  -4  16   17.82    7.92
 -10   4 -16    9.01    3.81
  10  -4  16   17.18    7.50
 -11   4 -16    0.33    2.50
 -15  -3  16    0.14    1.58
 -14  -3  16   15.38    4.10
 -13  -3  16    7.91    2.70
 -12  -3  16    2.34    2.05
 -11  -3  16   19.56    4.36
 -10  -3  16   65.73    7.83
  -9  -3  16    6.76    2.75
  -8  -3  16  141.10   13.03
  -8  -3  16  156.29   11.71
  -7  -3  16  384.37   27.23
  -7  -3  16  389.34   23.68
  -6  -3  16   26.65    5.59
  -5  -3  16   71.55    8.79
  -4  -3  16   88.89    9.84
  -3  -3  16  110.99   11.35
  -2  -3  16   51.48    7.88
  -1  -3  16  205.90   17.55
   0  -3  16   20.23    5.94
   1  -3  16  105.97   12.24
   2  -3  16  135.30   14.30
   3  -3  16    4.86    5.06
   4  -3  16   -1.90    4.44
  -4   3 -16    2.70    2.40
   5  -3  16    2.53    4.73
  -5   3 -16   -0.43    1.86
   6  -3  16    3.22    5.10
  -6   3 -16    1.05    2.62
  -7   3 -16   23.21    5.20
   7  -3  16   31.86    8.54
   8  -3  16    9.52    6.57
  -8   3 -16   14.98    3.80
   9  -3  16    3.47    6.06
  -9   3 -16    5.96    3.41
 -10   3 -16    6.38    3.53
 -11   3 -16    3.16    3.48
 -15  -2  16   73.71    8.58
 -14  -2  16    3.35    2.22
 -13  -2  16   22.55    4.49
 -12  -2  16   46.14    6.61
 -11  -2  16   19.90    4.17
 -10  -2  16   60.93    7.33
  -9  -2  16  158.86   14.03
  -9  -2  16  174.20   12.66
  -8  -2  16  323.39   23.46
  -7  -2  16   76.26    8.69
  -6  -2  16    7.72    3.71
  -5  -2  16   58.39    8.05
  -4  -2  16  147.79   13.27
  -3  -2  16   20.22    5.50
  -2  -2  16   -1.07    2.88
  -1  -2  16   18.98    5.65
   0  -2  16   34.09    7.00
   1  -2  16   57.91    8.98
   2  -2  16    1.94    4.53
   3  -2  16   25.58    7.22
  -3   2 -16   19.92    4.26
   4  -2  16   27.20    7.25
  -4   2 -16   29.91    5.01
   5  -2  16    1.51    4.90
  -5   2 -16    2.14    2.49
   6  -2  16   37.55    8.56
  -6   2 -16   22.10    4.89
  -7   2 -16  117.30    9.52
   7  -2  16  104.14   13.92
   8  -2  16   19.70    7.91
  -8   2 -16   16.64    4.24
  -9   2 -16   37.41    6.24
 -10   2 -16   -0.25    2.64
 -11   2 -16   -0.58    3.51
 -16  -1  16   70.29    8.25
 -15  -1  16   18.76    3.95
 -14  -1  16    2.09    2.07
 -13  -1  16  127.81   10.63
 -12  -1  16   68.02    7.76
 -11  -1  16   41.52    5.92
 -10  -1  16   38.49    6.02
  -9  -1  16   48.12    6.90
  -8  -1  16   12.52    4.24
  -7  -1  16    2.34    2.74
  -6  -1  16   71.90    8.67
  -5  -1  16  235.26   18.43
  -4  -1  16   52.04    7.47
  -3  -1  16   14.38    4.74
  -2  -1  16    0.38    2.82
  -1  -1  16   78.36    9.72
   0  -1  16    4.27    4.04
   1  -1  16   92.60   11.34
   2  -1  16   12.88    5.51
  -3   1 -16    4.32    2.49
   3  -1  16    9.47    5.26
   4  -1  16    4.64    5.22
  -4   1 -16    0.31    2.10
  -5   1 -16   21.55    4.27
   5  -1  16   27.84    7.46
  -6   1 -16   20.64    4.37
   6  -1  16   17.86    6.59
   7  -1  16  153.65   16.32
  -7   1 -16  139.12   10.99
   8  -1  16   22.14    7.67
  -8   1 -16   15.69    3.97
  -9   1 -16   32.73    5.99
 -10   1 -16   -0.45    2.71
 -15   0  16    1.30    1.75
 -14   0  16    6.51    2.33
 -13   0  16   58.04    7.04
 -12   0  16   44.46    6.07
 -11   0  16    5.07    3.23
 -10   0  16   29.35    5.74
  -9   0  16   12.30    3.91
  -8   0  16   11.60    3.74
  -7   0  16    3.20    2.83
  -6   0  16  225.08   17.65
  -5   0  16  166.75   14.15
  -4   0  16    7.98    3.52
  -3   0  16    8.05    3.43
  -2   0  16   23.52    5.58
  -1   0  16   80.65    9.91
   0   0  16   36.52    7.20
   1   0  16    3.61    3.93
  -2   0 -16   57.26    6.20
   2   0  16   43.06    8.30
  -3   0 -16    6.08    2.73
   3   0  16    5.96    5.54
   4   0  16   15.69    6.11
  -4   0 -16   20.74    4.25
   5   0  16   19.68    6.78
  -5   0 -16   18.90    4.13
   6   0  16   38.64    9.11
  -6   0 -16   41.57    6.17
  -7   0 -16    6.20    2.91
   7   0  16   10.99    6.32
  -8   0 -16   30.37    5.98
  -9   0 -16   33.58    6.36
 -10   0 -16   -1.84    3.58
 -15   1  16    1.22    1.73
 -14   1  16   11.17    3.23
 -13   1  16  110.14    9.20
 -12   1  16   30.97    5.89
 -11   1  16   36.86    6.29
 -10   1  16   64.66    8.34
  -9   1  16   -0.34    2.36
  -8   1  16   -1.30    1.85
  -7   1  16    7.66    3.27
  -6   1  16    6.09    2.94
  -5   1  16   92.84    9.64
  -4   1  16   21.76    5.05
  -3   1  16    0.92    2.07
  -2   1  16   50.60    7.72
  -1   1  16   39.15    7.26
   0   1  16   -0.96    3.12
   1   1  16   13.03    5.57
  -2  -1 -16  226.39   13.97
   2   1  16  234.14   19.71
  -3  -1 -16   92.66    7.94
   3   1  16   95.92   12.03
  -3  -1 -16  100.85   10.19
  -4  -1 -16  145.28   10.52
   4   1  16  146.71   15.16
  -5  -1 -16   10.82    3.19
   5   1  16    2.20    4.22
  -6  -1 -16   -1.05    1.89
   6   1  16    3.50    4.91
  -7  -1 -16   35.75    5.99
  -8  -1 -16   46.81    7.10
  -9  -1 -16   34.34    6.57
 -10  -1 -16    0.83    3.87
 -18   2  16   33.29    4.03
 -15   2  16   38.05    5.47
 -14   2  16   63.52    6.25
 -13   2  16  130.61   10.13
 -13   2  16  115.34   11.74
 -12   2  16   34.25    6.46
 -12   2  16   33.94    5.32
 -11   2  16   44.93    5.96
 -11   2  16   37.38    6.68
 -10   2  16   31.57    6.02
  -9   2  16    4.73    2.87
  -8   2  16    2.68    2.77
  -7   2  16   27.59    5.69
  -6   2  16   23.54    5.03
  -5   2  16  176.66   14.66
  -4   2  16   23.14    5.14
  -3   2  16  124.18   12.00
  -2   2  16    2.84    3.25
  -1   2  16   13.87    4.75
   0   2  16   33.01    7.04
   1   2  16  157.34   14.98
  -1  -2 -16  148.45   10.26
  -1  -2 -16  157.83   13.21
  -2  -2 -16    6.24    3.67
   2   2  16   14.91    5.85
  -2  -2 -16    6.04    2.78
  -3  -2 -16   77.35    7.46
  -3  -2 -16   81.07    8.77
   3   2  16   73.18   10.41
   4   2  16   61.14    9.76
  -4  -2 -16   63.07    7.05
   5   2  16   -0.10    4.50
  -5  -2 -16    1.02    2.37
  -6  -2 -16    3.69    2.59
  -7  -2 -16   48.08    6.84
  -8  -2 -16   24.60    5.26
  -9  -2 -16    1.05    3.13
 -15   3  16    7.66    2.35
 -14   3  16   38.79    7.05
 -14   3  16   35.25    5.57
 -13   3  16   23.69    6.13
 -13   3  16   32.50    5.43
 -12   3  16   71.97    7.91
 -12   3  16   63.49    8.90
 -11   3  16    5.24    3.19
 -11   3  16    1.88    2.33
 -10   3  16  121.98    9.91
 -10   3  16  111.93   11.40
  -9   3  16    2.24    2.65
  -8   3  16    7.61    3.29
  -7   3  16    5.36    2.94
  -6   3  16   34.27    6.19
  -5   3  16  164.73   13.93
  -4   3  16  117.58   11.46
  -3   3  16   89.18    9.84
  -2   3  16   17.10    5.28
  -1   3  16  150.69   14.45
   1  -3 -16  163.17   13.66
   0  -3 -16   60.30    8.12
   0   3  16   58.03    8.69
  -1  -3 -16   10.94    4.08
  -1  -3 -16    6.83    2.61
   1   3  16   10.53    5.19
   2   3  16   14.46    5.52
  -2  -3 -16   10.09    2.86
  -2  -3 -16   12.67    4.19
  -3  -3 -16  126.72   11.24
   3   3  16  115.98   12.99
  -3  -3 -16  129.66    9.38
   4   3  16   61.14    9.87
  -4  -3 -16   49.70    6.41
  -5  -3 -16    1.31    2.35
  -6  -3 -16    0.14    2.08
  -7  -3 -16   51.56    6.91
  -8  -3 -16    6.30    3.30
  -9  -3 -16    5.38    4.55
 -14   4  16    8.21    3.33
 -14   4  16    5.72    3.71
 -13   4  16    1.51    3.02
 -13   4  16   -0.80    2.12
 -12   4  16    4.88    3.52
 -12   4  16    3.73    2.51
 -11   4  16   -0.94    1.73
 -11   4  16    1.97    2.86
 -10   4  16  273.54   17.93
 -10   4  16  256.82   20.84
  -9   4  16   58.96    8.25
  -9   4  16   46.50    6.49
  -8   4  16   36.65    6.73
  -7   4  16   42.98    7.01
  -6   4  16   10.95    4.22
  -5   4  16   74.30    9.12
  -4   4  16  106.61   10.66
   3  -4 -16   12.86    4.53
  -3   4  16    8.16    4.07
  -2   4  16   21.78    5.57
   2  -4 -16   10.89    4.60
  -1   4  16   58.13    8.42
   1  -4 -16   55.87    7.97
   0   4  16   34.78    7.38
   0  -4 -16   55.93    7.97
   0  -4 -16   59.83    5.80
  -1  -4 -16   23.01    5.37
  -1  -4 -16   17.76    3.82
   1   4  16   26.40    6.68
   2   4  16   68.12    9.65
  -2  -4 -16   51.91    7.81
  -2  -4 -16   72.39    6.90
   3   4  16   15.94    5.85
  -3  -4 -16   15.33    4.25
  -3  -4 -16   16.37    4.07
  -4  -4 -16    8.27    3.18
  -5  -4 -16    8.09    3.20
  -6  -4 -16    1.61    2.01
  -7  -4 -16   -2.24    2.41
  -8  -4 -16   -1.16    2.75
 -15   5  16   -1.23    2.53
 -15   5  16   -1.31    1.91
 -14   5  16    0.85    2.26
 -14   5  16    1.46    3.18
 -13   5  16   47.12    8.41
 -13   5  16   34.09    6.17
 -12   5  16    4.34    2.69
 -12   5  16    8.85    4.33
 -11   5  16    2.72    3.10
 -11   5  16   -2.41    1.92
 -10   5  16   58.94    7.53
 -10   5  16   50.60    8.46
  -9   5  16  108.13   11.06
  -9   5  16   89.34    8.68
  -8   5  16   39.01    6.92
  -8   5  16   34.59    5.72
  -7   5  16   48.46    7.55
  -6   5  16  435.18   30.59
  -5   5  16    2.57    2.85
   4  -5 -16   16.46    5.26
  -4   5  16   12.74    4.26
  -3   5  16    5.27    3.40
   3  -5 -16    2.46    3.09
  -2   5  16   14.61    4.96
   2  -5 -16   18.35    5.38
  -1   5  16   27.67    6.16
   1  -5 -16   20.26    5.72
   0   5  16   20.65    5.82
   0  -5 -16   17.69    5.13
   0  -5 -16   33.40    4.54
   1   5  16    1.55    3.46
  -1  -5 -16   -0.18    1.82
  -1  -5 -16    0.79    2.50
  -2  -5 -16   78.42    7.11
   2   5  16   51.04    8.88
  -2  -5 -16   64.53    8.54
  -3  -5 -16    2.52    2.29
  -3  -5 -16    2.69    2.61
  -4  -5 -16   19.23    4.26
  -5  -5 -16   10.08    3.47
  -6  -5 -16    4.05    2.33
  -7  -5 -16    5.25    3.02
  -8  -5 -16   28.94    6.72
 -16   6  16    7.59    3.58
 -16   6  16    6.32    2.57
 -15   6  16    8.45    4.43
 -15   6  16    4.83    2.73
 -14   6  16  164.02   16.03
 -14   6  16  168.53   13.55
 -13   6  16   34.10    6.21
 -13   6  16   13.66    5.35
 -12   6  16   16.74    4.48
 -12   6  16   18.52    5.75
 -11   6  16   12.94    3.97
 -11   6  16   16.97    5.23
 -10   6  16   17.57    4.81
 -10   6  16   20.81    5.85
  -9   6  16  275.97   18.38
  -9   6  16  256.23   21.39
  -8   6  16   89.55   10.10
  -8   6  16   83.49    8.83
  -7   6  16   64.27    8.76
  -6   6  16  170.99   15.09
  -5   6  16    2.13    2.88
   5  -6 -16    0.59    3.20
  -4   6  16   10.52    4.30
   4  -6 -16    6.76    3.92
   3  -6 -16   48.61    8.02
  -3   6  16   57.70    8.26
   2  -6 -16    4.74    3.56
  -2   6  16   17.01    5.08
   1  -6 -16   46.12    7.67
  -1   6  16   42.38    7.53
   0  -6 -16   20.22    5.03
   0   6  16   14.72    5.19
   1   6  16    5.22    4.14
  -1  -6 -16   23.95    5.51
  -2  -6 -16    5.15    3.64
  -3  -6 -16   11.53    3.81
 -17   7  16   13.80    4.77
 -17   7  16   10.68    3.73
 -16   7  16   10.33    3.36
 -16   7  16    8.81    4.06
 -15   7  16  104.36   10.27
 -15   7  16  129.11   13.37
 -14   7  16  172.67   16.91
 -14   7  16  173.55   14.12
 -13   7  16    8.45    3.63
 -13   7  16    9.46    5.01
 -12   7  16   37.36    6.73
 -12   7  16   39.12    7.97
 -11   7  16   80.09   11.30
 -11   7  16   79.15    9.42
 -10   7  16   13.58    4.90
 -10   7  16    1.64    2.54
  -9   7  16    4.18    2.73
  -9   7  16   11.12    4.55
  -8   7  16    2.15    2.50
  -8   7  16    1.40    2.71
  -7   7  16  173.25   15.01
  -7   7  16  154.12   12.27
  -6   7  16   11.43    4.46
   6  -7 -16    7.17    4.56
  -5   7  16   13.38    4.39
   5  -7 -16   10.57    4.45
   4  -7 -16   48.70    7.91
  -4   7  16   38.50    7.02
   3  -7 -16   62.81    8.87
  -3   7  16   61.97    8.69
  -2   7  16    0.09    2.68
   2  -7 -16    1.08    2.58
  -1   7  16   -0.99    2.85
   1  -7 -16    4.64    2.82
   0  -7 -16    7.56    3.45
   0   7  16    7.45    4.25
  -1  -7 -16    0.55    2.74
  -2  -7 -16   12.41    4.27
  -3  -7 -16    9.34    4.07
 -18   8  16   19.57    4.48
 -18   8  16   21.98    5.20
 -14   8  16   53.35   10.39
 -14   8  16   77.34    9.69
 -13   8  16    0.61    3.50
 -13   8  16    0.84    2.87
 -12   8  16  267.17   19.79
 -12   8  16  288.24   23.98
 -11   8  16   22.28    6.50
 -11   8  16   29.95    5.89
 -10   8  16    1.58    2.45
 -10   8  16   -0.56    2.82
  -9   8  16   -2.48    2.59
  -9   8  16    1.92    3.05
  -8   8  16   10.97    4.33
  -8   8  16   10.02    3.42
  -7   8  16    6.47    3.14
   7  -8 -16    6.86    4.72
  -7   8  16    0.29    2.86
   6  -8 -16   11.41    4.62
  -6   8  16   17.09    4.93
  -5   8  16   29.80    6.41
   5  -8 -16   24.95    5.93
  -4   8  16  153.59   13.93
   4  -8 -16  156.62   14.24
   3  -8 -16   11.09    4.58
  -3   8  16    9.95    4.34
  -2   8  16    9.72    3.93
   2  -8 -16    3.49    2.81
  -1   8  16    3.59    2.92
   1  -8 -16   -3.49    2.02
   0  -8 -16    6.06    3.34
  -1  -8 -16    6.86    3.84
  -2  -8 -16    8.31    3.59
  -3  -8 -16   24.01    5.84
 -13   9  16   17.46    4.97
 -13   9  16   30.79    8.01
 -12   9  16  205.59   19.28
 -12   9  16  170.92   15.17
 -11   9  16  118.35   13.99
 -11   9  16   87.51   10.99
 -10   9  16    8.34    4.58
 -10   9  16    5.10    3.14
  -9   9  16    5.12    4.11
  -9   9  16    6.29    3.35
  -8   9  16   18.07    5.49
  -8   9  16   13.85    4.42
   8  -9 -16   17.51    6.07
   7  -9 -16    1.10    3.39
  -7   9  16    3.41    2.84
  -7   9  16    0.30    2.62
   6  -9 -16  113.14   12.60
  -6   9  16  112.30   11.55
  -5   9  16    8.73    3.94
   5  -9 -16    9.17    3.82
   4  -9 -16    2.42    3.41
  -4   9  16    7.05    3.87
  -3   9  16    0.07    2.84
   3  -9 -16   -1.91    2.04
   2  -9 -16   -3.85    1.76
  -2   9  16   -1.63    2.70
   1  -9 -16   12.24    4.71
   0  -9 -16    5.02    2.96
  -1  -9 -16    2.78    3.36
  -2  -9 -16   10.01    4.31
  -3  -9 -16   12.55    4.54
  18 -10 -16    0.70    8.10
  17 -10 -16   39.31   11.97
  16 -10 -16   83.34   15.19
 -13  10  16   19.84    6.59
 -13  10  16   15.78    4.75
 -12  10  16   15.43    5.75
 -12  10  16   12.53    4.32
 -11  10  16   17.49    6.55
 -11  10  16   14.15    5.11
 -10  10  16   -1.54    2.25
 -10  10  16    5.25    3.97
  -9  10  16   -0.49    2.31
   9 -10 -16   -0.16    3.52
  -9  10  16   -0.06    2.65
  -8  10  16   45.17    7.20
   8 -10 -16   37.47    8.27
  -8  10  16   37.33    7.67
   7 -10 -16   -0.85    3.20
  -7  10  16    0.44    2.37
  -7  10  16   -3.12    2.01
   6 -10 -16    1.43    2.83
  -6  10  16    4.48    3.22
   5 -10 -16    1.60    2.61
  -5  10  16    1.46    2.75
  -4  10  16    4.48    3.78
   4 -10 -16    9.40    4.60
   3 -10 -16    6.22    3.55
  -3  10  16    5.16    3.43
  -2  10  16    0.38    3.25
   2 -10 -16   -2.17    2.07
   1 -10 -16    6.12    3.19
   0 -10 -16   36.90    7.84
  -1 -10 -16    2.58    3.66
  -2 -10 -16   86.19   11.53
  -3 -10 -16    2.29    2.98
  17 -11 -16    2.39    5.66
  16 -11 -16   -1.90    4.24
  15 -11 -16    6.36    7.50
 -13  11  16    3.03    3.01
 -13  11  16    2.54    4.10
 -12  11  16   -1.48    4.11
 -12  11  16    1.38    3.39
 -11  11  16   -1.45    3.72
 -11  11  16    3.80    3.61
 -10  11  16    8.06    3.63
 -10  11  16    4.31    3.96
  -9  11  16    2.87    3.44
   9 -11 -16   12.21    5.78
  -9  11  16    4.38    4.04
  -8  11  16   -0.61    2.59
  -8  11  16    1.81    2.77
   8 -11 -16    5.11    4.00
  -7  11  16   49.24    8.26
   7 -11 -16   51.63    9.47
  -7  11  16   52.66    7.25
  -6  11  16    3.36    2.94
   6 -11 -16    0.25    2.66
  -5  11  16   11.31    4.25
   5 -11 -16   12.99    5.11
   4 -11 -16    1.72    2.99
  -4  11  16    0.65    2.88
   3 -11 -16    0.98    2.60
  -3  11  16   -0.55    2.93
   2 -11 -16    8.57    4.55
   1 -11 -16   45.50    8.21
   0 -11 -16    1.25    3.28
  -1 -11 -16   66.29   10.36
  -2 -11 -16   21.26    6.22
  16 -12 -16   -0.15    4.95
  15 -12 -16   -1.55    5.12
 -13  12  16   -3.36    4.01
 -13  12  16    0.63    3.95
 -12  12  16    3.38    3.69
 -12  12  16    8.75    5.86
 -11  12  16    7.54    5.25
 -11  12  16    7.10    4.14
  10 -12 -16    4.04    3.91
 -10  12  16    6.84    3.58
 -10  12  16   -2.72    3.02
  -9  12  16   26.94    7.01
   9 -12 -16   26.26    7.81
  -9  12  16   33.01    6.53
   8 -12 -16   10.41    5.32
  -8  12  16    5.14    2.70
  -8  12  16   14.61    5.04
  -7  12  16   70.99    8.40
   7 -12 -16   90.42   11.95
  -7  12  16   82.12   10.43
   6 -12 -16    2.74    4.20
  -6  12  16    3.11    3.19
   5 -12 -16    8.63    4.04
  -5  12  16    5.36    3.41
  -4  12  16    6.17    3.60
   4 -12 -16   11.71    4.01
   3 -12 -16   42.46    8.41
   2 -12 -16    8.85    4.36
   1 -12 -16    4.89    3.64
   0 -12 -16   24.00    6.74
  -1 -12 -16   40.72    8.52
  16 -13 -16    4.43    6.54
  15 -13 -16    1.73    5.28
 -13  13  16    0.91    5.13
 -13  13  16   -2.34    4.30
 -12  13  16   25.33    6.77
 -12  13  16   31.59    9.46
  11 -13 -16    0.84    3.83
 -11  13  16    0.19    2.94
 -11  13  16    1.51    4.00
 -10  13  16   18.05    5.37
  10 -13 -16   18.69    6.53
 -10  13  16   12.51    5.86
  -9  13  16    0.45    3.45
  -9  13  16    0.71    2.63
   9 -13 -16   -0.55    3.02
  -8  13  16   36.11    7.95
   8 -13 -16   50.63    9.71
  -8  13  16   49.75    7.23
   7 -13 -16   61.56   10.43
  -7  13  16   45.68    8.03
   6 -13 -16   32.19    8.50
  -6  13  16   28.33    6.18
   5 -13 -16    4.78    3.77
  -5  13  16    2.43    3.30
   4 -13 -16   42.29    8.36
   3 -13 -16   60.89   10.22
   2 -13 -16    0.58    3.90
   1 -13 -16   22.44    6.35
 -13  14  16    1.27    3.90
 -13  14  16   -2.73    3.45
 -12  14  16   -1.51    4.19
 -12  14  16   -5.96    3.73
 -11  14  16   30.55    8.76
  11 -14 -16   29.63    8.13
 -11  14  16   48.25    8.50
  10 -14 -16   -0.14    4.28
 -10  14  16    1.65    3.76
 -10  14  16   -0.78    2.67
   9 -14 -16   12.93    5.42
  -9  14  16    7.12    3.84
  -9  14  16    8.78    5.05
  -8  14  16   38.07    7.54
  -8  14  16   35.72    5.98
   8 -14 -16   15.59    6.62
  -7  14  16    8.77    4.19
   7 -14 -16    4.71    4.69
  -6  14  16    2.99    3.13
   6 -14 -16   -3.04    2.91
   5 -14 -16    3.82    3.61
   4 -14 -16   50.69    9.34
   3 -14 -16    9.50    4.61
 -13  15  16    2.71    4.60
 -13  15  16    1.39    4.47
  12 -15 -16   13.34    6.39
 -12  15  16   -0.69    3.74
 -12  15  16    0.35    3.93
 -11  15  16   -4.10    3.24
  11 -15 -16    4.26    4.86
 -11  15  16   -2.62    3.24
 -10  15  16   12.30    4.73
  10 -15 -16   -0.96    2.97
 -10  15  16   16.64    6.71
  -9  15  16   10.93    4.44
  -9  15  16   18.63    4.94
   9 -15 -16   -0.82    2.80
   8 -15 -16   -2.71    2.88
  -8  15  16    6.67    4.61
  -8  15  16    7.85    3.41
   7 -15 -16    0.22    3.80
  -7  15  16    4.53    3.91
   6 -15 -16    0.30    3.93
 -12  16  16   -1.42    4.88
  12 -16 -16    3.01    6.29
 -12  16  16    0.41    4.75
 -11  16  16   -0.60    4.42
 -11  16  16    2.45    4.38
  11 -16 -16    1.76    6.18
  10 -16 -16    1.30    4.46
 -10  16  16   24.76    7.92
 -10  16  16   29.41    6.82
  -9  16  16   20.91    6.68
  -9  16  16   25.22    5.75
   0 -18  17   -0.88    3.58
   6 -18  17    5.50    5.68
   7 -18  17   45.86   11.50
  -2 -17  17    6.68    4.76
  -1 -17  17    0.62    3.51
   0 -17  17   27.11    5.99
   5 -17  17   13.37    7.17
   6 -17  17   25.01    8.77
   7 -17  17   45.76   11.64
   8 -17  17    9.44    6.96
  -3 -16  17    5.46    4.25
  -2 -16  17    5.12    2.99
  -1 -16  17   53.40    7.81
   0 -16  17   34.61    6.19
   1 -16  17   -1.23    2.00
   4 -16  17    4.31    5.06
   5 -16  17   22.24    7.86
   6 -16  17   14.16    7.58
   7 -16  17   26.58    9.38
   8 -16  17    8.30    7.88
   9 -16  17   10.32    7.44
  -5 -15  17   -1.53    3.54
  -4 -15  17   -1.05    2.82
  -3 -15  17   -1.34    3.12
  -2 -15  17   29.22    6.21
  -1 -15  17   64.85    8.56
   0 -15  17   20.06    4.61
   1 -15  17   12.99    3.86
   3 -15  17    2.28    5.33
   4 -15  17    7.21    4.99
   5 -15  17    9.07    7.30
   6 -15  17  -10.20    4.40
   7 -15  17    6.05    6.00
   8 -15  17    5.89    6.40
   9 -15  17    9.14    6.14
  -6 -14  17    4.71    3.97
  -5 -14  17    1.76    2.93
  -4 -14  17    4.13    3.68
  -3 -14  17   -0.16    2.69
  -2 -14  17   54.15    7.65
  -1 -14  17   68.71    8.24
   0 -14  17   13.19    3.83
   1 -14  17   26.59    5.26
   2 -14  17   50.67   10.43
   3 -14  17   17.14    7.12
   4 -14  17   22.70    8.03
   5 -14  17   11.91    6.73
   6 -14  17   -0.92    4.78
   7 -14  17   22.25    8.55
   8 -14  17    8.78    6.73
   9 -14  17    0.91    5.76
  10 -14  17   -4.90    4.83
  -7 -13  17    0.59    3.47
  -6 -13  17    1.35    2.79
  -5 -13  17    3.09    3.20
  -4 -13  17   31.56    6.14
  -3 -13  17   31.43    5.78
  -2 -13  17    3.45    2.49
  -1 -13  17   18.29    4.40
   0 -13  17    2.18    2.34
   1 -13  17    1.78    4.77
   1 -13  17    2.16    2.08
   2 -13  17    9.67    5.51
   3 -13  17    2.20    5.27
   4 -13  17   -5.39    5.31
   5 -13  17   20.53    7.88
   6 -13  17   30.17    9.25
   7 -13  17   -2.80    5.64
   8 -13  17   43.27   11.66
   9 -13  17   24.56    9.10
  10 -13  17    2.12    6.54
  11 -13  17    0.55    7.14
  -8 -12  17    5.83    3.38
  -7 -12  17   -1.15    2.79
  -6 -12  17   28.43    6.02
  -5 -12  17    3.08    2.79
  -4 -12  17  131.20   11.28
  -3 -12  17   38.99    6.11
  -2 -12  17   29.35    5.47
  -1 -12  17    7.44    2.81
   0 -12  17   11.18    5.81
   0 -12  17   10.26    3.29
   1 -12  17   21.54    4.16
   1 -12  17   30.92    8.28
   2 -12  17    0.85    5.22
   3 -12  17    9.48    6.65
   4 -12  17   -5.13    5.19
   5 -12  17   -0.02    5.72
   6 -12  17    5.83    6.80
   7 -12  17   75.91   14.13
   8 -12  17  191.25   21.48
   9 -12  17    9.63    9.02
  10 -12  17   -3.29    4.37
  11 -12  17    5.12    7.22
  -9 -11  17    9.06    3.48
  -8 -11  17    0.19    2.88
  -7 -11  17    1.83    2.76
  -6 -11  17   13.55    4.08
  -5 -11  17    6.08    3.01
  -4 -11  17   28.30    5.20
  -3 -11  17    1.33    2.20
  -2 -11  17   11.27    3.33
  -1 -11  17    1.36    1.80
  -1 -11  17   -2.33    4.33
   0 -11  17   26.04    7.39
   0 -11  17   36.47    5.27
   1 -11  17   21.54    3.93
   1 -11  17   20.10    7.22
   2 -11  17   36.98    8.81
   3 -11  17   -2.35    5.04
   4 -11  17   48.61   10.76
   5 -11  17    2.36    5.87
   6 -11  17   91.16   14.52
   7 -11  17  143.73   18.23
   8 -11  17   22.66    9.47
   9 -11  17    9.32    8.34
  10 -11  17   -3.61    7.37
  11 -11  17   -3.50    6.29
 -10 -10  17    0.13    2.64
  -9 -10  17   15.58    4.18
  -8 -10  17   -1.14    1.94
  -7 -10  17    1.96    2.75
  -6 -10  17    3.64    2.92
  -5 -10  17    1.65    2.03
  -4 -10  17   26.13    5.14
  -3 -10  17   -1.98    1.51
  -2 -10  17   16.62    4.04
  -2 -10  17   18.78    6.23
  -1 -10  17   20.86    6.84
  -1 -10  17   19.87    4.34
   0 -10  17   37.30    8.30
   0 -10  17   36.79    5.38
   1 -10  17   -3.87    3.42
   1 -10  17    0.96    1.74
   2 -10  17   -4.46    4.08
   3 -10  17   62.19   11.04
   4 -10  17   81.29   12.91
   5 -10  17   26.23    8.79
   6 -10  17   63.16   12.36
   7 -10  17    1.76    5.56
   8 -10  17    1.61    7.02
   9 -10  17   -1.00    6.49
  10 -10  17   11.47    8.41
  11 -10  17    4.29    5.87
  12 -10  17    6.48   10.49
 -11  -9  17   13.19    3.99
 -10  -9  17   -1.87    1.99
  -9  -9  17   -2.51    1.78
  -8  -9  17    4.81    2.60
  -7  -9  17    0.83    2.48
  -6  -9  17   19.52    4.42
  -5  -9  17    7.97    3.05
  -4  -9  17   -0.77    1.61
  -3  -9  17   13.41    3.49
  -3  -9  17   10.11    5.22
  -2  -9  17  242.59   16.39
  -2  -9  17  257.73   20.91
  -1  -9  17   73.07    6.87
  -1  -9  17   75.07   10.77
   0  -9  17   13.05    6.60
   0  -9  17    5.94    2.32
   1  -9  17  149.08   15.84
   1  -9  17  162.52   11.10
   2  -9  17   14.76    6.41
   3  -9  17   37.53    8.86
   4  -9  17   14.79    6.86
   5  -9  17   40.39    9.99
   6  -9  17   50.54   11.13
   7  -9  17   60.63   12.61
   8  -9  17    1.41    6.68
   9  -9  17   10.15    8.71
  10  -9  17   -5.21    6.32
  11  -9  17   -3.79    6.83
 -11   9 -17    2.86    3.81
  12  -9  17    1.35   10.45
 -12  -8  17    3.26    2.73
 -11  -8  17    1.84    2.23
 -10  -8  17   11.00    3.78
  -9  -8  17   -1.01    1.64
  -8  -8  17   13.03    3.74
  -7  -8  17   11.10    3.54
  -6  -8  17   11.35    3.59
  -5  -8  17    4.52    2.52
  -4  -8  17    3.23    2.17
  -4  -8  17   -3.17    3.79
  -3  -8  17   20.00    6.05
  -3  -8  17   20.27    4.08
  -2  -8  17  309.16   24.54
  -2  -8  17  334.17   20.10
  -1  -8  17   24.79    4.19
  -1  -8  17   29.95    7.65
   0  -8  17  196.28   13.04
   0  -8  17  194.35   18.43
   1  -8  17  188.34   18.28
   1  -8  17  185.37   12.38
   2  -8  17   32.84    8.45
   2  -8  17   18.76    3.10
   3  -8  17   -3.39    4.30
   4  -8  17   24.39    8.20
   5  -8  17    8.08    6.23
   6  -8  17   11.92    7.11
   7  -8  17   -0.04    6.20
   8  -8  17   31.23    9.90
   9  -8  17   40.05   11.78
  10  -8  17    1.19    8.31
 -10   8 -17    4.05    3.69
 -11   8 -17    1.96    3.65
  11  -8  17    2.58    8.30
  12  -8  17   14.65   10.57
 -13  -7  17    0.98    2.51
 -12  -7  17    3.43    2.58
 -11  -7  17    1.71    2.12
 -10  -7  17   -0.67    1.75
  -9  -7  17   -1.27    1.50
  -8  -7  17   41.89    6.61
  -7  -7  17    3.69    2.75
  -6  -7  17   42.96    6.24
  -5  -7  17   15.57    3.82
  -5  -7  17   11.70    5.46
  -4  -7  17   14.04    3.47
  -4  -7  17   13.55    5.76
  -3  -7  17   86.00   10.64
  -3  -7  17   77.57    7.29
  -2  -7  17  166.72   11.72
  -2  -7  17  158.84   15.50
  -1  -7  17    0.85    1.54
  -1  -7  17    0.53    4.16
   0  -7  17   68.91   10.53
   0  -7  17   79.84    6.72
   1  -7  17  158.80   16.56
   1  -7  17  165.46   11.09
   2  -7  17   78.85   11.77
   2  -7  17   75.74    6.13
   3  -7  17   43.79    9.49
   4  -7  17    9.02    6.09
   5  -7  17   24.98    8.72
   6  -7  17    5.19    6.02
   7  -7  17    0.97    6.13
   8  -7  17    0.32    5.29
  -9   7 -17    0.41    2.69
   9  -7  17   -0.52    6.80
 -10   7 -17    7.01    3.74
  10  -7  17   12.88    8.93
  11  -7  17    2.39    7.81
 -11   7 -17   -2.25    2.59
  12  -7  17   -5.08    8.03
 -14  -6  17   12.71    3.83
 -13  -6  17   -2.07    2.10
 -12  -6  17    7.24    3.17
 -11  -6  17    1.13    2.02
 -10  -6  17   -0.01    1.94
  -9  -6  17   -1.96    1.56
  -8  -6  17   64.54    7.84
  -7  -6  17  147.44   11.97
  -6  -6  17   79.89    7.94
  -5  -6  17   36.60    5.45
  -5  -6  17   30.40    6.70
  -4  -6  17  129.58   10.18
  -4  -6  17  123.86   12.66
  -3  -6  17  106.98   12.15
  -3  -6  17  105.13    8.73
  -2  -6  17   93.30   11.57
  -2  -6  17   98.32    8.05
  -1  -6  17    0.33    1.61
  -1  -6  17    3.00    4.79
   0  -6  17  254.36   16.17
   0  -6  17  273.42   22.13
   1  -6  17   74.69    6.35
   1  -6  17   77.32   11.10
   2  -6  17   24.35    7.70
   2  -6  17   42.19    4.46
   3  -6  17   55.02   10.15
   4  -6  17   13.31    6.93
   5  -6  17  128.73   15.73
   6  -6  17    4.09    6.06
  -7   6 -17    4.69    2.96
   7  -6  17   -4.92    5.17
   8  -6  17    5.30    6.22
  -8   6 -17   -1.90    1.83
   9  -6  17    5.98    6.56
  -9   6 -17   -1.25    2.50
  10  -6  17   10.86    7.30
 -10   6 -17   -0.97    2.63
 -11   6 -17    5.26    3.50
  11  -6  17    7.67    7.89
  12  -6  17   -6.13    8.32
 -15  -5  17   16.72    4.52
 -14  -5  17    0.88    2.15
 -13  -5  17   42.48    7.13
 -12  -5  17    8.92    2.91
 -11  -5  17   26.96    5.15
 -10  -5  17   -0.09    1.87
  -9  -5  17   88.69    8.80
  -8  -5  17  271.70   18.64
  -7  -5  17  289.42   19.29
  -6  -5  17    2.16    3.92
  -6  -5  17   11.74    3.33
  -5  -5  17   47.59    6.05
  -5  -5  17   41.67    7.57
  -4  -5  17  106.73   11.95
  -4  -5  17   99.38    8.60
  -3  -5  17   -2.46    3.00
  -3  -5  17    0.91    1.52
  -2  -5  17   59.93    9.01
  -1  -5  17  143.59   14.51
   0  -5  17    8.31    5.41
   1  -5  17   25.92    7.47
   2  -5  17   43.41    9.07
   3  -5  17   21.88    7.41
   4  -5  17    9.00    6.20
   5  -5  17   47.43   10.23
  -6   5 -17   66.34    8.09
   6  -5  17   81.10   12.56
   7  -5  17    0.69    4.98
  -7   5 -17    5.22    3.04
   8  -5  17    6.14    6.47
  -8   5 -17    7.39    3.68
  -9   5 -17    6.39    3.68
   9  -5  17   12.90    7.92
  10  -5  17   36.23   10.91
 -10   5 -17    0.06    3.13
 -11   5 -17   -2.33    3.07
  11  -5  17   11.85    8.91
 -15  -4  17   -0.89    2.19
 -14  -4  17    8.25    3.16
 -13  -4  17   29.13    5.71
 -12  -4  17   35.72    6.00
 -11  -4  17    3.02    2.09
 -10  -4  17   13.12    3.66
  -9  -4  17  132.30   11.09
  -8  -4  17   82.37    8.14
  -7  -4  17    6.71    2.70
  -7  -4  17    6.13    4.01
  -6  -4  17   45.96    6.23
  -6  -4  17   55.02    8.24
  -5  -4  17  164.02   14.85
  -4  -4  17   -2.98    2.93
  -3  -4  17    3.50    4.06
  -2  -4  17  201.67   17.54
  -1  -4  17  235.77   19.68
   0  -4  17   39.00    8.00
   1  -4  17   -0.37    4.66
   2  -4  17   16.60    6.35
   3  -4  17   40.82    8.94
   4  -4  17    8.17    5.86
  -5   4 -17  140.05   11.01
   5  -4  17  135.89   15.47
  -6   4 -17   69.79    8.36
   6  -4  17   84.53   12.80
   7  -4  17    6.89    6.00
  -7   4 -17   12.94    4.16
  -8   4 -17    3.58    3.38
   8  -4  17   -1.92    5.62
  -9   4 -17  120.27   11.12
   9  -4  17   77.65   13.64
  10  -4  17   17.78    9.39
 -11   4 -17    2.04    3.60
 -16  -3  17   14.26    2.88
 -15  -3  17   -2.54    1.74
 -14  -3  17   28.25    5.66
 -13  -3  17   45.19    6.95
 -12  -3  17   71.48    8.61
 -11  -3  17    9.10    2.79
 -10  -3  17  108.52    9.79
  -9  -3  17  128.27   10.69
  -8  -3  17   19.74    4.00
  -8  -3  17   12.02    4.61
  -7  -3  17    5.61    4.01
  -6  -3  17  211.50   17.27
  -5  -3  17   17.06    5.22
  -4  -3  17  123.02   12.33
  -3  -3  17   -1.97    3.14
  -2  -3  17   15.06    5.31
  -1  -3  17   25.87    6.58
   0  -3  17    3.89    4.48
   1  -3  17   34.99    7.93
   2  -3  17  113.19   13.56
   3  -3  17   -7.31    4.00
   4  -3  17   33.44    8.09
   5  -3  17   95.30   13.06
  -5   3 -17   95.25    9.30
   6  -3  17   68.79   11.49
  -6   3 -17   44.15    6.83
  -7   3 -17   29.90    5.56
   7  -3  17   25.00    8.35
  -8   3 -17   23.29    5.26
   8  -3  17   16.05    7.52
  -9   3 -17   50.48    7.45
   9  -3  17   64.33   11.71
 -10   3 -17   -1.96    2.54
 -16  -2  17    9.17    2.93
 -15  -2  17    4.24    2.42
 -14  -2  17   35.51    6.02
 -13  -2  17    9.54    3.30
 -12  -2  17    5.36    2.42
 -11  -2  17   53.81    7.02
 -10  -2  17  287.03   19.12
  -9  -2  17  224.14   17.46
  -9  -2  17  206.36   14.97
  -8  -2  17    6.38    3.80
  -7  -2  17   54.84    7.85
  -6  -2  17  148.80   13.30
  -5  -2  17  124.19   12.04
  -4  -2  17  132.68   12.73
  -3  -2  17   29.94    6.47
  -2  -2  17    3.86    3.84
  -1  -2  17    2.43    3.97
   0  -2  17   27.54    6.85
   1  -2  17    3.87    4.70
   2  -2  17   44.91    9.02
   3  -2  17   55.82    9.81
   4  -2  17  121.45   13.88
  -4   2 -17  121.62    9.67
  -5   2 -17   50.47    6.90
   5  -2  17   48.81    9.82
  -6   2 -17   70.70    8.40
   6  -2  17   91.45   12.56
   7  -2  17   19.20    7.50
  -7   2 -17   13.60    3.61
   8  -2  17   70.87   12.21
  -8   2 -17   63.33    8.21
  -9   2 -17   24.39    5.38
 -10   2 -17   -2.89    3.04
 -16  -1  17    3.20    2.10
 -15  -1  17   51.22    6.95
 -14  -1  17   75.32    8.53
 -13  -1  17   26.23    4.96
 -12  -1  17    2.02    1.86
 -11  -1  17  163.51   12.48
 -10  -1  17   22.30    5.12
  -9  -1  17  110.36   10.78
  -8  -1  17    4.56    3.19
  -7  -1  17   37.34    6.42
  -6  -1  17    2.88    2.46
  -5  -1  17   27.59    5.87
  -4  -1  17   48.58    7.66
  -3  -1  17   46.29    7.61
  -2  -1  17   78.19    9.94
  -1  -1  17   11.06    4.83
   0  -1  17   13.66    5.35
   1  -1  17  104.15   12.41
   2  -1  17    3.30    4.71
  -3   1 -17    3.84    2.52
   3  -1  17    3.97    4.72
   4  -1  17    9.68    5.57
  -4   1 -17    5.30    3.06
  -5   1 -17   38.33    5.90
   5  -1  17   35.12    8.47
   6  -1  17    8.88    6.50
  -6   1 -17   16.10    3.81
   7  -1  17    6.21    6.06
  -7   1 -17   14.98    3.95
  -8   1 -17  143.12   11.65
  -9   1 -17    3.33    3.41
 -10   1 -17    1.08    3.42
 -16   0  17   16.82    4.03
 -15   0  17   29.59    5.30
 -14   0  17   33.41    5.30
 -13   0  17   22.45    4.14
 -12   0  17    0.78    1.70
 -11   0  17    0.30    2.62
 -10   0  17    4.17    3.12
  -9   0  17    0.46    2.43
  -8   0  17   -1.50    2.13
  -7   0  17   43.59    6.88
  -6   0  17   14.86    4.60
  -5   0  17   26.51    5.73
  -4   0  17    3.32    2.89
  -3   0  17   28.57    6.16
  -2   0  17    4.86    3.76
  -1   0  17   -0.90    3.11
   0   0  17   27.60    7.06
   1   0  17    2.06    4.44
   2   0  17   -2.54    3.75
   3   0  17   81.44   11.72
  -3   0 -17   87.62    8.29
  -4   0 -17  100.28    8.86
   4   0  17   64.04   10.75
  -5   0 -17   17.16    4.20
   5   0  17   13.58    6.17
   6   0  17    4.15    5.10
  -6   0 -17    0.35    1.94
  -7   0 -17   25.75    5.10
   7   0  17   19.62    7.61
  -8   0 -17   20.12    4.82
  -9   0 -17   -1.25    2.70
 -16   1  17   29.07    4.92
 -15   1  17    5.49    2.34
 -14   1  17   64.77    7.20
 -12   1  17   -0.60    2.50
 -11   1  17    1.44    2.72
 -10   1  17    7.13    3.51
  -9   1  17   -0.23    2.43
  -8   1  17   31.81    5.95
  -7   1  17   20.19    4.88
  -6   1  17   28.30    5.79
  -5   1  17   43.30    7.01
  -4   1  17   32.82    6.36
  -3   1  17   22.63    5.54
  -2   1  17   11.93    4.73
  -1   1  17  133.79   13.51
   0   1  17    2.77    3.99
   1   1  17   36.91    7.65
  -2  -1 -17   35.03    5.29
   2   1  17   44.52    8.35
  -3  -1 -17   61.95    7.10
   3   1  17   64.14   10.19
  -4  -1 -17    0.94    2.37
   4   1  17   11.24    5.17
   5   1  17    2.67    4.65
  -5  -1 -17   -0.32    2.27
  -6  -1 -17    5.95    2.92
   6   1  17    8.22    5.49
  -7  -1 -17   12.65    3.64
  -8  -1 -17   -3.12    2.36
  -9  -1 -17   19.32    5.73
 -16   2  17    1.84    1.62
 -15   2  17   14.68    3.42
 -13   2  17   14.49    4.50
 -12   2  17    2.37    2.94
 -11   2  17   11.04    4.28
 -10   2  17   60.42    8.41
  -9   2  17    8.37    3.73
  -8   2  17   53.79    7.72
  -7   2  17   70.38    8.76
  -6   2  17    6.61    3.17
  -5   2  17   11.77    4.03
  -4   2  17    3.08    3.03
  -3   2  17    7.54    3.94
  -2   2  17  422.98   30.34
  -1   2  17  373.51   27.61
   0   2  17    7.95    4.51
  -1  -2 -17   41.68    5.50
   1   2  17   31.01    7.42
  -2  -2 -17   35.53    5.36
   2   2  17   39.55    8.04
  -2  -2 -17   31.34    6.30
   3   2  17   55.16    9.16
  -3  -2 -17   53.77    6.77
  -4  -2 -17   26.06    4.99
   4   2  17   21.36    6.85
   5   2  17   18.92    7.04
  -5  -2 -17   16.90    4.01
  -6  -2 -17    4.47    2.70
  -7  -2 -17   -0.33    2.69
  -8  -2 -17    5.00    3.52
  -9  -2 -17   13.52    5.62
 -16   3  17   -0.21    1.34
 -14   3  17   -3.69    1.76
 -14   3  17    9.99    3.79
 -13   3  17    0.93    2.37
 -13   3  17   -0.26    2.61
 -12   3  17   26.39    6.11
 -12   3  17   21.07    4.32
 -11   3  17    2.16    2.28
 -11   3  17    0.45    2.65
 -10   3  17  196.07   16.70
  -9   3  17   -2.44    2.09
  -8   3  17   -1.26    2.13
  -7   3  17    1.98    2.49
  -6   3  17   79.14    8.93
  -5   3  17    0.88    1.85
  -4   3  17    0.70    2.86
  -3   3  17  280.94   21.95
  -2   3  17  463.53   32.61
  -1   3  17   30.39    6.76
   0  -3 -17    8.33    3.88
   0   3  17    1.68    3.67
   1   3  17   87.39   10.86
  -1  -3 -17   66.02    8.93
  -1  -3 -17   84.76    7.15
  -2  -3 -17    3.86    2.70
   2   3  17    1.38    3.61
  -2  -3 -17    8.27    2.88
  -3  -3 -17    0.42    1.90
   3   3  17   -3.52    3.41
   4   3  17    5.60    5.26
  -4  -3 -17   11.20    3.33
  -5  -3 -17   16.80    3.84
  -6  -3 -17    9.36    3.42
  -7  -3 -17    2.60    2.99
  -8  -3 -17   -1.54    3.52
 -15   4  17    5.56    3.00
 -14   4  17    3.19    2.39
 -14   4  17   -0.84    2.79
 -13   4  17   10.03    3.62
 -13   4  17    5.36    3.91
 -12   4  17    1.16    3.25
 -12   4  17    4.35    2.60
 -11   4  17  118.52   12.69
 -11   4  17  138.94   11.11
 -10   4  17   66.74    7.56
 -10   4  17   42.45    7.60
  -9   4  17   -0.85    2.30
  -8   4  17  194.00   16.59
  -7   4  17  125.48   12.18
  -6   4  17  116.52   11.61
  -5   4  17   10.46    4.25
  -4   4  17   29.88    6.35
  -3   4  17    3.06    3.17
  -2   4  17   21.38    5.76
   2  -4 -17   10.93    4.61
  -1   4  17    0.47    3.00
   1  -4 -17    0.40    3.02
   0   4  17    3.23    3.57
   0  -4 -17    4.18    3.06
   1   4  17   -0.90    3.05
  -1  -4 -17    0.14    1.77
  -1  -4 -17    1.62    2.64
   2   4  17    5.96    4.78
  -2  -4 -17    9.68    3.65
  -2  -4 -17    6.92    2.47
  -3  -4 -17    4.97    2.66
   3   4  17    0.61    3.72
  -4  -4 -17   -4.67    1.98
  -5  -4 -17   -0.05    2.16
  -6  -4 -17   -1.11    2.33
  -7  -4 -17   -0.40    2.98
  -8  -4 -17    4.24    4.76
 -15   5  17   -4.44    1.96
 -15   5  17   -0.98    2.96
 -14   5  17   50.00    8.77
 -14   5  17   39.77    6.58
 -13   5  17    0.11    2.61
 -13   5  17    3.25    3.77
 -12   5  17    6.22    3.05
 -12   5  17   11.09    4.31
 -11   5  17  111.87   10.50
 -11   5  17  132.64   13.04
 -10   5  17   21.30    4.95
 -10   5  17   22.04    6.14
  -9   5  17   21.89    6.06
  -9   5  17   31.08    5.52
  -8   5  17  155.56   14.33
  -7   5  17  258.86   20.51
  -6   5  17   33.22    6.65
  -5   5  17   18.90    5.29
  -4   5  17    2.72    3.26
   3  -5 -17    0.38    2.62
  -3   5  17    8.28    4.02
  -2   5  17    8.69    4.07
   2  -5 -17    4.78    3.66
  -1   5  17   29.34    6.69
   1  -5 -17   26.44    6.23
   0   5  17    1.73    3.67
   0  -5 -17   -0.27    2.49
   1   5  17    7.60    4.58
  -1  -5 -17    5.01    3.48
   2   5  17   -0.63    3.65
  -2  -5 -17    7.81    3.61
  -2  -5 -17    0.82    2.24
  -3  -5 -17   30.89    5.20
  -4  -5 -17   34.54    5.60
  -5  -5 -17    2.41    2.49
 -16   6  17   20.61    5.98
 -15   6  17   16.70    5.59
 -15   6  17   13.62    4.05
 -14   6  17   61.00    8.23
 -14   6  17   64.35   10.02
 -13   6  17   66.98   10.63
 -13   6  17   97.53   10.19
 -12   6  17  240.66   20.71
 -12   6  17  232.12   17.41
 -11   6  17  157.60   12.92
 -11   6  17  141.81   14.93
 -10   6  17   50.59    7.46
 -10   6  17   53.44    8.92
  -9   6  17   80.09   10.50
  -9   6  17   74.94    8.70
  -8   6  17  136.28   13.38
  -7   6  17   34.24    6.83
  -6   6  17   90.06   10.15
  -5   6  17    4.98    3.57
   5  -6 -17   -1.10    3.10
  -4   6  17    2.41    2.78
   4  -6 -17    1.60    3.23
  -3   6  17    0.47    2.74
   3  -6 -17    3.13    3.24
  -2   6  17    2.97    3.44
   2  -6 -17    3.45    3.12
  -1   6  17    0.35    3.07
   1  -6 -17    7.26    3.37
   0   6  17   35.41    7.31
   0  -6 -17   27.15    6.25
   1   6  17   -0.38    3.06
  -1  -6 -17   -2.95    2.17
  -2  -6 -17   -1.21    2.35
 -17   7  17    7.38    4.04
 -17   7  17    5.20    3.42
 -16   7  17  118.08   13.24
 -16   7  17  116.94   11.02
 -15   7  17   32.62    6.46
 -15   7  17   33.38    8.14
 -14   7  17    0.94    3.88
 -14   7  17    3.74    2.70
 -13   7  17   32.43    7.75
 -13   7  17   21.54    5.22
 -12   7  17   84.53   11.90
 -12   7  17   86.19   10.21
 -11   7  17    9.73    3.94
 -11   7  17    8.64    4.82
 -10   7  17    0.43    2.02
 -10   7  17    3.37    3.31
  -9   7  17   13.36    4.72
  -9   7  17    7.96    3.59
  -8   7  17   36.26    7.58
  -8   7  17   67.78    7.91
  -7   7  17    1.02    2.98
  -6   7  17   59.74    8.76
   6  -7 -17   64.93    9.78
  -5   7  17    7.78    3.83
   5  -7 -17    3.89    3.35
  -4   7  17   35.23    6.56
   4  -7 -17   27.45    6.39
   3  -7 -17   -1.27    2.56
  -3   7  17    5.25    3.46
  -2   7  17    8.03    4.19
   2  -7 -17    9.46    4.11
  -1   7  17   10.16    4.59
   1  -7 -17    6.48    3.77
   0   7  17   -3.40    3.22
   0  -7 -17    4.02    3.16
  -1  -7 -17    1.28    3.22
  -2  -7 -17    6.37    3.27
 -18   8  17    9.97    3.27
 -18   8  17    0.76    3.24
 -17   8  17   27.10    7.10
 -17   8  17   38.33    6.44
 -16   8  17   59.11   11.01
 -16   8  17   85.66   10.36
 -15   8  17   21.08    5.19
 -15   8  17   23.74    6.90
 -14   8  17    6.83    4.83
 -14   8  17    9.13    3.79
 -13   8  17   14.83    4.40
 -13   8  17   12.30    5.41
 -12   8  17   -4.16    1.92
 -12   8  17    3.80    3.52
 -11   8  17   67.82   10.66
 -11   8  17   45.55    8.00
 -10   8  17   24.44    6.76
 -10   8  17   22.64    5.35
  -9   8  17  103.52   10.69
  -9   8  17   85.66   11.61
  -8   8  17   36.08    7.18
  -8   8  17   24.73    5.33
  -7   8  17    9.55    4.11
   7  -8 -17    6.56    4.79
   6  -8 -17    2.42    3.38
  -6   8  17    4.14    3.42
  -5   8  17    2.44    3.16
   5  -8 -17    0.94    2.82
   4  -8 -17    7.87    4.37
  -4   8  17    8.52    3.79
  -3   8  17   -0.04    2.70
   3  -8 -17    3.25    2.80
  -2   8  17   36.16    7.29
   2  -8 -17   48.36    8.26
  -1   8  17    3.87    3.53
   1  -8 -17    0.62    2.69
   0  -8 -17   44.03    7.72
  -1  -8 -17   49.67    8.50
  -2  -8 -17   20.00    5.23
 -18   9  17    6.57    2.86
 -18   9  17   11.01    4.14
 -17   9  17   47.54    7.84
 -17   9  17   64.90   10.89
 -16   9  17   24.11    6.86
 -16   9  17   27.78    5.67
 -15   9  17   17.27    4.87
 -15   9  17   36.92    8.30
 -14   9  17   18.50    5.10
 -14   9  17   14.01    5.75
 -13   9  17    6.98    4.15
 -13   9  17   12.94    5.83
 -12   9  17    6.57    4.41
 -12   9  17    2.21    2.48
 -11   9  17   32.15    6.74
 -11   9  17   50.22    9.80
 -10   9  17   59.20   10.37
 -10   9  17   62.93    9.03
  -9   9  17   18.21    4.95
  -9   9  17   10.63    4.86
  -8   9  17   -0.76    2.57
  -8   9  17   -0.78    2.22
   7  -9 -17    3.47    3.96
  -7   9  17    2.31    3.11
  -6   9  17    0.05    3.19
   6  -9 -17   -3.80    1.80
  -5   9  17    1.24    2.82
   5  -9 -17    6.05    3.54
   4  -9 -17    0.93    2.57
  -4   9  17    1.39    2.98
  -3   9  17   14.84    4.99
   3  -9 -17   15.49    4.80
  -2   9  17   28.46    6.52
   2  -9 -17   17.30    5.12
   1  -9 -17    2.95    3.09
   0  -9 -17   10.92    4.46
  -1  -9 -17   55.12    8.98
  -2  -9 -17   31.29    6.76
 -18  10  17   14.07    3.95
 -18  10  17   27.51    6.96
 -17  10  17  116.18   15.21
 -17  10  17  105.82   12.38
 -16  10  17    6.87    3.78
 -16  10  17    7.73    4.50
 -15  10  17    3.94    3.39
 -15  10  17   11.06    5.13
 -14  10  17   52.43   11.30
 -14  10  17   47.38    8.28
 -13  10  17   13.31    5.87
 -13  10  17   14.46    5.20
 -12  10  17   34.50    8.87
 -12  10  17   32.61    6.90
 -11  10  17   66.26   11.56
 -11  10  17   96.07   11.22
 -10  10  17   16.36    5.44
 -10  10  17    9.22    5.02
  -9  10  17    6.56    3.47
  -9  10  17    6.45    3.72
   8 -10 -17    2.15    3.81
  -8  10  17    1.92    2.25
  -8  10  17    1.19    3.01
  -7  10  17   41.36    7.51
   7 -10 -17   26.98    7.55
  -6  10  17   24.87    6.12
   6 -10 -17   22.45    6.19
   5 -10 -17    4.86    3.86
  -5  10  17    2.04    3.38
  -4  10  17   41.47    7.04
   4 -10 -17   43.71    8.36
  -3  10  17   36.85    7.23
   3 -10 -17   44.65    8.25
   2 -10 -17   13.46    4.96
   1 -10 -17    2.15    2.81
   0 -10 -17   19.92    5.45
  -1 -10 -17   45.19    8.62
  -2 -10 -17    2.76    3.50
 -16  11  17   61.69   10.52
 -16  11  17   68.26   12.61
 -15  11  17   35.54    7.77
 -15  11  17   42.00    9.62
 -14  11  17   13.59    6.17
 -14  11  17   16.51    5.16
 -13  11  17   19.11    5.98
 -13  11  17   17.05    6.96
 -12  11  17    0.94    4.47
 -12  11  17    4.55    3.78
 -11  11  17    5.16    3.73
 -11  11  17   -2.36    3.59
 -10  11  17    1.41    3.43
 -10  11  17   -5.50    2.08
  -9  11  17    0.73    3.31
  -9  11  17   13.00    4.40
   9 -11 -17    7.20    5.07
   8 -11 -17   74.10   11.19
  -8  11  17   89.02    9.53
  -8  11  17   65.90    9.96
   7 -11 -17   58.01    9.95
  -7  11  17   63.49    9.21
   6 -11 -17   12.41    4.91
  -6  11  17   14.97    4.76
   5 -11 -17    1.44    2.84
  -5  11  17    2.35    3.08
   4 -11 -17   49.76    8.22
  -4  11  17   35.13    6.74
   3 -11 -17   -0.78    2.99
   2 -11 -17    4.91    3.36
   1 -11 -17    4.74    3.26
   0 -11 -17   18.24    5.78
  -1 -11 -17   15.04    5.28
  -2 -11 -17    5.92    3.64
 -16  12  17   21.95    7.37
 -15  12  17    2.07    3.90
 -15  12  17    4.44    4.25
 -14  12  17    9.06    4.94
 -14  12  17   -1.43    3.48
 -13  12  17   11.01    6.71
 -13  12  17   15.13    5.92
 -12  12  17    0.06    4.64
 -12  12  17    5.49    4.68
 -11  12  17    3.84    4.66
 -11  12  17    1.12    3.43
 -10  12  17    0.39    3.64
  10 -12 -17    3.52    4.60
 -10  12  17    8.01    3.69
  -9  12  17    1.52    2.70
  -9  12  17    2.29    3.65
   9 -12 -17   -0.47    3.37
  -8  12  17   72.61   10.38
   8 -12 -17   75.34   11.58
  -8  12  17   68.72    8.70
  -7  12  17   17.56    5.40
   7 -12 -17   16.41    6.32
  -6  12  17    3.90    3.19
   6 -12 -17   -3.51    2.56
   5 -12 -17   13.83    5.00
  -5  12  17   10.51    4.17
   4 -12 -17   13.83    4.81
   3 -12 -17    5.77    3.48
   2 -12 -17    1.25    3.08
   1 -12 -17   -0.81    3.17
   0 -12 -17    0.16    3.07
 -15  13  17    3.54    4.63
 -15  13  17   18.08    6.05
 -14  13  17    2.57    4.34
 -14  13  17   -1.91    4.34
 -13  13  17    0.53    4.24
 -13  13  17    0.99    4.06
 -12  13  17   -3.36    4.14
 -12  13  17    6.83    4.09
 -11  13  17    1.57    3.29
 -11  13  17    2.31    4.39
 -10  13  17   16.92    6.53
  10 -13 -17   16.97    6.16
 -10  13  17   26.14    6.42
  -9  13  17   51.86    9.52
  -9  13  17   57.94    8.52
   9 -13 -17   57.03   10.70
  -8  13  17   12.30    3.89
  -8  13  17    8.31    4.53
   8 -13 -17   14.71    5.97
  -7  13  17    3.37    3.79
   7 -13 -17    5.34    4.87
   6 -13 -17   -2.88    2.44
  -6  13  17    1.47    3.03
   5 -13 -17   12.02    5.00
   4 -13 -17   14.66    5.59
   3 -13 -17    2.79    3.47
   2 -13 -17   12.04    5.22
 -14  14  17    2.65    4.93
 -14  14  17   -5.02    3.98
 -13  14  17   -0.69    4.67
 -13  14  17   -0.36    4.70
 -12  14  17    3.74    3.68
 -12  14  17    1.00    3.47
 -11  14  17   -2.89    4.66
 -11  14  17    2.10    5.25
  11 -14 -17    0.11    4.50
 -10  14  17   68.13   11.59
 -10  14  17   69.59   10.00
  -9  14  17   30.35    6.30
  -9  14  17   23.65    6.64
   8 -14 -17    4.49    4.05
  -8  14  17   -1.80    3.79
   7 -14 -17   -3.71    2.71
  -7  14  17   16.39    5.05
   6 -14 -17   18.95    5.99
   5 -14 -17    6.40    4.15
   4 -14 -17    5.87    3.84
 -12  15  17   -0.27    4.20
 -12  15  17    0.85    4.15
 -11  15  17   10.65    6.15
  11 -15 -17    1.41    3.86
 -11  15  17   19.84    6.44
 -10  15  17   22.58    7.24
 -10  15  17   33.91    7.49
  -9  15  17    5.30    3.83
  -9  15  17    5.29    3.18
   9 -15 -17    0.37    4.08
   8 -15 -17   -0.60    3.82
  -8  15  17   13.02    4.78
 -10  16  17    7.90    4.92
 -10  16  17    1.36    4.79
  -9  16  17    7.75    5.12
  -9  16  17    4.96    4.40
   6 -18  18   37.20    9.64
  -1 -17  18    5.93    4.79
   0 -17  18   -3.75    2.28
   5 -17  18    9.03    5.91
   6 -17  18   23.89    8.51
   7 -17  18    4.73    6.32
  -3 -16  18    4.42    4.29
  -2 -16  18   12.90    4.71
  -1 -16  18    8.58    3.85
   0 -16  18    3.44    2.92
   4 -16  18    5.32    5.74
   5 -16  18    7.61    5.89
   6 -16  18    9.59    6.02
   7 -16  18    5.81    6.22
   8 -16  18   22.82    8.36
  -4 -15  18    1.66    3.37
  -3 -15  18    9.48    4.29
  -2 -15  18   26.66    5.75
  -1 -15  18    2.71    2.82
   0 -15  18    4.09    2.48
   3 -15  18   13.64    5.55
   4 -15  18   -1.94    4.65
   5 -15  18    8.52    6.41
   6 -15  18    2.40    5.55
   7 -15  18    1.30    5.23
   8 -15  18   21.71    9.44
   9 -15  18    9.93    6.69
  -6 -14  18    2.32    3.86
  -5 -14  18   -6.15    2.69
  -4 -14  18    4.12    3.62
  -3 -14  18   -0.32    2.49
  -2 -14  18    6.18    3.27
  -1 -14  18    0.48    2.21
   0 -14  18    3.51    2.43
   2 -14  18    6.65    5.90
   3 -14  18   10.58    6.47
   4 -14  18    1.98    5.88
   5 -14  18   -0.60    5.29
   6 -14  18   17.02    6.73
   7 -14  18   46.31   11.76
   8 -14  18    6.57    5.96
   9 -14  18    9.22    6.04
  -7 -13  18    1.24    3.56
  -6 -13  18   -5.41    2.09
  -5 -13  18    5.55    3.58
  -4 -13  18    1.80    2.54
  -3 -13  18    7.38    3.00
  -2 -13  18    9.74    3.41
  -1 -13  18   27.80    5.35
   0 -13  18   14.83    4.01
   1 -13  18   17.04    7.18
   1 -13  18   17.55    4.12
   2 -13  18   12.95    6.72
   3 -13  18    2.52    4.79
   4 -13  18    1.77    5.72
   5 -13  18   33.43    9.32
   6 -13  18   49.97   11.81
   7 -13  18   21.15    9.32
   8 -13  18    9.47    6.42
   9 -13  18   28.72   10.28
  10 -13  18    6.41    7.41
  -8 -12  18    1.44    3.46
  -7 -12  18   -0.85    2.35
  -6 -12  18   -1.16    2.62
  -5 -12  18   -0.11    2.25
  -4 -12  18    1.13    2.07
  -3 -12  18    5.17    2.71
  -2 -12  18   24.42    4.93
  -1 -12  18    0.23    1.87
   0 -12  18    4.15    5.32
   0 -12  18    4.74    2.42
   1 -12  18    1.08    2.11
   1 -12  18    6.83    5.77
   2 -12  18   52.86   10.44
   3 -12  18    3.24    6.01
   4 -12  18   26.11    8.79
   5 -12  18   67.82   13.22
   6 -12  18  131.26   17.62
   7 -12  18  114.19   16.94
   8 -12  18   14.11    7.50
   9 -12  18    5.32    7.36
  10 -12  18   -0.07    6.68
  -9 -11  18   21.84    5.54
  -8 -11  18   -2.43    2.50
  -7 -11  18    1.47    2.99
  -6 -11  18    9.80    3.75
  -5 -11  18    2.24    2.07
  -4 -11  18    1.25    2.19
  -3 -11  18    3.81    2.43
  -2 -11  18    2.52    1.99
  -1 -11  18    0.68    4.66
  -1 -11  18    2.13    2.05
   0 -11  18    5.83    5.42
   0 -11  18    4.11    2.61
   1 -11  18   -1.85    5.18
   1 -11  18    6.29    2.32
   2 -11  18   16.84    6.58
   3 -11  18    9.12    5.68
   4 -11  18   20.73    8.33
   5 -11  18   13.55    7.58
   6 -11  18   48.70   11.44
   7 -11  18   32.93   10.73
   8 -11  18    8.13    8.42
   9 -11  18    5.67    8.50
  10 -11  18    7.30    6.57
  11 -11  18    0.61    6.88
 -10 -10  18    7.44    3.40
  -9 -10  18   -3.20    2.09
  -8 -10  18    5.48    3.18
  -7 -10  18   36.96    6.74
  -6 -10  18   45.37    7.20
  -5 -10  18   11.85    4.07
  -4 -10  18    1.53    2.21
  -3 -10  18    0.48    1.96
  -2 -10  18    8.28    5.55
  -2 -10  18   11.17    3.41
  -1 -10  18   27.49    7.46
  -1 -10  18   21.89    4.18
   0 -10  18    1.75    1.46
   0 -10  18    7.55    5.53
   1 -10  18   11.55    6.56
   1 -10  18    7.69    2.59
   2 -10  18   41.14    9.38
   3 -10  18   -0.13    5.64
   4 -10  18   14.16    7.55
   5 -10  18   63.15   12.33
   6 -10  18    4.67    6.01
   7 -10  18   -3.81    6.69
   8 -10  18    0.13    6.67
   9 -10  18    5.19    8.50
  10 -10  18    7.48    6.49
  11 -10  18   -1.24    6.56
 -11  -9  18    2.95    2.56
 -10  -9  18   10.62    3.91
  -9  -9  18    9.03    3.47
  -8  -9  18    7.02    3.48
  -7  -9  18   62.24    8.49
  -6  -9  18   29.84    5.64
  -5  -9  18   25.63    5.16
  -4  -9  18    0.43    1.70
  -3  -9  18   41.05    8.05
  -3  -9  18   46.71    6.33
  -2  -9  18    9.01    5.61
  -2  -9  18   14.28    3.72
  -1  -9  18  134.52   10.53
  -1  -9  18  153.57   15.55
   0  -9  18  172.68   12.54
   0  -9  18  208.34   18.51
   1  -9  18   29.05    4.36
   1  -9  18   22.64    7.40
   2  -9  18   -0.07    4.33
   3  -9  18  104.76   14.15
   4  -9  18   52.56   10.91
   5  -9  18    0.32    5.24
   6  -9  18   15.29    7.50
   7  -9  18    4.80    7.29
   8  -9  18    0.82    6.89
   9  -9  18   -0.01    5.94
  10  -9  18    1.58    8.03
  11  -9  18   -0.56    8.88
 -12  -8  18    4.14    2.25
 -11  -8  18    7.14    2.83
 -10  -8  18    0.73    2.04
  -9  -8  18   20.64    5.03
  -8  -8  18   26.30    5.58
  -7  -8  18   16.63    4.30
  -6  -8  18   -0.64    1.88
  -5  -8  18   14.74    3.70
  -4  -8  18    2.42    2.05
  -4  -8  18    3.78    4.49
  -3  -8  18   22.53    6.56
  -3  -8  18   26.47    4.73
  -2  -8  18  213.42   19.26
  -2  -8  18  235.34   15.40
  -1  -8  18   39.31    5.30
  -1  -8  18   55.34    9.38
   0  -8  18   -0.33    4.94
   0  -8  18   -0.05    1.27
   1  -8  18    1.07    1.29
   1  -8  18   -3.73    4.73
   2  -8  18   -3.11    4.35
   3  -8  18   37.80    9.31
   4  -8  18   40.12    9.60
   5  -8  18    9.59    6.59
   6  -8  18    6.09    6.79
   7  -8  18    4.36    6.48
   8  -8  18   -0.10    6.02
   9  -8  18   20.56    9.31
  10  -8  18  -12.24    6.36
 -11   8 -18   12.46    4.53
  11  -8  18   14.32   10.15
 -13  -7  18   12.00    3.37
 -12  -7  18   -0.08    2.49
 -11  -7  18    2.63    2.63
 -10  -7  18   -2.84    1.60
  -9  -7  18   16.28    4.23
  -8  -7  18    2.56    2.44
  -7  -7  18   13.43    3.89
  -6  -7  18    4.93    2.52
  -5  -7  18   59.04    9.28
  -5  -7  18   71.01    7.90
  -4  -7  18   84.47    8.08
  -4  -7  18   98.60   11.64
  -3  -7  18    5.94    5.24
  -3  -7  18    1.76    1.66
  -2  -7  18  102.37    8.68
  -2  -7  18  119.69   13.47
  -1  -7  18   75.40    7.02
  -1  -7  18   97.62   12.15
   0  -7  18   -0.49    1.28
   0  -7  18    4.41    5.14
   1  -7  18   12.08    2.78
   1  -7  18    8.94    6.39
   2  -7  18    1.20    4.90
   3  -7  18    0.47    4.94
   4  -7  18   -0.63    4.59
   5  -7  18   -4.32    4.63
   6  -7  18   -0.43    5.71
   7  -7  18    7.76    7.58
   8  -7  18   11.13    8.01
   9  -7  18    7.63    7.30
  -9   7 -18   -2.24    2.55
  10  -7  18   18.43    9.46
 -10   7 -18   20.52    5.38
 -11   7 -18   28.70    6.05
  11  -7  18   45.82   13.25
  12  -7  18   -1.24   10.27
 -14  -6  18   18.51    4.61
 -13  -6  18   16.18    4.56
 -12  -6  18   23.31    5.24
 -11  -6  18   -0.50    1.80
 -10  -6  18    7.57    3.10
  -9  -6  18    8.75    3.04
  -8  -6  18    0.44    1.81
  -7  -6  18   23.46    5.05
  -6  -6  18   34.58    5.65
  -6  -6  18   33.32    7.04
  -5  -6  18   77.70    7.70
  -5  -6  18   83.35   10.42
  -4  -6  18   31.81    5.16
  -4  -6  18   20.66    6.53
  -3  -6  18    4.49    4.75
  -3  -6  18    1.10    1.44
  -2  -6  18    5.47    5.21
  -2  -6  18    0.67    1.55
  -1  -6  18    2.87    4.58
  -1  -6  18    2.55    1.74
   0  -6  18   10.25    6.12
   0  -6  18    9.08    2.58
   1  -6  18   -1.64    1.15
   1  -6  18   -1.30    4.77
   2  -6  18    5.81    5.73
   3  -6  18   49.65   10.01
   4  -6  18   11.74    6.73
   5  -6  18   -2.44    4.99
   6  -6  18   37.34    9.81
   7  -6  18    5.76    5.60
   8  -6  18   18.73    7.96
  -8   6 -18   19.03    5.11
   9  -6  18    3.53    6.93
  -9   6 -18    5.66    3.63
  10  -6  18   35.29   11.26
 -10   6 -18   34.75    6.55
  11  -6  18   11.20    9.07
 -14  -5  18    9.09    3.44
 -13  -5  18   53.13    7.80
 -12  -5  18    5.32    3.10
 -11  -5  18    3.85    2.53
 -10  -5  18   37.55    6.03
  -9  -5  18   38.03    6.22
  -8  -5  18    1.58    1.93
  -7  -5  18   79.21    8.86
  -7  -5  18   93.80   10.79
  -6  -5  18   76.26    8.24
  -6  -5  18   74.60    9.91
  -5  -5  18   51.22    6.49
  -5  -5  18   37.22    7.66
  -4  -5  18   26.58    4.57
  -4  -5  18   16.91    6.40
  -3  -5  18    6.93    4.90
  -2  -5  18   -0.68    4.23
  -1  -5  18    2.61    4.55
   0  -5  18   -2.56    4.46
   1  -5  18    5.62    5.59
   2  -5  18   45.47    9.47
   3  -5  18  126.78   15.03
   4  -5  18  113.25   14.66
   5  -5  18  154.74   17.90
   6  -5  18   19.36    8.08
   7  -5  18   16.81    8.22
  -7   5 -18   24.13    5.26
   8  -5  18   26.26    9.25
  -8   5 -18   19.57    4.82
   9  -5  18   70.60   13.25
  -9   5 -18   27.77    6.22
  10  -5  18   10.70    8.30
 -10   5 -18   -4.45    2.56
  11  -5  18   52.65   12.86
 -15  -4  18    8.82    3.52
 -14  -4  18   35.42    6.29
 -13  -4  18    2.94    2.28
 -12  -4  18   -0.59    2.20
 -11  -4  18   32.91    5.87
 -10  -4  18   20.23    4.49
  -9  -4  18    4.68    2.51
  -8  -4  18    0.74    1.85
  -7  -4  18   35.19    5.67
  -7  -4  18   31.59    6.72
  -6  -4  18   55.36    6.86
  -6  -4  18   54.39    8.65
  -5  -4  18   43.32    7.73
  -4  -4  18    2.89    3.67
  -3  -4  18   -0.87    3.50
  -2  -4  18   28.59    7.13
  -1  -4  18    9.97    5.44
   0  -4  18  129.28   13.92
   1  -4  18    2.73    5.07
   2  -4  18   -1.54    4.80
   3  -4  18    5.56    5.44
   4  -4  18   -1.68    4.91
   5  -4  18   19.51    7.98
   6  -4  18   11.06    6.61
  -6   4 -18    1.31    2.98
  -7   4 -18   44.69    7.06
   7  -4  18   34.07    9.57
  -8   4 -18  107.18   11.09
   8  -4  18  113.33   15.52
   9  -4  18   13.22    8.41
  -9   4 -18   -0.21    3.47
 -10   4 -18    0.66    3.00
  10  -4  18    2.96    7.35
 -16  -3  18   -1.30    1.92
 -15  -3  18    8.73    3.11
 -14  -3  18   37.34    6.27
 -13  -3  18   15.88    3.94
 -12  -3  18    8.38    2.92
 -11  -3  18   85.14    8.48
 -10  -3  18   20.27    4.36
  -9  -3  18   10.03    3.10
  -8  -3  18   43.24    7.15
  -8  -3  18   35.73    5.70
  -7  -3  18   -0.40    2.97
  -6  -3  18  234.40   18.97
  -5  -3  18    8.70    4.52
  -4  -3  18    9.52    4.83
  -3  -3  18   22.70    6.33
  -2  -3  18    7.33    4.90
  -1  -3  18   97.70   11.97
   0  -3  18  256.87   21.43
   1  -3  18   13.88    6.08
   2  -3  18   72.85   11.28
   3  -3  18   27.67    8.25
   4  -3  18  122.03   14.63
   5  -3  18    1.32    5.08
  -5   3 -18   -0.80    2.48
   6  -3  18    9.20    6.36
  -6   3 -18   17.04    4.36
   7  -3  18   19.34    8.39
  -7   3 -18   21.19    5.09
   8  -3  18   38.97    9.88
  -8   3 -18   26.72    5.89
   9  -3  18    8.31    5.76
  -9   3 -18   -2.01    2.76
 -10   3 -18   -1.42    3.38
 -16  -2  18    1.93    2.24
 -15  -2  18    6.81    2.62
 -14  -2  18   30.11    5.50
 -13  -2  18   -1.75    1.36
 -12  -2  18   55.94    7.42
 -11  -2  18   94.67    8.91
 -10  -2  18   57.62    7.27
  -9  -2  18   23.79    5.57
  -8  -2  18    4.36    2.99
  -7  -2  18    4.16    3.37
  -6  -2  18    3.77    3.45
  -5  -2  18   -0.53    2.95
  -4  -2  18   30.03    6.69
  -3  -2  18   14.63    5.54
  -2  -2  18    4.03    3.94
  -1  -2  18    0.24    3.88
   0  -2  18    2.51    4.33
   1  -2  18    0.55    4.67
   2  -2  18  165.62   16.85
   3  -2  18  210.93   19.69
   4  -2  18   23.34    7.66
  -4   2 -18   18.35    4.71
   5  -2  18    5.19    5.37
  -5   2 -18    4.11    2.85
   6  -2  18   29.52    8.32
  -6   2 -18   22.81    5.16
  -7   2 -18   29.85    5.81
   7  -2  18   32.30    8.78
   8  -2  18    4.16    5.24
  -8   2 -18   -4.30    3.52
  -9   2 -18    3.02    2.92
 -10   2 -18    3.38    4.15
 -16  -1  18   20.73    4.52
 -15  -1  18   -1.09    1.93
 -14  -1  18   -0.24    1.80
 -13  -1  18   12.52    3.43
 -12  -1  18   18.09    3.97
 -11  -1  18    1.11    1.71
 -10  -1  18    3.84    2.97
  -9  -1  18    0.34    2.32
  -8  -1  18    0.88    2.44
  -7  -1  18   -2.01    2.05
  -6  -1  18    1.81    2.78
  -5  -1  18   56.71    8.26
  -4  -1  18    6.07    3.80
  -3  -1  18   74.18    9.84
  -2  -1  18   19.78    6.00
  -1  -1  18   -0.64    3.96
   0  -1  18  185.97   17.28
   1  -1  18    1.25    4.39
   2  -1  18   77.89   11.19
   3  -1  18   44.95    9.27
   4  -1  18   11.98    6.62
  -4   1 -18   13.96    3.87
  -5   1 -18   17.27    4.14
   5  -1  18   15.08    6.47
  -6   1 -18   57.16    7.61
   6  -1  18   44.86   10.15
   7  -1  18    6.82    5.68
  -7   1 -18    3.12    3.23
  -8   1 -18    2.68    3.43
  -9   1 -18   -0.77    3.08
 -16   0  18   19.09    3.99
 -15   0  18    7.24    2.41
 -14   0  18    0.74    1.70
 -13   0  18    1.81    2.01
 -11   0  18    4.20    2.90
 -10   0  18    6.62    3.12
  -9   0  18   13.95    4.56
  -8   0  18   13.52    4.27
  -7   0  18   22.01    5.46
  -6   0  18   16.00    4.67
  -5   0  18   32.13    6.55
  -4   0  18   32.93    6.66
  -3   0  18   64.30    8.96
  -2   0  18   43.32    8.04
  -1   0  18   33.41    7.50
   0   0  18   35.28    7.86
   1   0  18    7.31    5.06
   2   0  18   22.38    6.75
   3   0  18    4.49    4.87
  -3   0 -18   -0.29    2.17
  -4   0 -18   -1.63    1.90
   4   0  18   -3.04    4.11
  -5   0 -18   28.08    5.41
   5   0  18   36.02    8.93
   6   0  18   32.83    8.78
  -6   0 -18   31.50    5.45
  -7   0 -18   -1.90    2.40
  -8   0 -18   10.68    4.23
  -9   0 -18   -2.29    3.75
 -16   1  18    7.48    2.32
 -15   1  18    0.90    1.84
 -14   1  18   -0.28    1.70
 -12   1  18   -2.92    2.12
 -11   1  18    2.02    2.70
 -10   1  18   -1.04    2.44
  -9   1  18    0.04    2.32
  -8   1  18    3.34    2.72
  -7   1  18   10.01    3.74
  -6   1  18    8.85    4.07
  -5   1  18   -1.64    1.97
  -4   1  18    2.51    3.04
  -3   1  18    4.30    4.07
  -2   1  18  143.06   14.13
  -1   1  18  335.00   25.88
   0   1  18    2.89    4.16
   1   1  18    8.41    5.27
  -2  -1 -18   15.98    3.94
   2   1  18    7.62    4.86
   3   1  18   16.64    6.69
  -3  -1 -18   18.49    4.53
   4   1  18   28.19    8.06
  -4  -1 -18   30.34    5.58
  -5  -1 -18   34.10    5.69
   5   1  18   17.42    6.95
  -6  -1 -18    0.39    2.17
  -7  -1 -18   14.62    4.37
  -8  -1 -18    0.72    3.32
  -9  -1 -18    1.31    4.34
 -16   2  18    1.10    1.49
 -15   2  18   27.47    4.43
 -13   2  18   12.34    4.39
 -12   2  18   33.81    6.83
 -11   2  18    5.72    3.42
 -10   2  18    9.35    4.27
  -9   2  18   -0.49    2.60
  -8   2  18   -1.44    2.10
  -7   2  18   68.17    8.68
  -6   2  18   92.50    9.97
  -5   2  18    3.04    3.07
  -4   2  18    2.73    3.50
  -3   2  18  175.24   15.75
  -2   2  18   37.64    7.44
  -1   2  18   -4.21    3.00
   0   2  18  127.46   13.75
   1   2  18    1.39    4.26
   2   2  18    0.62    4.00
  -2  -2 -18    0.76    2.07
   3   2  18    9.35    5.41
  -3  -2 -18    4.71    3.02
   4   2  18    3.29    4.86
  -4  -2 -18    4.24    2.91
   5   2  18   15.49    6.68
  -5  -2 -18   13.46    3.77
  -6  -2 -18   -0.30    2.31
  -7  -2 -18   -4.12    2.43
  -8  -2 -18    9.74    4.33
 -16   3  18    4.16    1.78
 -14   3  18    2.10    2.36
 -14   3  18   -3.59    2.42
 -13   3  18    3.75    3.84
 -12   3  18   10.35    4.53
 -11   3  18   15.35    4.80
 -10   3  18    4.54    3.07
  -9   3  18   20.23    5.47
  -8   3  18   38.19    7.00
  -7   3  18   10.09    4.03
  -6   3  18    6.51    3.23
  -5   3  18  133.62   12.91
  -4   3  18   32.76    6.80
  -3   3  18    3.15    3.73
  -2   3  18  158.52   15.01
  -1   3  18    0.14    3.61
   0  -3 -18   96.04   10.77
   0   3  18   84.47   11.31
  -1  -3 -18    4.29    2.53
  -1  -3 -18    1.22    2.78
   1   3  18    1.06    4.04
  -2  -3 -18    2.87    2.67
   2   3  18   -0.87    3.81
  -2  -3 -18    0.54    2.26
   3   3  18    2.49    4.77
  -3  -3 -18    3.33    2.90
   4   3  18    7.42    5.45
  -4  -3 -18    7.08    3.21
  -5  -3 -18    4.32    2.62
  -6  -3 -18    0.82    2.87
  -7  -3 -18   17.71    4.73
  -8  -3 -18    2.29    4.13
 -15   4  18   27.89    5.11
 -15   4  18   29.60    6.70
 -14   4  18    3.61    3.40
 -14   4  18   -2.70    2.28
 -13   4  18  124.18   12.80
 -13   4  18  107.99   10.13
 -12   4  18   42.32    7.97
 -12   4  18   48.03    6.92
 -11   4  18   45.93    6.72
 -11   4  18   41.96    7.97
 -10   4  18   21.50    5.99
  -9   4  18   53.21    8.49
  -8   4  18    7.63    3.79
  -7   4  18    4.02    3.55
  -6   4  18    7.18    3.66
  -5   4  18  263.71   20.85
  -4   4  18   25.74    6.31
  -3   4  18  142.17   13.76
  -2   4  18   25.98    6.55
  -1   4  18   23.23    6.26
   1  -4 -18   29.26    6.31
   0   4  18    1.06    3.92
   0  -4 -18    5.71    3.37
  -1  -4 -18    1.44    1.98
   1   4  18   -0.85    3.53
  -1  -4 -18   -0.30    2.63
  -2  -4 -18    5.31    3.09
  -2  -4 -18    4.54    2.73
   2   4  18   -2.18    4.31
  -3  -4 -18   37.05    5.73
   3   4  18   32.31    8.11
  -4  -4 -18   14.12    3.61
  -5  -4 -18   -2.72    2.20
  -6  -4 -18   21.94    4.80
  -7  -4 -18   25.96    5.59
 -15   5  18   27.97    5.70
 -15   5  18   33.62    7.65
 -14   5  18    7.40    4.30
 -14   5  18    8.67    3.27
 -13   5  18  109.27   12.09
 -13   5  18   88.31   10.11
 -12   5  18   31.19    7.38
 -12   5  18   22.71    5.50
 -11   5  18    3.19    2.84
 -11   5  18   -3.03    2.56
 -10   5  18   29.85    7.14
 -10   5  18   25.31    5.57
  -9   5  18   83.72   10.66
  -8   5  18   30.52    6.65
  -7   5  18   14.42    4.69
  -6   5  18   -0.27    2.79
  -5   5  18    2.26    3.23
  -4   5  18   33.20    6.81
  -3   5  18    4.76    3.87
   3  -5 -18    4.64    3.37
   2  -5 -18    9.71    4.37
  -2   5  18   -0.41    2.83
  -1   5  18    6.22    4.22
   1  -5 -18    3.47    2.99
   0  -5 -18   13.09    4.73
   0   5  18   11.15    4.99
  -1  -5 -18   50.42    7.98
   1   5  18   34.46    8.00
  -2  -5 -18   16.79    5.03
   2   5  18   19.95    7.00
 -16   6  18   23.53    6.46
 -16   6  18   14.04    4.52
 -15   6  18    5.41    3.70
 -15   6  18    0.88    2.67
 -14   6  18   17.37    4.93
 -14   6  18   23.39    6.72
 -13   6  18   86.34   12.15
 -13   6  18   80.37    9.89
 -12   6  18   -0.01    2.66
 -12   6  18   -0.58    3.38
 -11   6  18   10.09    4.64
 -11   6  18    5.50    3.07
 -10   6  18   41.18    6.69
 -10   6  18   37.06    7.83
  -9   6  18   19.60    5.73
  -8   6  18    2.15    3.22
  -7   6  18   13.09    4.74
  -6   6  18    4.52    3.72
  -5   6  18   30.81    6.44
  -4   6  18   10.52    4.49
   4  -6 -18    1.96    3.54
  -3   6  18   25.17    6.36
   3  -6 -18   36.08    7.29
  -2   6  18    2.68    3.47
   2  -6 -18    0.65    2.52
   1  -6 -18    3.54    3.02
  -1   6  18    2.75    3.86
   0   6  18   16.47    6.17
   0  -6 -18   15.37    4.74
  -1  -6 -18   17.98    4.95
   1   6  18   12.15    5.50
  -2  -6 -18   61.25    9.10
 -17   7  18   13.86    5.21
 -17   7  18   21.44    4.98
 -16   7  18    2.95    4.15
 -16   7  18    6.93    4.00
 -15   7  18   15.46    4.19
 -15   7  18   15.65    5.50
 -14   7  18   37.46    8.55
 -14   7  18   34.08    6.80
 -13   7  18   46.79    9.79
 -13   7  18   46.86    7.91
 -12   7  18   43.13    8.84
 -12   7  18   36.03    6.95
 -11   7  18    2.06    3.57
 -11   7  18   -1.32    2.48
 -10   7  18    1.84    3.57
 -10   7  18    2.14    2.31
  -9   7  18    0.13    1.82
  -9   7  18   -4.67    2.34
  -8   7  18   10.87    4.79
  -7   7  18    8.85    4.46
  -6   7  18   10.71    4.77
  -5   7  18    7.41    3.87
   5  -7 -18    2.88    3.21
   4  -7 -18   -3.24    3.00
  -4   7  18    5.33    3.61
  -3   7  18    8.63    4.33
   3  -7 -18    9.04    3.91
  -2   7  18   67.06    9.47
   2  -7 -18   50.14    8.57
  -1   7  18    4.78    4.43
   1  -7 -18    9.23    4.34
   0   7  18   58.96    9.22
   0  -7 -18   35.60    7.43
  -1  -7 -18   16.62    5.11
  -2  -7 -18   29.09    6.26
 -18   8  18    7.09    2.84
 -17   8  18    1.02    2.89
 -17   8  18    0.26    3.55
 -16   8  18    8.50    4.76
 -16   8  18    0.40    3.06
 -15   8  18   32.31    7.96
 -15   8  18   15.46    5.58
 -14   8  18   24.44    5.93
 -14   8  18   33.96    8.53
 -13   8  18    7.47    4.91
 -13   8  18    2.39    3.18
 -12   8  18   18.25    6.03
 -12   8  18   16.75    4.12
 -11   8  18    3.61    2.90
 -11   8  18    1.60    3.88
 -10   8  18    8.66    3.34
 -10   8  18   -2.13    2.74
  -9   8  18   20.70    5.02
  -9   8  18   18.97    5.61
  -8   8  18    1.56    3.10
  -7   8  18   39.85    7.75
   6  -8 -18    5.69    3.56
  -6   8  18    0.03    3.32
  -5   8  18   -0.09    2.65
   5  -8 -18    0.97    3.02
   4  -8 -18    2.56    2.94
  -4   8  18    2.38    3.12
   3  -8 -18   72.70   10.15
  -3   8  18   55.88    9.01
  -2   8  18   31.27    7.28
   2  -8 -18   43.68    7.97
   1  -8 -18   21.32    5.80
  -1   8  18    9.54    5.18
   0  -8 -18   80.66   10.84
  -1  -8 -18   11.93    5.04
  -2  -8 -18   -3.74    2.57
 -18   9  18    5.91    2.77
 -18   9  18   -1.40    3.22
 -17   9  18   12.42    4.51
 -17   9  18    2.29    4.15
 -16   9  18   19.12    6.77
 -16   9  18   19.82    5.64
 -15   9  18   56.90   11.40
 -15   9  18   53.83    8.89
 -14   9  18   64.19    9.97
 -14   9  18   58.90   11.65
 -13   9  18   13.16    4.51
 -13   9  18   13.42    6.25
 -12   9  18    2.15    3.03
 -12   9  18    7.28    4.82
 -11   9  18   50.23   10.10
 -11   9  18   56.28    9.02
 -10   9  18    3.91    4.01
 -10   9  18    2.01    3.44
  -9   9  18   -0.19    2.97
  -9   9  18    4.78    3.27
  -8   9  18   46.31    8.35
   7  -9 -18   39.00    8.31
  -7   9  18   56.40    8.92
  -6   9  18    9.28    4.46
   6  -9 -18    6.15    3.90
   5  -9 -18   -1.06    2.55
  -5   9  18   -1.48    2.40
   4  -9 -18   27.33    6.71
  -4   9  18   18.03    5.56
  -3   9  18   27.52    6.62
   3  -9 -18   16.69    4.85
  -2   9  18   -0.79    3.11
   2  -9 -18    4.22    3.21
   1  -9 -18    1.84    3.02
   0  -9 -18   27.32    6.67
  -1  -9 -18    4.98    3.53
  -2  -9 -18    3.40    3.36
 -17  10  18   14.07    6.10
 -17  10  18    6.68    3.70
 -16  10  18   17.24    5.55
 -16  10  18   37.26    8.96
 -15  10  18   15.36    5.37
 -15  10  18   17.77    7.49
 -14  10  18   11.50    6.21
 -14  10  18    0.30    4.08
 -13  10  18    8.75    5.47
 -13  10  18    3.38    3.55
 -12  10  18    3.88    4.27
 -12  10  18   -1.85    2.75
 -11  10  18    7.90    4.96
 -11  10  18    9.15    4.60
 -10  10  18   14.86    4.65
 -10  10  18   14.92    5.69
  -9  10  18    4.27    3.31
  -9  10  18   -0.22    2.43
   8 -10 -18   33.52    8.68
  -8  10  18   44.00    8.22
   7 -10 -18   -0.54    3.49
  -7  10  18    5.91    3.91
  -6  10  18    0.24    2.75
   6 -10 -18    5.45    3.45
  -5  10  18   54.69    8.32
   5 -10 -18   44.51    8.69
   4 -10 -18   19.58    5.84
  -4  10  18   18.38    5.26
  -3  10  18    4.26    3.42
   3 -10 -18   -0.50    3.17
   2 -10 -18    6.84    3.49
   1 -10 -18    7.62    3.60
   0 -10 -18   17.08    5.00
  -1 -10 -18   25.10    6.35
  -2 -10 -18   16.84    4.87
 -16  11  18    5.79    5.18
 -16  11  18    6.21    3.83
 -15  11  18   13.83    4.69
 -15  11  18   15.80    6.36
 -14  11  18    6.51    5.14
 -14  11  18    3.84    3.46
 -13  11  18   13.53    6.66
 -13  11  18    8.97    4.00
 -12  11  18   21.72    6.40
 -12  11  18   17.83    7.21
 -11  11  18    1.17    4.49
 -11  11  18    2.79    3.63
 -10  11  18    0.63    2.97
 -10  11  18   -1.00    3.07
   9 -11 -18   18.82    6.80
  -9  11  18   13.22    4.75
  -9  11  18   18.16    5.94
   8 -11 -18  109.30   13.70
  -8  11  18   93.26   11.95
  -7  11  18    1.95    3.03
   7 -11 -18    2.21    3.34
  -6  11  18   16.54    5.70
   6 -11 -18   17.07    5.47
   5 -11 -18   64.43    9.91
  -5  11  18   32.88    7.07
  -4  11  18    1.18    3.04
   4 -11 -18   -0.38    2.89
   3 -11 -18   32.21    7.49
   2 -11 -18   48.50    9.03
   1 -11 -18    0.04    3.36
   0 -11 -18    6.42    4.05
  -1 -11 -18   21.39    6.08
 -15  12  18    5.13    4.50
 -15  12  18    2.71    3.92
 -14  12  18   18.69    6.18
 -14  12  18   24.78    8.28
 -13  12  18   -3.69    3.32
 -13  12  18   -3.31    3.76
 -12  12  18    6.48    6.04
 -12  12  18   13.70    5.65
 -11  12  18    6.67    4.17
 -11  12  18    4.49    5.06
 -10  12  18   32.39    8.57
 -10  12  18   24.98    8.71
  -9  12  18   56.64    8.52
  -9  12  18   59.59   10.07
   9 -12 -18   54.88   10.65
   8 -12 -18    5.71    5.11
  -8  12  18   11.31    5.01
   7 -12 -18   20.03    6.80
  -7  12  18   23.08    6.34
   6 -12 -18    7.84    4.23
  -6  12  18   10.22    4.46
  -5  12  18    2.47    2.98
   5 -12 -18   -4.63    2.44
   4 -12 -18   13.79    5.45
   3 -12 -18   76.07   11.54
   2 -12 -18   37.48    8.58
   1 -12 -18    9.52    4.50
 -14  13  18    1.57    5.01
 -14  13  18   -0.89    4.47
 -13  13  18   -3.24    4.10
 -13  13  18    0.85    3.73
 -12  13  18   -0.35    3.50
 -12  13  18   -1.07    3.54
 -11  13  18   -0.14    4.21
 -11  13  18    7.60    4.52
 -10  13  18   41.24    9.06
 -10  13  18   26.79    6.33
  10 -13 -18   33.75    9.07
  -9  13  18   17.68    6.54
  -9  13  18   22.38    5.49
   9 -13 -18    5.32    4.97
  -8  13  18   18.46    5.77
   8 -13 -18   -3.88    3.32
  -7  13  18   20.52    6.21
   7 -13 -18   -4.42    3.10
  -6  13  18   10.33    4.91
   6 -13 -18    8.63    4.07
   5 -13 -18    4.89    4.04
   4 -13 -18    8.49    3.93
   3 -13 -18   16.40    5.33
 -13  14  18   -6.29    4.02
 -13  14  18    0.41    4.77
 -12  14  18    2.06    4.19
 -12  14  18   -0.14    3.89
 -11  14  18   -2.92    3.20
 -11  14  18   -1.36    3.12
 -10  14  18   30.27    7.79
 -10  14  18   35.86    7.23
  -9  14  18   -0.68    3.56
  -9  14  18   -1.73    2.82
   9 -14 -18    1.78    3.37
  -8  14  18    7.26    4.75
   8 -14 -18   -1.52    3.09
   7 -14 -18    1.40    3.76
  -7  14  18    8.61    4.36
   6 -14 -18    3.25    3.45
 -11  15  18   14.70    6.27
 -11  15  18    8.72    5.59
  11 -15 -18   -1.34    4.69
 -10  15  18   -2.99    3.91
 -10  15  18    3.24    4.63
  -9  15  18    7.11    4.91
  -8  15  18    4.06    4.15
  -1 -17  19    4.78    4.12
   5 -17  19   -0.29    5.85
   6 -17  19   -1.94    4.96
  -3 -16  19    4.08    4.61
  -2 -16  19   -0.35    3.52
  -1 -16  19    3.35    3.55
   0 -16  19    8.67    3.98
   4 -16  19   18.95    7.80
   5 -16  19   10.30    6.33
   6 -16  19    9.19    7.42
   7 -16  19    6.93    6.94
  -4 -15  19    1.17    3.77
  -3 -15  19    1.57    3.20
  -2 -15  19    1.83    3.13
  -1 -15  19   14.90    4.23
   0 -15  19    1.63    2.65
   3 -15  19   13.44    6.45
   4 -15  19    5.77    5.51
   5 -15  19   13.45    6.93
   6 -15  19    7.90    6.05
   7 -15  19    4.37    6.50
   8 -15  19   21.89    7.88
  -5 -14  19    3.02    3.46
  -4 -14  19    4.77    3.73
  -3 -14  19   -2.42    2.27
  -2 -14  19    3.81    2.80
  -1 -14  19    0.74    1.97
   0 -14  19    2.47    2.65
   2 -14  19   -0.65    5.42
   3 -14  19   11.89    7.24
   4 -14  19   66.80   12.93
   5 -14  19   35.32   10.21
   6 -14  19   33.12   10.15
   7 -14  19   22.76    8.43
   8 -14  19   10.00    7.25
   9 -14  19   24.41    9.08
  -6 -13  19   -6.43    1.95
  -5 -13  19    2.73    3.17
  -4 -13  19    4.69    3.15
  -3 -13  19   -1.12    1.94
  -2 -13  19   24.13    4.79
  -1 -13  19    5.81    2.93
   0 -13  19   12.53    3.75
   1 -13  19    8.83    6.05
   2 -13  19    4.51    6.13
   3 -13  19   21.68    8.67
   4 -13  19  116.48   16.23
   5 -13  19   20.89    8.02
   6 -13  19    0.74    5.21
   7 -13  19    2.35    5.72
   8 -13  19   22.86    9.41
   9 -13  19    5.06    6.33
  -8 -12  19    0.47    3.29
  -7 -12  19    2.79    2.92
  -6 -12  19   -2.05    2.81
  -5 -12  19   10.90    4.13
  -4 -12  19   -1.53    2.22
  -3 -12  19   44.35    6.83
  -2 -12  19    4.96    2.55
  -1 -12  19  186.06   13.78
   0 -12  19   98.48    8.80
   0 -12  19   96.38   13.48
   1 -12  19   67.64   11.67
   2 -12  19    5.38    6.05
   3 -12  19   47.47   11.10
   4 -12  19   26.91    9.17
   5 -12  19    7.32    6.16
   6 -12  19    9.79    7.14
   7 -12  19   17.29    8.78
   8 -12  19   54.01   12.78
   9 -12  19    4.63    5.54
  -9 -11  19    1.36    2.77
  -8 -11  19    0.44    2.71
  -7 -11  19   11.56    4.42
  -6 -11  19    8.84    3.61
  -5 -11  19   28.16    5.94
  -4 -11  19   36.00    6.43
  -3 -11  19   16.12    4.16
  -2 -11  19    5.94    2.55
  -1 -11  19  106.14   13.39
  -1 -11  19   95.17    9.00
   0 -11  19  124.56   15.56
   0 -11  19  149.91   11.29
   1 -11  19   15.81    7.32
   2 -11  19   -5.82    4.02
   3 -11  19   64.57   12.08
   4 -11  19   -1.63    5.32
   5 -11  19   16.59    8.07
   6 -11  19   -1.88    5.99
   7 -11  19   16.98    7.98
   8 -11  19   -2.34    7.53
   9 -11  19    8.40    6.23
  10 -11  19    6.18    7.16
 -10 -10  19   -2.52    2.53
  -9 -10  19    5.51    2.85
  -7 -10  19   12.61    4.44
  -6 -10  19   54.57    8.18
  -5 -10  19   34.91    6.13
  -4 -10  19   -0.70    2.28
  -3 -10  19   28.64    5.21
  -2 -10  19    4.59    2.29
  -2 -10  19   11.16    5.87
  -1 -10  19   98.38   12.80
   0 -10  19   75.10    6.94
   0 -10  19   65.83   11.18
   1 -10  19    1.89    1.73
   1 -10  19    0.54    5.06
   2 -10  19   36.53    9.32
   3 -10  19  176.26   19.12
   4 -10  19    9.90    6.05
   5 -10  19    0.66    5.99
   6 -10  19    9.56    6.16
   7 -10  19   10.18    8.28
   8 -10  19    7.17    8.35
   9 -10  19   -3.59    6.15
  10 -10  19    2.03    5.76
 -11  -9  19    6.82    2.78
 -10  -9  19    7.17    3.21
  -9  -9  19   79.22   10.18
  -8  -9  19   22.95    5.74
  -7  -9  19   10.07    3.69
  -6  -9  19   59.05    7.94
  -5  -9  19    0.71    1.95
  -4  -9  19   51.03    7.00
  -3  -9  19   -6.63    3.56
  -3  -9  19    0.60    1.71
  -2  -9  19  157.10   11.75
  -2  -9  19  145.37   15.62
  -1  -9  19  146.33   15.43
  -1  -9  19  143.53   10.90
   0  -9  19   16.49    3.61
   0  -9  19   26.12    7.81
   1  -9  19    0.27    1.33
   1  -9  19    2.01    5.38
   2  -9  19  199.62   19.69
   3  -9  19  125.26   15.93
   4  -9  19   23.79    8.69
   5  -9  19    2.75    6.00
   6  -9  19   12.33    7.74
   7  -9  19    6.05    7.19
   8  -9  19   14.06    9.02
   9  -9  19    8.93    8.09
  10  -9  19    1.78    6.68
 -12  -8  19   -1.96    1.98
 -11  -8  19   13.87    4.63
 -10  -8  19   12.55    3.89
  -9  -8  19   45.27    7.49
  -8  -8  19   35.34    6.50
  -7  -8  19   30.66    5.83
  -6  -8  19   28.46    5.34
  -5  -8  19   16.11    4.12
  -4  -8  19    3.30    4.52
  -4  -8  19   -0.49    1.63
  -3  -8  19  169.81   16.25
  -3  -8  19  160.29   12.40
  -2  -8  19  220.23   20.12
  -2  -8  19  249.07   16.16
  -1  -8  19   27.88    4.62
  -1  -8  19   26.38    7.85
   0  -8  19   16.37    6.43
   0  -8  19    8.65    2.73
   1  -8  19   -1.26    1.18
   1  -8  19    4.80    6.03
   2  -8  19   11.89    7.03
   3  -8  19    2.50    4.86
   4  -8  19    1.08    4.55
   5  -8  19    6.64    6.21
   6  -8  19   -3.44    6.03
   7  -8  19    9.97    7.76
   8  -8  19   -0.30    5.74
   9  -8  19    4.98    7.93
  10  -8  19   18.47   10.43
  11  -8  19   11.14   11.32
 -12  -7  19   -1.74    2.48
 -11  -7  19    5.73    2.76
 -10  -7  19   20.59    5.01
  -9  -7  19    5.80    2.86
  -8  -7  19   24.96    5.19
  -7  -7  19  131.25   11.40
  -6  -7  19   22.27    4.92
  -5  -7  19   -0.93    1.73
  -5  -7  19    4.44    4.80
  -4  -7  19  109.47   13.04
  -4  -7  19  118.45    9.91
  -3  -7  19   96.41    8.70
  -3  -7  19  113.86   12.79
  -2  -7  19   19.62    4.09
  -2  -7  19   17.17    6.49
  -1  -7  19    1.41    1.41
  -1  -7  19   -0.33    4.45
   0  -7  19   18.87    3.56
   0  -7  19    8.08    5.93
   1  -7  19    1.90    1.59
   1  -7  19    1.31    4.80
   2  -7  19    7.10    5.87
   3  -7  19    0.48    5.41
   4  -7  19   24.71    8.11
   5  -7  19    3.27    6.29
   6  -7  19   18.37    8.21
   7  -7  19    1.41    6.63
   8  -7  19   34.49   10.48
   9  -7  19   12.26    8.02
 -10   7 -19    5.29    3.37
  10  -7  19    4.67    8.08
  11  -7  19   13.80   10.44
 -13  -6  19   20.24    5.10
 -12  -6  19    6.11    3.27
 -11  -6  19   26.29    5.57
 -10  -6  19   26.50    5.47
  -9  -6  19   12.18    3.49
  -8  -6  19  179.87   14.32
  -7  -6  19  487.26   30.02
  -6  -6  19   70.45    9.92
  -6  -6  19   72.30    8.30
  -5  -6  19    0.16    1.55
  -5  -6  19   -3.83    3.83
  -4  -6  19   91.41    8.32
  -4  -6  19   86.02   11.09
  -3  -6  19   24.68    4.53
  -3  -6  19   28.97    7.45
  -2  -6  19   17.16    3.89
  -2  -6  19    9.94    5.80
  -1  -6  19   39.95    5.30
  -1  -6  19   27.91    7.90
   0  -6  19    0.82    1.40
   0  -6  19   -1.56    4.58
   1  -6  19   -4.29    4.05
   1  -6  19   -1.13    1.05
   2  -6  19   38.41    8.84
   3  -6  19    5.00    5.44
   4  -6  19   56.18   11.04
   5  -6  19   19.94    8.33
   6  -6  19   -5.09    5.13
   7  -6  19   27.60    9.56
   8  -6  19   22.41    8.92
  -9   6 -19   -5.88    2.70
   9  -6  19    4.95    7.27
  10  -6  19    1.66    7.29
 -10   6 -19   -6.29    3.05
  11  -6  19   77.54   16.26
 -14  -5  19    1.85    2.18
 -13  -5  19   20.99    5.02
 -12  -5  19   30.58    5.74
 -11  -5  19    8.69    3.13
 -10  -5  19    2.98    2.21
  -9  -5  19    6.32    2.76
  -8  -5  19   88.32    8.83
  -7  -5  19  116.76   12.39
  -7  -5  19  109.43   10.01
  -6  -5  19    3.38    2.41
  -6  -5  19    3.37    4.32
  -5  -5  19   60.93    9.53
  -5  -5  19   60.61    7.31
  -4  -5  19    2.53    4.64
  -4  -5  19    4.18    2.18
  -3  -5  19    0.33    4.02
  -2  -5  19   46.50    8.90
  -1  -5  19   -5.30    3.80
   0  -5  19   -2.48    4.06
   1  -5  19    1.87    4.99
   2  -5  19   -0.58    4.08
   3  -5  19   13.36    6.66
   4  -5  19   31.89    9.33
   5  -5  19    1.46    5.52
   6  -5  19   66.66   12.22
   7  -5  19   43.64   10.77
  -8   5 -19   12.06    4.36
   8  -5  19   13.29    8.19
   9  -5  19   11.30    7.55
  -9   5 -19   -1.33    2.77
  10  -5  19   11.34    8.45
 -10   5 -19   -1.35    3.75
 -15  -4  19    0.84    1.94
 -14  -4  19    7.94    2.82
 -13  -4  19   34.26    6.16
 -12  -4  19   38.93    6.50
 -11  -4  19    0.23    1.98
 -10  -4  19   13.91    3.80
  -9  -4  19  127.69   11.10
  -8  -4  19    0.80    3.59
  -8  -4  19   -2.31    1.60
  -7  -4  19    7.58    3.13
  -7  -4  19    2.32    4.33
  -6  -4  19    7.08    4.63
  -5  -4  19   10.52    5.14
  -4  -4  19   31.97    7.33
  -3  -4  19    7.49    5.15
  -2  -4  19    3.85    4.69
  -1  -4  19  168.19   16.47
   0  -4  19   72.10   11.10
   1  -4  19   15.94    6.74
   2  -4  19    3.40    5.32
   3  -4  19    4.36    4.82
   4  -4  19    0.09    5.71
   5  -4  19   92.98   13.83
   6  -4  19  183.68   19.52
  -7   4 -19    9.31    3.67
   7  -4  19    3.17    6.01
   8  -4  19   10.59    7.22
  -8   4 -19   -1.92    3.07
   9  -4  19   42.32   11.08
  10  -4  19   14.17    9.23
 -15  -3  19   -2.99    1.76
 -14  -3  19   13.41    3.72
 -13  -3  19   48.84    7.26
 -12  -3  19   11.97    3.51
 -11  -3  19    7.90    2.95
 -10  -3  19   11.10    3.43
  -9  -3  19   12.64    3.44
  -8  -3  19   -3.56    1.39
  -8  -3  19    2.11    3.40
  -7  -3  19   45.95    7.89
  -6  -3  19    3.26    3.78
  -5  -3  19   48.59    8.46
  -4  -3  19   74.23   10.22
  -3  -3  19  130.38   13.75
  -2  -3  19   44.29    8.72
  -1  -3  19   94.52   12.15
   0  -3  19   19.26    6.75
   1  -3  19  183.17   18.24
   2  -3  19   22.28    7.78
   3  -3  19   21.05    7.95
   4  -3  19   31.33    8.52
   5  -3  19   28.75    8.76
   6  -3  19   99.36   14.11
  -6   3 -19   93.65   10.01
  -7   3 -19    5.71    3.48
   7  -3  19    1.22    5.23
   8  -3  19   21.56    8.53
  -8   3 -19   10.84    4.48
  -9   3 -19   -0.98    3.18
   9  -3  19   18.31    9.06
 -16  -2  19   13.19    3.29
 -15  -2  19   -2.75    1.54
 -14  -2  19   -4.87    1.51
 -13  -2  19   15.89    4.14
 -12  -2  19    7.01    2.85
 -11  -2  19   22.63    4.48
 -10  -2  19   -2.73    1.25
  -9  -2  19   11.26    4.39
  -8  -2  19    0.99    2.46
  -7  -2  19    5.63    3.23
  -6  -2  19    2.83    3.39
  -5  -2  19    4.27    3.74
  -4  -2  19    7.12    4.37
  -3  -2  19    9.05    5.10
  -2  -2  19   93.81   11.71
  -1  -2  19   31.71    7.65
   0  -2  19    5.74    5.25
   1  -2  19  394.26   30.23
   2  -2  19  136.37   15.36
   3  -2  19   15.28    6.36
   4  -2  19   56.32   10.77
  -5   2 -19   18.53    4.30
   5  -2  19   18.75    7.79
  -6   2 -19   37.75    6.24
   6  -2  19   35.90    9.72
   7  -2  19    4.46    5.36
  -7   2 -19   -1.41    3.10
   8  -2  19   12.94    6.38
  -8   2 -19    4.26    3.80
  -9   2 -19    1.30    3.43
 -16  -1  19   10.63    2.87
 -15  -1  19    7.00    2.52
 -14  -1  19    8.45    3.21
 -13  -1  19    3.31    2.10
 -12  -1  19    0.25    1.52
 -10  -1  19   10.04    4.30
  -9  -1  19   -0.11    2.12
  -8  -1  19   21.26    5.71
  -7  -1  19   12.69    4.09
  -6  -1  19  101.86   11.02
  -5  -1  19    7.39    4.09
  -4  -1  19   32.09    7.02
  -3  -1  19   50.59    8.59
  -2  -1  19   23.04    6.55
  -1  -1  19   -1.17    3.87
   0  -1  19   12.79    5.70
   1  -1  19  246.37   21.61
   2  -1  19   26.01    7.54
   3  -1  19   16.37    7.20
   4  -1  19    6.83    5.64
  -4   1 -19    8.31    3.68
  -5   1 -19  127.70   10.58
   5  -1  19  133.33   15.24
   6  -1  19    3.59    5.89
  -6   1 -19    2.15    3.04
   7  -1  19    9.48    6.02
  -7   1 -19    9.97    4.15
  -8   1 -19   -0.24    3.63
  -9   1 -19   -2.78    3.72
 -16   0  19    1.60    1.58
 -15   0  19    9.03    2.85
 -14   0  19   -3.33    1.41
 -13   0  19    5.36    2.53
 -11   0  19   37.87    6.66
 -10   0  19    6.49    3.52
  -9   0  19   48.88    7.76
  -8   0  19   12.16    4.41
  -7   0  19   98.49   10.85
  -6   0  19    1.77    2.60
  -5   0  19   18.62    5.34
  -4   0  19  107.41   11.63
  -3   0  19   20.20    5.93
  -2   0  19   12.16    5.37
  -1   0  19    7.26    5.42
   0   0  19   -2.65    3.47
   1   0  19    7.57    5.09
   2   0  19   -0.11    4.74
   3   0  19   16.61    6.76
   4   0  19   73.36   11.74
  -4   0 -19   77.39    8.61
  -5   0 -19   50.45    7.15
   5   0  19   46.18    9.92
   6   0  19   -1.65    5.52
  -6   0 -19    2.09    2.74
  -7   0 -19    0.84    2.98
  -8   0 -19    1.50    3.37
 -16   1  19    4.21    1.97
 -15   1  19    9.17    2.99
 -14   1  19   14.64    3.36
 -12   1  19   32.91    6.66
 -11   1  19   31.97    6.65
 -10   1  19    0.58    2.60
  -9   1  19  118.57   11.59
  -8   1  19   81.19   10.02
  -7   1  19  186.27   16.27
  -6   1  19    5.04    2.99
  -5   1  19   14.30    4.82
  -4   1  19   65.49    9.11
  -3   1  19    5.88    4.44
  -2   1  19   10.94    5.34
  -1   1  19    3.65    4.04
   0   1  19    9.61    5.76
   1   1  19   27.36    7.60
   2   1  19    4.70    5.09
   3   1  19    6.04    5.38
  -3  -1 -19   15.95    3.99
  -4  -1 -19   28.78    5.55
   4   1  19   30.53    8.54
  -5  -1 -19   43.69    6.51
   5   1  19   35.38    9.07
  -6  -1 -19    3.35    2.72
  -7  -1 -19    2.82    3.19
  -8  -1 -19    1.45    3.67
 -16   2  19    2.20    1.70
 -15   2  19    0.77    1.53
 -13   2  19    6.22    4.01
 -12   2  19   17.50    5.34
 -11   2  19   -2.77    2.68
 -10   2  19   23.92    6.00
  -9   2  19  201.84   17.23
  -8   2  19  188.90   16.15
  -7   2  19   60.53    8.70
  -6   2  19   24.60    5.78
  -5   2  19   12.01    4.06
  -4   2  19    5.40    4.12
  -3   2  19    6.04    4.30
  -2   2  19  167.13   15.85
  -1   2  19  324.39   25.64
   0   2  19    3.68    4.23
   1   2  19   45.84    9.07
   2   2  19   -1.73    4.38
  -2  -2 -19    2.62    2.70
   3   2  19    2.54    5.07
  -3  -2 -19    4.49    2.68
  -4  -2 -19   12.60    3.82
   4   2  19   13.82    6.68
  -5  -2 -19    7.46    3.17
  -6  -2 -19   -0.24    2.51
  -7  -2 -19   -0.26    2.87
  -8  -2 -19    3.06    4.51
 -16   3  19    1.36    1.39
 -14   3  19   13.82    5.06
 -13   3  19    1.19    2.69
 -12   3  19   -2.12    3.00
 -11   3  19    1.84    2.96
 -10   3  19   77.46   10.30
  -9   3  19  207.11   17.74
  -8   3  19   64.68    9.12
  -7   3  19    7.96    3.45
  -6   3  19   38.84    7.22
  -5   3  19   14.64    5.09
  -4   3  19   10.91    4.91
  -3   3  19  145.30   14.27
  -2   3  19  285.59   22.97
  -1   3  19   16.23    6.16
   0   3  19   -1.43    2.99
   1   3  19    1.97    4.47
   2   3  19   10.80    5.94
  -2  -3 -19   27.61    4.93
   3   3  19    6.19    5.43
  -3  -3 -19   -0.97    2.48
  -4  -3 -19   21.71    4.81
   4   3  19   19.53    7.32
  -5  -3 -19    7.20    3.40
  -6  -3 -19   28.64    5.77
  -7  -3 -19    2.23    4.07
 -15   4  19    8.30    4.48
 -15   4  19   13.95    3.86
 -14   4  19   41.62    6.68
 -14   4  19   54.59    8.88
 -13   4  19    6.20    3.96
 -12   4  19   -1.18    2.82
 -11   4  19    0.16    2.84
 -10   4  19   77.78   10.58
  -9   4  19    7.07    3.57
  -8   4  19   16.44    5.05
  -7   4  19    0.42    2.38
  -6   4  19    4.20    3.57
  -5   4  19   -0.22    2.96
  -4   4  19   16.51    5.29
  -3   4  19   10.04    4.94
  -2   4  19    0.18    3.61
  -1   4  19   -0.47    3.22
   0  -4 -19    6.68    3.87
   0   4  19    6.40    4.94
   1   4  19   14.91    6.10
  -1  -4 -19   16.19    5.11
   2   4  19    1.93    5.23
  -2  -4 -19    1.70    2.53
  -3  -4 -19    6.60    3.30
   3   4  19    8.71    5.42
  -4  -4 -19   10.96    3.45
  -5  -4 -19   10.20    3.59
  -6  -4 -19   12.18    4.29
 -15   5  19   26.15    5.35
 -15   5  19   34.37    7.87
 -14   5  19   32.76    7.58
 -14   5  19   24.40    5.25
 -13   5  19    7.70    3.21
 -13   5  19   -0.48    3.08
 -12   5  19   17.43    5.91
 -12   5  19   28.21    5.83
 -11   5  19    7.66    4.45
 -10   5  19    4.88    3.31
  -9   5  19    1.05    2.68
  -8   5  19    9.27    4.03
  -7   5  19   15.92    5.05
  -6   5  19    7.24    3.84
  -5   5  19   -2.01    2.57
  -4   5  19    0.03    2.94
  -3   5  19   35.58    7.55
   2  -5 -19   -1.05    2.71
  -2   5  19   -1.86    2.82
   1  -5 -19   42.57    7.77
  -1   5  19   46.88    8.60
   0  -5 -19   18.34    5.15
   0   5  19    4.90    4.52
  -1  -5 -19    4.13    3.33
   1   5  19   -5.34    3.96
   2   5  19    0.46    4.33
 -16   6  19   14.64    5.58
 -16   6  19   10.04    3.70
 -15   6  19   30.06    5.81
 -15   6  19   30.79    7.20
 -14   6  19    9.66    4.80
 -14   6  19    4.99    3.29
 -13   6  19   30.96    7.79
 -13   6  19   41.22    7.14
 -12   6  19   54.62    9.67
 -12   6  19   47.86    7.75
 -11   6  19   -2.57    2.96
 -11   6  19    2.84    2.91
 -10   6  19    9.44    4.47
  -9   6  19   10.93    4.50
  -8   6  19    7.88    3.98
  -7   6  19   60.75    9.31
  -6   6  19    6.94    3.92
  -5   6  19   22.67    6.18
  -4   6  19   28.77    6.98
   3  -6 -19    4.15    3.34
  -3   6  19    2.16    3.37
   2  -6 -19   16.89    5.32
  -2   6  19    4.04    3.86
   1  -6 -19   77.81   10.46
  -1   6  19   92.79   11.58
   0   6  19   38.09    8.39
   0  -6 -19   38.70    7.75
  -1  -6 -19    4.12    3.63
   1   6  19    8.85    5.73
 -17   7  19    9.56    4.67
 -17   7  19   -8.08    2.61
 -16   7  19   43.03    7.53
 -16   7  19   62.06   10.73
 -15   7  19   11.66    4.90
 -15   7  19    6.97    4.68
 -14   7  19    2.66    3.07
 -14   7  19    3.12    4.42
 -13   7  19    5.55    4.87
 -13   7  19    2.11    2.92
 -12   7  19    2.00    3.43
 -12   7  19    1.49    2.43
 -11   7  19   11.64    4.96
 -11   7  19   14.66    4.53
 -10   7  19   80.29   11.39
  -9   7  19   10.36    4.59
  -8   7  19    3.37    3.58
  -7   7  19    8.79    4.39
  -6   7  19   15.47    5.40
   5  -7 -19   34.11    7.53
  -5   7  19   28.01    6.65
  -4   7  19   11.74    4.75
   4  -7 -19   15.01    5.11
   3  -7 -19    0.69    2.81
  -3   7  19    2.28    3.61
  -2   7  19   17.11    5.55
   2  -7 -19    7.26    4.14
   1  -7 -19  108.88   12.48
  -1   7  19  108.58   12.51
   0  -7 -19    7.69    3.87
   0   7  19    6.67    5.42
  -1  -7 -19   15.97    4.80
 -18   8  19   -2.17    3.03
 -18   8  19   -7.66    2.02
 -17   8  19    1.89    3.85
 -17   8  19   -0.42    2.72
 -16   8  19    7.74    4.88
 -16   8  19    7.92    4.13
 -15   8  19   11.45    5.01
 -15   8  19   13.24    6.16
 -14   8  19    8.60    5.05
 -14   8  19   13.29    5.38
 -13   8  19    9.71    4.28
 -13   8  19   16.68    6.82
 -12   8  19   -3.11    2.55
 -12   8  19   -3.38    3.60
 -11   8  19   -2.99    2.09
 -11   8  19    6.13    4.20
 -10   8  19    8.76    4.77
 -10   8  19    5.64    3.63
  -9   8  19    6.09    4.19
  -8   8  19   10.51    4.85
  -7   8  19    5.68    4.01
   6  -8 -19   85.38   11.52
  -6   8  19   77.69   10.52
  -5   8  19   28.40    6.68
   5  -8 -19   31.86    7.62
   4  -8 -19   24.44    6.46
  -4   8  19   25.14    6.52
  -3   8  19   22.22    6.26
   3  -8 -19   20.10    5.63
   2  -8 -19   78.90   10.86
  -2   8  19   92.03   11.45
   1  -8 -19   67.75    9.96
  -1   8  19   51.88    8.98
   0  -8 -19    3.38    3.14
  -1  -8 -19    5.37    3.86
 -17   9  19    2.76    3.29
 -17   9  19    0.47    3.53
 -16   9  19    0.95    3.09
 -16   9  19   -0.11    3.95
 -15   9  19    6.12    4.31
 -15   9  19    6.49    4.61
 -14   9  19    5.57    3.88
 -14   9  19    2.46    4.52
 -13   9  19   -4.51    2.44
 -13   9  19   -1.49    3.23
 -12   9  19   11.88    5.04
 -12   9  19   23.71    7.16
 -11   9  19   17.38    6.17
 -11   9  19    8.55    3.60
 -10   9  19   -4.21    2.37
 -10   9  19    1.48    3.73
  -9   9  19    1.04    3.54
  -8   9  19   25.87    6.62
  -7   9  19   30.50    7.24
   7  -9 -19   26.79    6.93
  -6   9  19   20.76    5.99
   6  -9 -19   24.29    6.44
   5  -9 -19   70.67   10.42
  -5   9  19   48.11    8.22
  -4   9  19    5.32    3.80
   4  -9 -19    9.11    4.01
  -3   9  19   91.17   11.24
   3  -9 -19   66.21   10.20
  -2   9  19   48.25    8.65
   2  -9 -19   55.00    9.43
   1  -9 -19   -1.11    3.30
   0  -9 -19    2.75    3.49
  -1  -9 -19   11.69    5.12
 -17  10  19    6.32    4.81
 -17  10  19   10.92    4.10
 -16  10  19    6.74    4.11
 -16  10  19    4.88    5.02
 -15  10  19   10.70    4.19
 -15  10  19    4.38    5.20
 -14  10  19   -0.74    3.00
 -14  10  19   -3.05    3.61
 -13  10  19   21.18    7.86
 -13  10  19   11.89    5.03
 -12  10  19    5.01    3.63
 -12  10  19    6.19    4.75
 -11  10  19   16.94    6.51
 -11  10  19   23.85    6.26
 -10  10  19   -3.22    2.94
 -10  10  19   -1.52    2.98
  -9  10  19    7.73    4.82
  -8  10  19    4.16    3.89
  -7  10  19   40.90    7.97
   7 -10 -19   45.66    8.95
  -6  10  19   58.41    9.04
   6 -10 -19   66.32   10.50
   5 -10 -19   41.66    8.28
  -5  10  19   33.21    6.96
  -4  10  19   22.66    6.30
   4 -10 -19   19.38    5.45
   3 -10 -19   46.22    8.87
  -3  10  19   57.87    9.05
   2 -10 -19   -0.98    3.00
   1 -10 -19   -1.17    2.73
   0 -10 -19    5.66    2.97
  -1 -10 -19   26.80    6.20
 -16  11  19   11.66    4.77
 -16  11  19   36.20    9.28
 -15  11  19    5.63    5.52
 -15  11  19    4.25    4.48
 -14  11  19   45.74   10.79
 -14  11  19   50.51    9.64
 -13  11  19   22.15    6.34
 -13  11  19   24.44    8.29
 -12  11  19    6.02    5.58
 -12  11  19   12.05    5.23
 -11  11  19   34.56    8.79
 -11  11  19   28.70    7.38
 -10  11  19   23.02    7.12
 -10  11  19   14.92    5.46
  -9  11  19    7.47    4.67
   8 -11 -19   27.78    8.21
  -8  11  19   23.74    6.86
   7 -11 -19   68.28   10.92
  -7  11  19   72.12   10.39
   6 -11 -19   53.07    9.45
  -6  11  19   46.13    8.41
   5 -11 -19   -1.85    2.49
  -5  11  19    1.71    3.45
  -4  11  19   17.61    5.63
   4 -11 -19   21.19    6.42
   3 -11 -19   31.58    8.12
   2 -11 -19    7.02    4.34
   1 -11 -19   17.04    6.03
   0 -11 -19    0.03    3.32
 -15  12  19   10.55    6.06
 -15  12  19    8.34    3.83
 -14  12  19    4.50    5.23
 -14  12  19   11.00    4.98
 -13  12  19   -2.00    3.76
 -13  12  19    1.77    4.24
 -12  12  19    3.54    4.21
 -12  12  19   -4.03    3.66
 -11  12  19    1.67    4.56
 -11  12  19    4.24    3.85
 -10  12  19   -4.87    3.33
 -10  12  19    2.31    3.78
   9 -12 -19   11.52    5.89
  -9  12  19    6.98    4.55
  -8  12  19   36.11    8.06
   8 -12 -19    9.11    5.83
   7 -12 -19   16.49    5.25
  -7  12  19    6.71    4.44
   6 -12 -19   -1.39    2.80
  -6  12  19   -4.49    3.13
  -5  12  19    1.75    3.50
   5 -12 -19    5.29    3.93
   4 -12 -19   24.07    7.01
   3 -12 -19   18.96    6.07
   2 -12 -19    0.08    2.86
 -13  13  19    4.27    4.56
 -13  13  19   -1.52    4.34
 -12  13  19   -3.97    2.98
 -12  13  19    0.11    3.92
 -11  13  19    1.27    3.10
 -11  13  19    0.59    3.10
 -10  13  19   -0.41    4.18
 -10  13  19   -1.15    4.13
  10 -13 -19    3.27    4.04
   9 -13 -19    2.90    3.57
  -9  13  19   14.68    5.53
  -8  13  19    1.29    3.34
   8 -13 -19   -1.04    3.37
  -7  13  19    2.64    3.55
   7 -13 -19   -5.54    2.30
  -6  13  19   -1.24    3.17
   6 -13 -19    1.19    3.27
   5 -13 -19    1.38    3.28
 -12  14  19    0.67    4.49
 -12  14  19    1.32    4.34
 -11  14  19    0.69    4.41
 -11  14  19   -0.12    3.65
  10 -14 -19    4.80    4.83
 -10  14  19   13.46    6.26
 -10  14  19   12.19    5.61
  -9  14  19    8.62    5.19
   9 -14 -19   -4.73    3.91
  -8  14  19    1.72    3.87
   8 -14 -19    2.36    4.71
  -7  14  19    3.71    4.13
  -9  15  19    7.23    5.40
  -8  15  19    1.26    5.03
   5 -17  20   28.23    7.45
  -2 -16  20   -3.99    3.30
  -1 -16  20   -2.12    2.88
   4 -16  20    5.69    5.87
   5 -16  20   30.04    9.28
   6 -16  20   11.54    6.90
  -4 -15  20   -2.50    4.05
  -3 -15  20    1.05    4.09
  -2 -15  20   -3.05    2.84
  -1 -15  20   31.31    6.29
   3 -15  20    2.10    5.26
   4 -15  20   11.46    7.43
   5 -15  20   21.02    7.69
   6 -15  20    5.59    6.55
   7 -15  20   19.02    7.77
  -5 -14  20    0.70    3.43
  -4 -14  20    5.98    3.73
  -3 -14  20    2.94    2.95
  -2 -14  20    3.49    2.86
  -1 -14  20   17.17    4.29
   0 -14  20  128.37   11.05
   2 -14  20   17.37    7.37
   3 -14  20   31.67    9.97
   4 -14  20   26.02    8.84
   5 -14  20   -1.26    5.31
   6 -14  20   24.35    8.58
   7 -14  20   54.01   13.26
   8 -14  20   37.86   10.36
  -6 -13  20   -1.66    2.57
  -5 -13  20    0.52    3.47
  -4 -13  20    9.77    3.76
  -3 -13  20   15.33    4.23
  -2 -13  20    0.27    1.95
  -1 -13  20   53.38    7.17
   0 -13  20    9.37    3.25
   1 -13  20    1.90    5.68
   2 -13  20   87.16   13.87
   3 -13  20  110.40   16.05
   4 -13  20   -3.56    5.48
   5 -13  20   21.49    8.20
   6 -13  20   16.97    7.35
   7 -13  20   36.75   10.93
   8 -13  20    4.86    6.66
  -7 -12  20   -4.31    2.58
  -6 -12  20    1.60    2.84
  -5 -12  20   55.05    8.10
  -4 -12  20    4.09    2.83
  -3 -12  20    3.09    2.08
  -2 -12  20   50.74    7.05
  -1 -12  20   94.78    8.83
   0 -12  20    3.67    2.54
   0 -12  20    7.14    5.36
   1 -12  20   44.52   10.00
   2 -12  20   93.51   14.36
   3 -12  20   28.67    9.11
   4 -12  20   14.23    7.27
   5 -12  20   32.66    9.53
   6 -12  20   23.97    9.01
   7 -12  20   15.75    7.62
   8 -12  20    0.86    6.39
   9 -12  20    7.26    7.54
  -8 -11  20   -0.63    2.39
  -7 -11  20    2.99    3.35
  -6 -11  20  182.33   15.10
  -5 -11  20   82.57    9.98
  -4 -11  20    7.46    2.78
  -3 -11  20   38.89    6.45
  -2 -11  20   36.02    6.03
  -1 -11  20    3.86    5.28
  -1 -11  20    3.10    1.95
   0 -11  20   -0.66    5.37
   0 -11  20    7.33    2.86
   1 -11  20   -3.18    5.56
   2 -11  20   -2.54    5.14
   3 -11  20    0.42    5.95
   4 -11  20   -3.96    5.16
   5 -11  20    0.98    5.23
   6 -11  20    0.73    6.77
   7 -11  20   23.70    8.99
   8 -11  20    1.43    5.39
   9 -11  20    3.89    6.28
  -9 -10  20   -1.96    2.65
  -8 -10  20    1.14    3.28
  -7 -10  20   67.86    9.60
  -6 -10  20  139.96   12.62
  -5 -10  20   12.82    3.97
  -4 -10  20   26.48    5.24
  -3 -10  20   11.44    3.56
  -2 -10  20   27.31    4.91
  -2 -10  20   23.91    7.48
  -1 -10  20   40.77    5.86
  -1 -10  20   40.96    9.30
   0 -10  20   10.08    6.47
   0 -10  20   13.22    3.48
   1 -10  20   14.82    6.82
   2 -10  20    3.43    6.61
   3 -10  20    5.20    6.41
   4 -10  20    6.81    6.50
   5 -10  20    9.13    6.46
   6 -10  20   10.07    7.24
   7 -10  20   13.35    8.75
   8 -10  20    0.95    7.15
   9 -10  20    1.48    5.38
 -10  -9  20   92.54   11.50
  -9  -9  20    0.47    2.78
  -8  -9  20   49.60    8.25
  -7  -9  20  133.25   12.13
  -6  -9  20   47.98    7.37
  -5  -9  20   13.40    3.69
  -4  -9  20    3.02    2.17
  -3  -9  20   41.89    8.88
  -3  -9  20   56.96    6.97
  -2  -9  20   25.76    7.88
  -2  -9  20   31.07    5.23
  -1  -9  20    1.44    5.44
  -1  -9  20    4.97    2.11
   0  -9  20   21.37    4.01
   0  -9  20   11.81    6.93
   1  -9  20   12.12    6.80
   2  -9  20    8.91    6.76
   3  -9  20   27.78    8.91
   4  -9  20   13.87    7.50
   5  -9  20   -8.61    4.83
   6  -9  20    9.10    7.82
   7  -9  20   15.41    8.84
   8  -9  20    0.40    7.40
   9  -9  20    1.62    5.83
  10  -9  20    5.58    7.07
 -11  -8  20   50.76    8.21
 -10  -8  20   51.02    8.08
  -9  -8  20   13.57    4.40
  -8  -8  20  147.44   12.97
  -7  -8  20   39.93    6.50
  -6  -8  20   -2.85    1.67
  -5  -8  20    0.62    2.04
  -4  -8  20    2.62    2.49
  -4  -8  20   11.70    5.81
  -3  -8  20   35.09    5.58
  -3  -8  20   28.34    7.72
  -2  -8  20    1.08    4.73
  -2  -8  20   -3.06    1.49
  -1  -8  20    5.50    5.92
  -1  -8  20   21.83    3.99
   0  -8  20    0.58    1.59
   0  -8  20    3.07    5.15
   1  -8  20    3.81    5.96
   2  -8  20    7.25    6.23
   3  -8  20    2.64    5.93
   4  -8  20    2.27    5.96
   5  -8  20    1.91    5.91
   6  -8  20   -3.22    5.98
   7  -8  20   48.40   12.30
   8  -8  20   22.89   10.01
   9  -8  20    1.32    4.67
  10  -8  20   45.78   13.92
 -12  -7  20   44.38    7.83
 -11  -7  20   68.01    9.35
 -10  -7  20   -1.14    1.85
  -9  -7  20    5.87    2.75
  -8  -7  20   77.23    9.38
  -7  -7  20   -5.26    1.54
  -6  -7  20   -0.41    1.90
  -5  -7  20   20.98    4.66
  -5  -7  20   17.57    6.85
  -4  -7  20  112.27   13.00
  -4  -7  20   92.72    8.85
  -3  -7  20   51.80    6.57
  -3  -7  20   44.60    9.19
  -2  -7  20    0.86    1.51
  -2  -7  20    4.12    5.00
  -1  -7  20   45.14    5.71
  -1  -7  20   31.88    8.43
   0  -7  20    2.25    1.58
   0  -7  20   -3.25    4.24
   1  -7  20    1.84    5.35
   2  -7  20    5.64    5.84
   3  -7  20   -1.47    4.92
   4  -7  20   -3.61    5.17
   5  -7  20   31.48    9.86
   6  -7  20   72.51   13.54
   7  -7  20   82.93   14.82
   8  -7  20    8.00    7.91
   9  -7  20   31.65   10.95
  10  -7  20   26.10   11.64
 -13  -6  20   14.86    4.30
 -12  -6  20   45.41    7.39
 -11  -6  20    9.86    3.74
 -10  -6  20    0.28    1.70
  -9  -6  20   16.74    4.22
  -8  -6  20   29.38    5.85
  -7  -6  20    1.84    2.17
  -6  -6  20   12.16    5.83
  -6  -6  20    6.63    3.03
  -5  -6  20   42.30    8.39
  -5  -6  20   44.95    6.60
  -4  -6  20    1.28    4.56
  -4  -6  20    3.25    2.09
  -3  -6  20   19.35    6.52
  -3  -6  20   28.83    5.07
  -2  -6  20   52.30    6.43
  -2  -6  20   63.90   10.59
  -1  -6  20   14.68    3.60
  -1  -6  20   17.54    6.78
   0  -6  20   15.28    3.47
   0  -6  20   31.21    8.34
   1  -6  20   22.64    8.13
   2  -6  20   16.49    7.04
   3  -6  20    1.35    4.87
   4  -6  20    5.74    5.94
   5  -6  20  106.88   15.50
   6  -6  20   57.25   12.31
   7  -6  20   47.01   11.57
   8  -6  20    6.27    6.89
   9  -6  20   15.53    8.52
  10  -6  20   23.35   11.41
 -14  -5  20    0.86    1.83
 -13  -5  20    4.95    3.41
 -12  -5  20    6.34    2.69
 -11  -5  20    1.44    1.77
 -10  -5  20    8.14    3.61
  -9  -5  20   10.63    2.98
  -8  -5  20    8.59    3.41
  -7  -5  20   -0.54    1.75
  -7  -5  20    5.35    4.91
  -6  -5  20   20.07    4.66
  -6  -5  20   22.33    6.52
  -5  -5  20   14.34    6.13
  -5  -5  20   30.43    5.32
  -4  -5  20    4.02    2.59
  -4  -5  20   -0.35    4.09
  -3  -5  20   14.08    6.18
  -2  -5  20   13.76    6.09
  -1  -5  20   14.46    6.90
   0  -5  20   52.21   10.04
   1  -5  20   22.91    7.92
   2  -5  20   23.96    7.85
   3  -5  20   11.22    5.81
   4  -5  20   67.02   12.22
   5  -5  20  153.97   17.72
   6  -5  20   25.35    8.36
   7  -5  20   33.07    9.69
   8  -5  20   23.66    9.58
  -8   5 -20   -5.70    3.28
   9  -5  20   64.38   13.43
  10  -5  20    2.62    8.32
 -14  -4  20   13.40    3.50
 -13  -4  20    9.05    3.26
 -12  -4  20   -0.04    2.11
 -11  -4  20    5.48    2.95
 -10  -4  20    9.60    2.99
  -9  -4  20   78.90    8.96
  -8  -4  20    2.27    4.12
  -8  -4  20    1.19    2.11
  -7  -4  20   52.82    8.94
  -7  -4  20   52.35    7.14
  -6  -4  20    3.26    3.95
  -5  -4  20   -3.13    3.69
  -4  -4  20  144.58   14.93
  -3  -4  20   92.64   12.34
  -2  -4  20   26.43    7.50
  -1  -4  20    6.62    5.33
   0  -4  20   75.43   11.66
   1  -4  20  199.09   19.28
   2  -4  20    9.12    6.01
   3  -4  20   32.98    9.36
   4  -4  20   66.61   11.97
   5  -4  20   39.72   10.35
   6  -4  20    2.32    5.30
  -7   4 -20    5.18    3.66
   7  -4  20   10.71    6.80
   8  -4  20   19.38    8.17
  -8   4 -20   -3.35    2.70
   9  -4  20   16.98    8.86
  -9   4 -20    0.81    3.64
 -15  -3  20   10.18    3.23
 -14  -3  20   -0.28    1.65
 -13  -3  20    2.54    2.23
 -12  -3  20   -0.24    1.68
 -11  -3  20    6.67    2.71
 -10  -3  20    0.79    1.86
  -9  -3  20    5.84    2.43
  -9  -3  20    9.43    4.23
  -8  -3  20   35.21    7.32
  -7  -3  20  138.19   13.84
  -6  -3  20    9.36    4.99
  -5  -3  20   52.15    9.00
  -4  -3  20   44.14    8.55
  -3  -3  20   47.57    8.76
  -2  -3  20   -2.28    4.09
  -1  -3  20   41.62    8.89
   0  -3  20   91.26   12.32
   1  -3  20   57.88   10.67
   2  -3  20   12.83    7.04
   3  -3  20   25.24    8.54
   4  -3  20   15.06    7.44
   5  -3  20    1.53    5.65
  -6   3 -20   12.58    4.09
   6  -3  20   24.00    8.76
   7  -3  20    0.55    5.34
  -7   3 -20   -0.21    2.91
  -8   3 -20    2.85    3.14
   8  -3  20   11.83    6.77
  -9   3 -20    0.68    4.11
 -16  -2  20    7.29    2.47
 -15  -2  20   -1.54    1.63
 -14  -2  20    1.02    1.73
 -13  -2  20    0.41    1.78
 -12  -2  20    1.92    1.90
 -11  -2  20    2.27    1.72
 -10  -2  20   12.29    3.45
  -9  -2  20   35.85    7.13
  -8  -2  20   86.13   10.72
  -7  -2  20   48.29    8.20
  -6  -2  20   23.34    6.54
  -5  -2  20    5.41    4.31
  -4  -2  20   24.14    6.85
  -3  -2  20   -1.08    3.52
  -2  -2  20  149.89   15.27
  -1  -2  20   14.57    6.22
   0  -2  20  110.47   13.71
   1  -2  20   22.70    7.27
   2  -2  20    6.95    6.17
   3  -2  20   19.76    7.26
   4  -2  20    3.26    5.45
   5  -2  20   -1.81    4.61
  -6   2 -20   27.03    5.48
   6  -2  20   11.58    6.54
   7  -2  20    5.48    6.10
  -7   2 -20   -1.54    2.87
  -8   2 -20   -1.38    3.26
   8  -2  20    3.52    6.68
 -16  -1  20   -0.98    1.85
 -15  -1  20    0.70    2.04
 -14  -1  20   -2.12    1.64
 -13  -1  20   15.27    3.72
 -12  -1  20   29.76    4.94
 -10  -1  20   15.89    5.08
  -9  -1  20   69.60    9.60
  -8  -1  20    1.53    2.89
  -7  -1  20    0.56    2.95
  -6  -1  20   23.55    6.15
  -5  -1  20   33.77    7.22
  -4  -1  20   87.80   11.26
  -3  -1  20    8.47    4.94
  -2  -1  20   14.94    6.03
  -1  -1  20    0.25    4.66
   0  -1  20   54.67   10.07
   1  -1  20    0.88    4.38
   2  -1  20   26.52    8.36
   3  -1  20   -1.79    4.79
   4  -1  20   -6.28    4.04
   5  -1  20    6.87    6.00
  -5   1 -20    3.52    3.13
   6  -1  20    9.18    5.99
  -6   1 -20   -0.07    2.69
  -7   1 -20   29.54    6.45
   7  -1  20   34.12    9.43
  -8   1 -20    1.62    3.64
 -16   0  20   11.88    3.39
 -15   0  20    6.97    2.71
 -14   0  20    3.89    2.13
 -13   0  20    3.73    1.84
 -11   0  20    2.08    2.81
 -10   0  20   -1.93    2.79
  -9   0  20   10.34    4.00
  -8   0  20   12.59    4.59
  -7   0  20   25.18    6.02
  -6   0  20   36.52    7.19
  -5   0  20   85.78   10.93
  -4   0  20   24.04    6.28
  -3   0  20    7.59    4.74
  -2   0  20   22.34    6.84
  -1   0  20  208.69   19.04
   0   0  20   61.12   10.55
   1   0  20   -0.66    4.07
   2   0  20    7.44    5.90
   3   0  20    1.06    5.05
   4   0  20   -1.29    4.44
  -4   0 -20   -1.17    2.38
   5   0  20   -0.75    4.25
  -5   0 -20    4.05    3.02
   6   0  20    5.81    5.77
  -6   0 -20   10.84    4.27
  -7   0 -20   11.77    4.76
  -8   0 -20   -0.34    3.99
 -17   1  20   12.78    2.69
 -16   1  20   11.08    2.94
 -15   1  20    3.87    2.01
 -14   1  20   38.68    5.54
 -12   1  20   -4.85    2.20
 -11   1  20   -0.30    2.59
 -10   1  20   -3.05    2.47
  -9   1  20    1.37    2.55
  -8   1  20   69.08    9.67
  -7   1  20   17.29    5.13
  -6   1  20   50.53    8.31
  -5   1  20    1.64    2.99
  -4   1  20    3.91    3.50
  -3   1  20   20.05    6.27
  -2   1  20   57.38    9.86
  -1   1  20  197.45   18.37
   0   1  20  125.30   14.01
   1   1  20   31.42    8.27
   2   1  20    5.14    4.94
   3   1  20   17.98    7.21
   4   1  20    2.92    5.14
  -4  -1 -20   10.97    4.00
   5   1  20   -3.09    4.86
  -5  -1 -20   -6.64    2.09
  -6  -1 -20    1.77    3.56
  -7  -1 -20    5.72    3.82
 -17   2  20   21.17    3.69
 -16   2  20    0.57    1.23
 -15   2  20    7.21    2.11
 -13   2  20   15.09    5.10
 -12   2  20   15.73    4.73
 -11   2  20    2.55    3.23
 -10   2  20    4.19    3.44
  -9   2  20    1.05    2.98
  -8   2  20   26.09    6.28
  -7   2  20    1.96    3.36
  -6   2  20   19.28    5.45
  -5   2  20   -3.50    1.81
  -4   2  20    2.60    3.38
  -3   2  20   -2.42    3.36
  -2   2  20  139.24   14.56
  -1   2  20  100.99   12.70
   0   2  20   12.60    5.75
   1   2  20   24.03    7.72
   2   2  20   10.22    5.87
  -3  -2 -20   82.66    8.75
   3   2  20   56.27   11.05
  -4  -2 -20   -2.53    1.99
   4   2  20   -3.92    4.62
  -5  -2 -20   -1.30    2.68
  -6  -2 -20    1.59    3.15
  -7  -2 -20   13.89    5.46
 -17   3  20   -2.77    1.15
 -16   3  20    1.08    1.38
 -14   3  20   85.00   11.20
 -13   3  20    0.19    3.23
 -12   3  20  169.33   16.05
 -11   3  20   12.06    4.75
 -10   3  20   21.39    5.86
  -9   3  20   10.21    4.51
  -8   3  20    5.78    3.33
  -7   3  20   -1.32    2.05
  -6   3  20   45.62    8.02
  -5   3  20    7.02    4.13
  -4   3  20   24.06    6.63
  -3   3  20    0.44    3.81
  -2   3  20   18.17    6.06
  -1   3  20   45.96    8.85
   0   3  20   74.75   11.20
   1   3  20   21.14    6.86
   2   3  20   33.95    8.24
   3   3  20   91.61   12.94
  -3  -3 -20   59.42    7.95
  -4  -3 -20   10.21    3.23
  -5  -3 -20   -1.72    2.64
  -6  -3 -20    0.70    3.12
  -7  -3 -20   21.74    6.40
 -17   4  20   15.39    2.83
 -15   4  20   44.17    8.52
 -14   4  20    0.60    2.99
 -13   4  20    8.43    4.81
 -12   4  20   14.62    5.61
 -11   4  20   55.84    9.36
 -10   4  20   32.96    7.08
  -9   4  20    2.29    3.25
  -8   4  20    2.22    2.69
  -7   4  20    9.32    3.90
  -6   4  20   52.09    8.74
  -5   4  20    7.38    4.28
  -4   4  20   53.13    8.82
  -3   4  20   -0.02    3.59
  -2   4  20    7.75    4.57
  -1   4  20   31.04    7.59
   0   4  20   23.25    7.12
   1   4  20   -4.76    3.72
  -1  -4 -20   -2.63    2.77
   2   4  20   57.67   10.35
 -16   5  20   28.01    6.60
 -16   5  20   27.36    5.65
 -15   5  20   13.02    5.01
 -15   5  20   16.93    4.56
 -14   5  20   -2.42    3.10
 -13   5  20    2.13    4.04
 -12   5  20    4.10    4.12
 -11   5  20   17.27    5.81
 -10   5  20   -0.78    3.17
  -9   5  20    2.75    3.21
  -8   5  20    1.59    2.83
  -7   5  20    2.22    3.35
  -6   5  20   41.73    8.22
  -5   5  20   -0.44    3.39
  -4   5  20    8.35    4.76
  -3   5  20   -2.61    3.11
  -2   5  20    4.13    4.22
  -1   5  20   87.61   11.84
   1  -5 -20   81.75   10.84
   0   5  20   -2.26    3.60
   0  -5 -20   -1.17    2.48
   1   5  20   46.24    9.36
  -1  -5 -20   34.68    7.44
   2   5  20   47.29    9.75
 -16   6  20   41.31    7.32
 -16   6  20   50.23    9.24
 -15   6  20    0.41    3.37
 -15   6  20    4.57    4.47
 -14   6  20    6.58    3.21
 -14   6  20    5.12    3.87
 -13   6  20    1.07    3.42
 -13   6  20    0.63    2.26
 -12   6  20   -3.69    2.62
 -11   6  20    6.82    4.28
 -10   6  20   -0.71    2.83
  -9   6  20  104.62   11.94
  -8   6  20    2.19    3.60
  -7   6  20   27.23    6.52
  -6   6  20   27.12    6.72
  -5   6  20   -1.39    2.84
  -4   6  20    0.61    3.40
   3  -6 -20   18.93    6.13
  -3   6  20   10.81    5.28
  -2   6  20   20.82    6.48
   2  -6 -20   17.92    5.84
  -1   6  20   32.85    7.98
   1  -6 -20   36.90    7.84
   0   6  20   -0.37    3.94
   0  -6 -20   10.07    4.36
  -1  -6 -20    9.99    4.22
   1   6  20   10.92    5.80
 -17   7  20    7.89    3.37
 -17   7  20    5.69    4.47
 -16   7  20   51.96   10.20
 -16   7  20   58.00    8.68
 -15   7  20   14.60    5.11
 -15   7  20   20.05    6.87
 -14   7  20   10.12    5.67
 -14   7  20   19.82    5.67
 -13   7  20    2.33    3.93
 -13   7  20    0.74    3.23
 -12   7  20   12.12    4.16
 -12   7  20    9.66    5.05
 -11   7  20    6.62    4.55
 -10   7  20   11.92    5.13
  -9   7  20   23.47    6.71
  -8   7  20    3.77    3.77
  -7   7  20   50.07    8.65
  -6   7  20   56.14    8.88
  -5   7  20   -1.91    3.22
   4  -7 -20   13.85    5.52
  -4   7  20   25.19    6.69
   3  -7 -20   21.81    6.46
  -3   7  20   32.17    7.19
  -2   7  20   74.81   10.75
   2  -7 -20   73.44   10.61
  -1   7  20    7.97    4.96
   1  -7 -20    8.97    3.88
   0  -7 -20   32.60    7.32
   0   7  20   24.49    7.40
  -1  -7 -20   25.03    6.40
 -17   8  20    8.74    5.73
 -17   8  20   10.26    3.91
 -16   8  20    7.97    4.67
 -16   8  20    0.35    2.95
 -15   8  20   49.20    8.84
 -15   8  20   29.24    8.54
 -14   8  20   17.00    6.25
 -14   8  20   21.13    5.44
 -13   8  20    0.90    2.99
 -13   8  20    0.77    3.53
 -12   8  20   14.66    6.05
 -12   8  20   18.74    5.35
 -11   8  20    7.91    5.06
 -11   8  20    6.44    3.20
 -10   8  20   -2.15    2.85
  -9   8  20    3.88    4.06
  -8   8  20   39.95    8.22
  -7   8  20  119.71   13.14
  -6   8  20    0.45    3.34
   5  -8 -20   -2.63    2.40
  -5   8  20   -1.29    2.85
   4  -8 -20   43.25    8.53
  -4   8  20   49.75    8.82
   3  -8 -20   62.12    9.96
  -3   8  20   72.88   10.45
  -2   8  20   25.34    6.93
   2  -8 -20   19.12    5.62
   1  -8 -20   -0.79    2.97
  -1   8  20   -3.61    2.74
   0  -8 -20   12.33    4.50
  -1  -8 -20   40.96    8.37
 -17   9  20    3.17    4.62
 -16   9  20   -6.82    2.46
 -16   9  20    0.95    4.20
 -15   9  20    3.03    3.86
 -15   9  20   -0.09    4.53
 -14   9  20    1.42    4.43
 -14   9  20    3.77    3.59
 -13   9  20   42.57    9.81
 -13   9  20   48.78    8.81
 -12   9  20   93.29   13.42
 -12   9  20   66.76   10.32
 -11   9  20   13.23    5.47
 -11   9  20   21.93    5.40
 -10   9  20    3.04    4.09
  -9   9  20    1.89    3.93
  -8   9  20   45.53    8.94
  -7   9  20   22.56    6.56
  -6   9  20    0.73    3.30
   6  -9 -20    5.38    3.40
   5  -9 -20   15.59    5.05
  -5   9  20    5.22    4.26
   4  -9 -20   24.56    6.95
  -4   9  20   41.92    8.01
  -3   9  20   63.18    9.60
   3  -9 -20   49.15    9.01
   2  -9 -20   -0.10    3.07
  -2   9  20   -5.68    2.61
   1  -9 -20   -1.20    3.19
   0  -9 -20   12.99    4.13
  -1  -9 -20    3.26    3.35
 -16  10  20   -3.70    4.17
 -16  10  20   -0.59    3.71
 -15  10  20   41.34   10.80
 -15  10  20   14.83    5.98
 -14  10  20   -1.93    2.71
 -14  10  20   -0.45    4.52
 -13  10  20   17.14    5.13
 -13  10  20   11.33    5.51
 -12  10  20   11.10    4.61
 -12  10  20   24.09    7.64
 -11  10  20   27.43    6.79
 -11  10  20   21.43    7.35
 -10  10  20   15.80    6.47
  -9  10  20   16.06    5.74
  -8  10  20   15.39    5.79
  -7  10  20    6.79    4.45
   7 -10 -20    9.44    5.22
  -6  10  20   -0.62    3.35
   6 -10 -20    6.55    4.19
   5 -10 -20   18.26    6.13
  -5  10  20   22.60    6.66
   4 -10 -20   13.32    5.53
  -4  10  20   18.78    6.19
   3 -10 -20    7.64    3.96
  -3  10  20    3.36    3.82
   2 -10 -20    6.19    4.03
   1 -10 -20    3.93    3.63
   0 -10 -20    6.67    3.79
 -15  11  20   25.01    8.21
 -15  11  20    5.54    4.43
 -14  11  20   -7.23    3.69
 -14  11  20   -3.46    2.53
 -13  11  20   28.43    7.16
 -13  11  20   31.27    9.04
 -12  11  20   -1.63    3.53
 -12  11  20   -1.67    4.37
 -11  11  20    8.10    6.02
 -11  11  20   19.64    5.99
 -10  11  20    4.98    5.22
  -9  11  20   39.60    9.10
   8 -11 -20   45.54   10.16
  -8  11  20   47.04    9.03
   7 -11 -20   60.12   10.42
  -7  11  20   57.55    9.61
  -6  11  20   14.98    5.03
   6 -11 -20   16.90    5.81
  -5  11  20    0.93    3.27
   5 -11 -20   -0.31    3.19
  -4  11  20    1.48    3.76
   4 -11 -20    0.19    2.87
   3 -11 -20   -0.13    3.27
   2 -11 -20   24.57    6.79
   1 -11 -20    9.86    4.36
 -14  12  20    4.26    4.43
 -14  12  20    5.96    5.20
 -13  12  20    1.86    4.01
 -13  12  20   -2.05    4.20
 -12  12  20   -3.32    3.22
 -12  12  20    2.91    3.70
 -11  12  20    3.20    3.15
 -11  12  20   -0.72    3.18
 -10  12  20    0.97    4.30
  -9  12  20   54.31   10.35
  -8  12  20   22.85    6.43
   8 -12 -20    0.45    3.94
   7 -12 -20    3.73    3.98
  -7  12  20    2.52    3.97
  -6  12  20    5.06    3.93
   6 -12 -20   12.29    5.33
  -5  12  20   -3.70    3.53
   5 -12 -20   -3.87    2.73
   4 -12 -20    8.22    4.58
 -12  13  20    1.79    4.15
 -12  13  20    0.39    4.04
 -11  13  20    1.16    3.48
 -11  13  20    1.91    4.11
 -10  13  20    1.44    4.02
  -9  13  20    9.37    4.87
   9 -13 -20    1.01    3.98
   8 -13 -20   -0.03    3.98
  -8  13  20   18.81    5.89
   7 -13 -20    1.40    3.25
  -7  13  20    3.35    3.89
  -6  13  20    2.62    4.06
 -10  14  20   -0.98    4.55
  -9  14  20    7.01    5.59
  -8  14  20   11.47    5.80
  -7  14  20   -1.97    4.24
  -2 -16  21    2.98    4.58
  -1 -16  21    2.57    3.83
   4 -16  21   26.19    8.78
   5 -16  21   35.57   10.57
  -3 -15  21    2.09    3.85
  -2 -15  21   58.33    8.44
  -1 -15  21   30.77    6.15
   3 -15  21    5.49    6.78
   4 -15  21   15.07    7.37
   5 -15  21   15.26    7.48
   6 -15  21   52.14   12.42
  -5 -14  21   -0.72    3.62
  -4 -14  21    5.51    4.31
  -3 -14  21    4.52    3.36
  -2 -14  21   44.12    7.28
  -1 -14  21   45.00    6.99
   2 -14  21   20.01    7.47
   3 -14  21   11.33    7.06
   4 -14  21    8.36    6.37
   5 -14  21   22.23    9.07
   6 -14  21   43.01   11.86
   7 -14  21    6.00    6.43
  -6 -13  21   -0.24    3.26
  -5 -13  21   -1.18    2.66
  -4 -13  21    6.12    4.06
  -3 -13  21   12.22    3.87
  -2 -13  21   35.59    6.18
  -1 -13  21   24.16    5.07
   1 -13  21   75.71   12.64
   2 -13  21   13.54    6.95
   3 -13  21   -2.19    5.12
   4 -13  21   23.47    9.03
   5 -13  21   -6.41    4.97
   6 -13  21    7.14    6.42
   7 -13  21    0.88    5.63
  -7 -12  21   -0.60    3.15
  -6 -12  21    1.68    2.44
  -5 -12  21    5.18    3.10
  -4 -12  21   76.30    9.38
  -3 -12  21   22.88    5.06
  -2 -12  21   14.30    4.07
  -1 -12  21   34.21    5.82
   0 -12  21   69.56   12.01
   1 -12  21   46.79   10.56
   2 -12  21    4.66    5.76
   3 -12  21   14.92    8.11
   4 -12  21    0.16    5.63
   5 -12  21    9.96    7.15
   6 -12  21   11.25    7.45
   7 -12  21   24.98    9.23
   8 -12  21   38.63   10.99
  -8 -11  21    1.05    3.29
  -7 -11  21    1.47    2.81
  -6 -11  21   40.64    7.53
  -5 -11  21   37.63    6.91
  -4 -11  21  165.27   13.76
  -3 -11  21   67.27    8.49
  -2 -11  21   16.43    4.01
  -1 -11  21   82.75    8.09
  -1 -11  21   66.05   11.37
   0 -11  21    4.35    5.68
   0 -11  21    2.53    2.23
   1 -11  21    5.32    6.08
   2 -11  21   12.51    6.94
   3 -11  21    6.85    6.54
   4 -11  21   13.33    7.43
   5 -11  21   40.27   10.91
   6 -11  21    1.76    6.14
   7 -11  21  134.83   19.20
   8 -11  21    2.91    6.33
  -9 -10  21    2.48    3.58
  -8 -10  21    2.09    3.03
  -7 -10  21   25.37    6.05
  -6 -10  21    1.84    2.88
  -5 -10  21   40.14    6.58
  -4 -10  21   41.83    6.66
  -3 -10  21    1.08    2.17
  -2 -10  21    7.20    2.89
  -2 -10  21    5.72    5.93
  -1 -10  21    6.34    5.97
  -1 -10  21    7.71    2.83
   0 -10  21   -1.37    1.35
   0 -10  21   -1.56    4.65
   1 -10  21   -6.06    4.63
   2 -10  21    9.08    6.86
   3 -10  21    0.22    5.41
   4 -10  21    3.90    5.66
   5 -10  21    6.85    6.00
   6 -10  21    1.37    5.35
   7 -10  21   -2.99    6.35
   8 -10  21    6.13    5.48
   9 -10  21    7.85    7.51
 -10  -9  21   13.20    3.98
  -9  -9  21    2.14    2.95
  -8  -9  21   12.55    4.29
  -7  -9  21    7.34    3.79
  -6  -9  21    3.00    2.51
  -5  -9  21    1.05    1.99
  -4  -9  21    5.75    2.73
  -3  -9  21    6.19    2.69
  -3  -9  21    7.61    6.11
  -2  -9  21   18.70    6.72
  -2  -9  21   12.65    3.54
  -1  -9  21   22.51    8.40
  -1  -9  21   25.72    4.68
   0  -9  21    1.10    1.58
   0  -9  21    7.07    6.12
   1  -9  21    2.23    5.80
   2  -9  21    3.94    5.73
   3  -9  21    7.59    6.19
   4  -9  21   -3.09    5.21
   5  -9  21   12.75    8.57
   6  -9  21   -3.29    6.15
   7  -9  21    2.02    7.39
   8  -9  21    9.86    6.05
   9  -9  21    4.67    6.42
 -11  -8  21    6.52    3.35
 -10  -8  21   13.46    4.07
  -8  -8  21   24.38    5.65
  -7  -8  21   12.24    3.80
  -6  -8  21    5.38    2.78
  -5  -8  21    8.03    3.07
  -4  -8  21    5.17    2.87
  -4  -8  21    5.66    5.77
  -3  -8  21   -0.33    1.89
  -3  -8  21    2.57    5.43
  -2  -8  21   -2.23    4.47
  -2  -8  21    0.31    1.55
  -1  -8  21    6.25    5.75
  -1  -8  21    6.85    2.72
   0  -8  21   42.92    9.92
   0  -8  21   35.62    5.23
   1  -8  21   -5.01    4.95
   2  -8  21   41.46   10.36
   3  -8  21   33.33    9.47
   4  -8  21   10.90    6.85
   5  -8  21   32.84   10.34
   6  -8  21   44.76   11.93
   7  -8  21   -3.02    6.96
   8  -8  21    2.27    5.54
   9  -8  21    3.23    6.45
 -12  -7  21   -4.70    1.79
 -11  -7  21    4.22    2.79
 -10  -7  21    6.72    3.53
  -9  -7  21   21.88    5.42
  -8  -7  21   -0.43    2.48
  -7  -7  21   67.41    8.72
  -6  -7  21    8.26    3.10
  -5  -7  21    4.49    2.53
  -5  -7  21   -0.99    4.21
  -4  -7  21   15.16    6.72
  -4  -7  21   14.97    3.84
  -3  -7  21   -1.47    4.48
  -3  -7  21    4.66    2.66
  -2  -7  21   90.99    8.34
  -2  -7  21   90.81   12.98
  -1  -7  21   -8.13    3.96
  -1  -7  21    3.28    2.03
   0  -7  21   90.68    7.74
   0  -7  21   72.01   12.09
   1  -7  21   52.65   10.59
   2  -7  21    4.44    5.52
   3  -7  21    1.11    5.63
   4  -7  21   50.31   11.30
   5  -7  21   29.56    9.52
   6  -7  21   25.02    8.80
   7  -7  21    6.45    7.27
   8  -7  21   16.23    9.10
   9  -7  21    5.13    8.72
 -12  -6  21   -0.73    2.15
 -11  -6  21   52.92    7.90
 -10  -6  21   10.95    3.77
  -9  -6  21   -1.86    2.24
  -8  -6  21    3.20    2.47
  -7  -6  21   20.92    4.73
  -6  -6  21   19.45    4.99
  -6  -6  21   14.38    6.17
  -5  -6  21    1.17    4.72
  -5  -6  21    7.15    2.61
  -4  -6  21    4.73    2.32
  -4  -6  21    2.10    4.99
  -3  -6  21  143.53   11.25
  -3  -6  21  130.30   14.95
  -2  -6  21  246.58   16.30
  -2  -6  21  221.68   21.05
  -1  -6  21    8.93    6.22
  -1  -6  21    6.44    2.43
   0  -6  21   20.26    7.17
   1  -6  21   95.32   13.60
   2  -6  21   -1.71    4.71
   3  -6  21    6.13    6.40
   4  -6  21   43.10   10.99
   5  -6  21    2.16    6.24
   6  -6  21   10.73    7.27
   7  -6  21   16.02    9.13
   8  -6  21   10.72    8.25
   9  -6  21    5.85    9.48
 -13  -5  21    2.45    2.48
 -12  -5  21   29.62    6.24
 -11  -5  21    2.07    2.37
 -10  -5  21    1.28    2.10
  -9  -5  21    1.75    2.18
  -8  -5  21   15.71    4.17
  -7  -5  21   25.20    5.17
  -7  -5  21   33.36    7.91
  -6  -5  21    6.18    5.04
  -6  -5  21    1.41    2.42
  -5  -5  21    8.39    3.08
  -5  -5  21   11.11    5.81
  -4  -5  21   21.50    6.92
  -3  -5  21   28.88    7.78
  -2  -5  21   10.56    5.73
  -1  -5  21   67.86   11.65
   0  -5  21  115.47   14.79
   1  -5  21   13.15    6.24
   2  -5  21   29.60    8.73
   3  -5  21   18.59    8.00
   4  -5  21   13.14    7.21
   5  -5  21   31.57   10.25
   6  -5  21    5.04    6.54
   7  -5  21   17.21    8.08
   8  -5  21   15.24    7.99
   9  -5  21   11.51   10.06
 -14  -4  21    6.87    2.62
 -13  -4  21    7.15    3.02
 -12  -4  21    3.99    2.59
 -11  -4  21    1.67    2.47
 -10  -4  21   12.22    3.51
  -9  -4  21    6.35    2.87
  -8  -4  21   80.77   11.05
  -8  -4  21   69.46    8.67
  -7  -4  21   41.54    6.30
  -7  -4  21   17.69    6.47
  -6  -4  21    1.44    4.32
  -5  -4  21   10.08    5.53
  -4  -4  21   68.90   10.69
  -3  -4  21   11.86    5.81
  -2  -4  21   39.70    8.89
  -1  -4  21   30.69    8.16
   0  -4  21   63.30   11.21
   1  -4  21   -2.02    4.40
   2  -4  21   69.53   12.14
   3  -4  21   10.49    6.29
   4  -4  21    0.92    6.13
   5  -4  21    5.61    6.51
   6  -4  21   15.15    7.78
   7  -4  21   -5.90    5.84
   8  -4  21    3.37    7.33
  -8   4 -21   -6.77    2.75
   9  -4  21   10.18    9.49
 -15  -3  21    5.13    2.84
 -14  -3  21   -1.92    1.83
 -13  -3  21    4.63    2.33
 -12  -3  21    2.87    2.09
 -11  -3  21    1.67    2.10
 -10  -3  21   57.69    7.57
  -9  -3  21   77.03   10.44
  -9  -3  21   67.20    8.23
  -8  -3  21   37.35    7.79
  -7  -3  21    7.20    5.08
  -6  -3  21   13.75    5.74
  -5  -3  21   -0.33    3.87
  -4  -3  21    3.47    4.81
  -3  -3  21   42.85    8.93
  -2  -3  21  135.42   14.91
  -1  -3  21   79.46   11.65
   0  -3  21   33.03    8.49
   1  -3  21   56.84   10.71
   2  -3  21  126.90   15.90
   3  -3  21    2.17    6.08
   4  -3  21   47.70   10.44
   5  -3  21   15.16    7.65
   6  -3  21    4.07    5.85
   7  -3  21    7.15    7.42
  -7   3 -21    3.23    4.07
   8  -3  21    7.34    7.19
  -8   3 -21   -6.64    3.13
 -15  -2  21   -2.37    1.59
 -14  -2  21    1.48    2.12
 -13  -2  21   13.71    3.71
 -12  -2  21    1.24    1.76
 -11  -2  21   45.72    6.62
 -10  -2  21  124.88   12.70
  -9  -2  21  225.51   19.26
  -8  -2  21   10.60    4.50
  -7  -2  21   27.12    6.82
  -6  -2  21    5.73    4.26
  -5  -2  21   24.80    7.10
  -4  -2  21    1.37    4.13
  -3  -2  21  107.69   13.08
  -2  -2  21   45.22    8.96
  -1  -2  21    1.09    4.45
   0  -2  21    8.26    5.86
   1  -2  21   29.42    8.45
   2  -2  21   40.76    9.85
   3  -2  21    7.26    5.83
   4  -2  21    5.85    6.14
   5  -2  21    1.68    5.97
   6  -2  21    2.07    5.94
  -6   2 -21    0.35    3.02
  -7   2 -21    1.64    3.70
   7  -2  21    8.15    6.73
  -8   2 -21    0.89    4.15
 -16  -1  21   15.82    3.49
 -15  -1  21    9.70    2.83
 -14  -1  21    3.37    1.82
 -13  -1  21   26.99    4.74
 -12  -1  21    3.64    2.18
 -10  -1  21  107.86   11.90
  -9  -1  21   32.97    7.07
  -8  -1  21    6.05    3.52
  -7  -1  21   42.26    7.85
  -6  -1  21   29.48    7.11
  -5  -1  21    4.38    3.72
  -4  -1  21   35.98    7.93
  -3  -1  21   44.51    8.86
  -2  -1  21    1.40    4.35
  -1  -1  21    7.78    5.66
   0  -1  21   -1.87    4.73
   1  -1  21   -3.06    4.38
   2  -1  21   -3.25    4.42
   3  -1  21    2.72    5.26
   4  -1  21    5.43    5.81
   5  -1  21    6.35    5.89
   6  -1  21   12.88    6.29
  -6   1 -21   -1.33    3.16
   7  -1  21   17.72    7.89
  -7   1 -21   -2.70    3.19
 -16   0  21   16.94    3.45
 -15   0  21   48.69    6.45
 -14   0  21   25.63    4.53
 -13   0  21    5.26    2.15
 -11   0  21   20.00    5.80
 -10   0  21   12.05    4.52
  -9   0  21    7.13    3.79
  -8   0  21    4.67    3.70
  -7   0  21  118.54   12.46
  -6   0  21   11.38    4.61
  -5   0  21   10.11    4.68
  -4   0  21   21.94    6.51
  -3   0  21    9.48    4.84
  -2   0  21   31.66    8.12
  -1   0  21    3.40    4.60
   0   0  21   34.28    8.71
   1   0  21   -4.04    4.21
   2   0  21    8.06    5.86
   3   0  21    7.80    5.27
   4   0  21    1.29    5.64
   5   0  21    7.90    5.92
  -5   0 -21   -3.35    2.62
   6   0  21   10.19    6.98
  -6   0 -21    9.85    4.12
  -7   0 -21   22.32    6.01
 -16   1  21   21.69    3.89
 -15   1  21    6.99    2.18
 -12   1  21    2.94    2.97
 -11   1  21    1.59    2.39
 -10   1  21    3.50    3.24
  -9   1  21  102.15   11.42
  -8   1  21   59.29    9.23
  -7   1  21    2.26    2.96
  -6   1  21   -2.18    2.30
  -5   1  21   -1.48    2.67
  -4   1  21    9.86    4.50
  -3   1  21    0.52    4.38
  -2   1  21   77.02   11.34
  -1   1  21   20.09    7.00
   0   1  21    3.44    4.83
   1   1  21    4.49    4.55
   2   1  21    3.06    4.69
   3   1  21   14.38    6.89
   4   1  21    2.19    5.21
  -4  -1 -21    3.07    2.85
  -5  -1 -21    1.89    3.15
   5   1  21    1.73    5.83
  -6  -1 -21   28.59    5.98
  -7  -1 -21    9.34    5.45
 -17   2  21    3.91    1.63
 -16   2  21    8.16    2.44
 -13   2  21    2.59    3.52
 -12   2  21    9.89    4.59
 -11   2  21    2.23    3.07
 -10   2  21    2.96    3.03
  -9   2  21  178.61   16.47
  -8   2  21   20.85    5.76
  -7   2  21   21.36    5.70
  -6   2  21   23.08    6.51
  -5   2  21   20.98    5.85
  -4   2  21   22.10    6.60
  -3   2  21    4.48    4.28
  -2   2  21   34.43    8.11
  -1   2  21   16.06    6.40
   0   2  21    6.48    4.96
   1   2  21   -0.11    4.65
   2   2  21   23.29    8.10
   3   2  21   -3.19    4.48
   4   2  21   23.10    7.66
  -4  -2 -21   24.41    5.33
  -5  -2 -21   22.71    5.32
  -6  -2 -21   10.70    4.61
 -17   3  21   14.29    2.75
 -14   3  21    7.00    4.25
 -13   3  21   36.01    7.70
 -12   3  21    1.97    3.90
 -11   3  21    0.12    3.37
 -10   3  21    8.16    3.98
  -9   3  21   66.66    9.55
  -8   3  21   -0.66    2.59
  -7   3  21    0.18    3.07
  -6   3  21    6.21    3.47
  -5   3  21    4.74    4.24
  -4   3  21    6.85    4.67
  -3   3  21   15.56    5.88
  -2   3  21   19.99    6.79
  -1   3  21   46.86    9.30
   0   3  21   18.69    6.95
   1   3  21   22.98    8.03
   2   3  21   26.18    8.16
  -3  -3 -21   -1.02    2.39
   3   3  21   -3.82    4.51
  -4  -3 -21    3.92    3.01
  -5  -3 -21   27.43    5.96
  -6  -3 -21    0.80    4.89
 -15   4  21    8.10    4.48
 -14   4  21   58.55   10.05
 -13   4  21    0.40    2.98
 -12   4  21    0.95    3.29
 -11   4  21    6.37    4.08
 -10   4  21    0.86    3.15
  -9   4  21   10.08    4.16
  -8   4  21    2.94    2.97
  -7   4  21   75.03   10.47
  -6   4  21   12.36    5.54
  -5   4  21   29.03    7.19
  -4   4  21    6.08    4.33
  -3   4  21   61.37   10.07
  -2   4  21   82.66   11.70
  -1   4  21   13.82    6.14
   0   4  21   16.21    6.61
   1   4  21    5.04    5.45
   2   4  21    0.80    4.47
 -16   5  21    5.79    3.99
 -15   5  21   13.92    5.20
 -14   5  21    9.36    5.07
 -13   5  21   18.02    5.93
 -12   5  21   -1.31    3.21
 -11   5  21   14.83    5.40
 -10   5  21   28.69    7.23
  -9   5  21    8.15    3.86
  -8   5  21   20.72    5.98
  -7   5  21  130.99   13.83
  -6   5  21   29.00    7.25
  -5   5  21    1.92    3.45
  -4   5  21    8.53    4.81
  -3   5  21    7.55    4.73
  -2   5  21    1.76    3.82
  -1   5  21    4.13    4.59
   0  -5 -21   43.13    8.35
   0   5  21   39.21    8.86
   1   5  21   10.08    5.80
 -16   6  21    8.09    4.81
 -16   6  21    0.29    2.77
 -15   6  21    1.29    4.08
 -14   6  21   31.19    7.44
 -13   6  21    2.21    3.99
 -12   6  21   10.12    4.80
 -11   6  21   52.95    9.75
 -10   6  21   66.69   10.57
  -9   6  21   21.36    6.36
  -8   6  21   40.09    8.38
  -7   6  21  177.54   16.47
  -6   6  21    5.20    4.18
  -5   6  21   60.22    9.75
  -4   6  21   32.31    7.44
  -3   6  21    0.22    3.11
  -2   6  21   -3.04    3.67
   2  -6 -21    4.66    4.00
  -1   6  21   36.82    8.58
   1  -6 -21   45.94    8.45
   0   6  21    2.49    4.58
   0  -6 -21    9.09    3.87
 -17   7  21    9.52    4.19
 -17   7  21   -1.32    2.55
 -16   7  21    9.31    3.56
 -16   7  21    7.74    4.45
 -15   7  21   20.28    5.44
 -15   7  21    5.99    4.65
 -14   7  21    5.91    4.20
 -14   7  21    0.52    3.10
 -13   7  21    2.11    4.13
 -12   7  21   48.93    9.68
 -11   7  21  140.51   15.27
 -10   7  21   35.94    8.26
  -9   7  21    8.88    5.27
  -8   7  21   42.13    8.70
  -7   7  21   26.12    6.80
  -6   7  21    4.51    4.02
  -5   7  21   18.59    6.22
  -4   7  21   53.79    9.25
  -3   7  21   10.35    5.04
   3  -7 -21    7.08    3.57
   2  -7 -21    9.20    5.20
  -2   7  21    1.81    3.99
  -1   7  21   20.33    6.76
   1  -7 -21   19.12    6.10
   0  -7 -21   10.80    4.49
 -17   8  21   11.92    5.46
 -17   8  21    1.51    3.03
 -16   8  21    3.35    3.16
 -16   8  21    7.52    5.32
 -15   8  21   -5.22    3.58
 -15   8  21   -3.65    2.37
 -14   8  21    3.22    4.82
 -14   8  21   12.13    4.17
 -13   8  21   20.99    5.49
 -13   8  21   19.03    6.95
 -12   8  21   88.60   13.21
 -11   8  21    5.12    3.79
 -10   8  21    5.75    4.76
  -9   8  21   38.03    8.57
  -8   8  21   34.02    8.02
  -7   8  21   -0.78    3.34
  -6   8  21   21.72    6.57
  -5   8  21   79.38   11.18
  -4   8  21   54.02    9.61
   4  -8 -21   86.33   11.59
   3  -8 -21   21.50    6.16
  -3   8  21   24.43    7.07
  -2   8  21    8.01    5.36
   2  -8 -21   24.79    6.23
   1  -8 -21    7.39    3.65
   0  -8 -21    4.38    3.61
 -16   9  21    4.23    5.12
 -16   9  21    9.84    4.15
 -15   9  21    6.47    5.48
 -15   9  21    1.66    3.59
 -14   9  21    8.12    4.76
 -14   9  21    9.47    4.48
 -13   9  21   27.91    6.28
 -13   9  21   12.11    5.33
 -12   9  21   28.53    8.48
 -11   9  21    2.84    4.46
 -10   9  21   60.45   11.02
  -9   9  21   51.03    9.86
  -8   9  21    1.14    3.66
  -7   9  21    4.64    4.09
  -6   9  21   52.51    9.23
  -5   9  21   28.41    7.49
   5  -9 -21   28.77    7.52
  -4   9  21    5.09    4.75
   4  -9 -21    9.03    4.32
   3  -9 -21    7.10    3.93
  -3   9  21   11.37    5.16
   2  -9 -21    5.90    3.64
   1  -9 -21    2.66    3.17
   0  -9 -21    2.50    3.75
 -15  10  21    1.29    5.01
 -15  10  21   -0.46    3.68
 -14  10  21    6.04    3.95
 -14  10  21    9.40    5.39
 -13  10  21    6.43    3.56
 -13  10  21    0.06    4.10
 -12  10  21   -2.23    2.76
 -12  10  21   -3.83    3.05
 -11  10  21    2.24    5.07
 -10  10  21   35.19    9.06
  -9  10  21    2.59    4.61
  -8  10  21    6.97    5.17
  -7  10  21    3.56    3.94
  -6  10  21   33.20    7.77
   6 -10 -21   34.40    8.80
  -5  10  21    1.63    3.96
   5 -10 -21    1.98    3.13
   4 -10 -21    3.43    3.18
  -4  10  21    2.67    3.97
  -3  10  21    0.82    3.93
   3 -10 -21    6.05    3.54
   2 -10 -21    0.26    3.37
   1 -10 -21   -2.82    2.59
 -14  11  21    5.42    4.19
 -14  11  21    2.58    4.88
 -13  11  21   13.63    6.10
 -13  11  21    6.15    3.63
 -12  11  21    2.00    3.62
 -12  11  21    6.17    4.98
 -11  11  21    1.84    3.91
 -10  11  21    4.92    5.19
  -9  11  21   10.52    6.16
  -8  11  21    3.38    4.70
   7 -11 -21   -2.30    3.19
  -7  11  21    0.45    3.76
   6 -11 -21   -0.29    3.32
  -6  11  21   -1.45    3.24
  -5  11  21   -3.25    3.42
   5 -11 -21    0.32    3.30
  -4  11  21   -2.87    3.69
   4 -11 -21    4.38    3.18
   3 -11 -21   -1.54    3.08
 -13  12  21    2.36    5.15
 -13  12  21    0.93    4.47
 -12  12  21    4.73    5.21
 -12  12  21   -2.40    4.10
 -11  12  21    0.75    4.15
 -10  12  21    2.79    4.56
  -9  12  21    1.69    3.86
  -8  12  21    7.96    4.73
   8 -12 -21    3.09    3.70
  -7  12  21   -0.33    3.61
   7 -12 -21    2.79    3.80
  -6  12  21    0.04    3.29
   6 -12 -21    0.73    3.24
  -5  12  21   -0.83    4.03
 -10  13  21    5.17    4.99
  -9  13  21    8.73    6.16
  -8  13  21    6.33    5.45
  -7  13  21    6.37    5.01
   4 -16  22    6.08    5.98
  -3 -15  22    3.95    4.49
  -2 -15  22   37.42    7.23
   3 -15  22   16.83    8.14
   4 -15  22   12.19    7.17
   5 -15  22   13.39    7.41
  -4 -14  22   35.58    7.32
  -3 -14  22   31.44    6.63
  -2 -14  22   11.43    4.32
  -1 -14  22    6.90    3.54
   2 -14  22   -4.28    4.68
   3 -14  22   20.67    7.80
   4 -14  22   55.30   11.99
   5 -14  22    4.40    5.47
   6 -14  22   17.17    8.11
  -5 -13  22   27.10    6.63
  -4 -13  22   18.18    5.01
  -3 -13  22   17.89    4.62
  -2 -13  22    2.44    2.44
  -1 -13  22   22.68    4.96
   1 -13  22    1.88    4.84
   2 -13  22   -6.82    4.84
   3 -13  22   34.17   10.82
   4 -13  22   20.11    8.48
   5 -13  22    8.97    7.76
   6 -13  22    9.50    6.46
  -7 -12  22    0.39    3.45
  -6 -12  22    0.63    2.73
  -5 -12  22   61.90    9.00
  -4 -12  22   32.49    6.55
  -3 -12  22    3.22    2.74
  -2 -12  22    0.87    2.40
  -1 -12  22   -0.88    2.03
   0 -12  22   36.76    9.58
   1 -12  22   22.71    8.49
   2 -12  22    2.18    5.61
   3 -12  22    0.22    6.14
   4 -12  22    4.41    6.16
   5 -12  22    5.03    6.10
   6 -12  22    5.66    6.81
   7 -12  22   18.28    8.43
  -8 -11  22    2.00    3.41
  -7 -11  22   -0.83    2.93
  -6 -11  22   20.27    5.68
  -5 -11  22   69.62    9.58
  -4 -11  22   -0.27    2.24
  -3 -11  22    1.73    2.15
  -2 -11  22    7.00    3.17
  -1 -11  22   -0.25    1.88
  -1 -11  22    2.82    5.13
   0 -11  22   13.09    6.95
   1 -11  22   -2.18    4.92
   2 -11  22    4.41    6.06
   3 -11  22   -1.55    5.46
   4 -11  22   16.87    7.25
   5 -11  22    7.28    6.51
   6 -11  22   73.07   14.69
   7 -11  22    3.28    6.26
  -9 -10  22    0.12    3.86
  -8 -10  22    0.51    2.94
  -7 -10  22    6.35    3.93
  -6 -10  22   27.88    6.03
  -5 -10  22    9.27    3.70
  -4 -10  22  121.48   10.91
  -3 -10  22   19.96    4.56
  -2 -10  22   -2.20    1.78
  -2 -10  22   -4.40    3.91
  -1 -10  22    2.52    2.09
  -1 -10  22   -0.18    5.00
   0 -10  22   -3.18    4.62
   1 -10  22    2.45    5.55
   2 -10  22  -10.19    4.45
   3 -10  22    1.69    5.64
   4 -10  22    6.57    6.51
   5 -10  22   27.93    9.91
   6 -10  22    9.02    6.82
   7 -10  22    2.56    5.65
   8 -10  22   -1.70    5.36
 -10  -9  22   21.30    5.20
  -9  -9  22    3.33    3.16
  -8  -9  22   -2.52    2.87
  -7  -9  22   19.66    5.22
  -6  -9  22    0.73    2.62
  -5  -9  22   50.94    7.50
  -4  -9  22   28.67    5.32
  -3  -9  22    0.48    5.46
  -3  -9  22    7.32    2.89
  -2  -9  22    2.90    1.96
  -2  -9  22    0.09    4.56
  -1  -9  22    2.17    5.51
  -1  -9  22   -3.00    1.37
   0  -9  22    9.74    6.76
   1  -9  22   62.86   12.45
   2  -9  22   40.94   10.36
   3  -9  22   -0.56    5.35
   4  -9  22   17.38    8.02
   5  -9  22    2.79    5.73
   6  -9  22    4.37    7.17
   7  -9  22    3.27    4.95
   8  -9  22    1.29    5.92
 -10  -8  22    1.34    2.06
  -9  -8  22    3.23    3.34
  -8  -8  22    7.19    4.14
  -7  -8  22    4.55    3.33
  -6  -8  22    0.63    2.34
  -5  -8  22    6.72    3.23
  -4  -8  22   -1.93    4.97
  -4  -8  22    8.26    3.17
  -3  -8  22    9.94    6.48
  -3  -8  22    7.45    3.06
  -2  -8  22   -5.14    4.99
  -2  -8  22    2.45    2.36
  -1  -8  22   34.80    9.45
  -1  -8  22   40.31    5.68
   0  -8  22   71.53   12.39
   1  -8  22  114.69   15.75
   2  -8  22    2.11    6.09
   3  -8  22   40.23   10.51
   4  -8  22   17.44    7.78
   5  -8  22   -1.27    5.92
   6  -8  22   16.60    9.17
   7  -8  22    1.31    4.55
   8  -8  22    0.49    5.48
 -11  -7  22   15.83    4.05
 -10  -7  22    3.77    2.72
  -9  -7  22   -0.36    2.66
  -8  -7  22   10.14    4.12
  -7  -7  22   21.33    5.56
  -6  -7  22    8.80    3.28
  -5  -7  22   17.57    4.22
  -5  -7  22    8.35    6.27
  -4  -7  22    0.93    5.11
  -4  -7  22    1.14    2.30
  -3  -7  22    5.98    2.55
  -3  -7  22    1.87    5.96
  -2  -7  22   -3.22    4.51
  -2  -7  22    3.31    2.24
  -1  -7  22    9.02    7.01
  -1  -7  22   10.45    3.16
   0  -7  22    6.79    6.47
   1  -7  22   39.23   10.08
   2  -7  22    5.38    6.50
   3  -7  22   52.70   11.54
   4  -7  22    8.96    6.87
   5  -7  22    9.69    7.84
   6  -7  22   43.48   11.83
   7  -7  22   -1.05    5.44
   8  -7  22   10.07    6.30
 -12  -6  22    4.04    2.94
 -11  -6  22    7.30    3.03
 -10  -6  22    5.13    2.73
  -9  -6  22   13.65    4.79
  -8  -6  22    2.73    2.38
  -7  -6  22    2.93    2.27
  -6  -6  22   24.92    7.59
  -6  -6  22   20.32    4.65
  -5  -6  22   67.71    8.31
  -5  -6  22   69.37   11.08
  -4  -6  22   82.79    7.95
  -4  -6  22   54.35   10.66
  -3  -6  22    2.88    5.72
  -3  -6  22    5.16    2.57
  -2  -6  22   26.44    8.27
  -1  -6  22   -4.05    4.32
  -1  -6  22    3.94    2.08
   0  -6  22   13.55    7.01
   1  -6  22    4.86    6.16
   2  -6  22   13.29    6.90
   3  -6  22    2.50    6.43
   4  -6  22   -3.76    4.80
   5  -6  22   63.97   12.97
   6  -6  22   30.10   10.27
   7  -6  22   12.62    9.01
   8  -6  22   -1.09    8.10
 -13  -5  22    5.07    2.25
 -12  -5  22   16.18    4.22
 -11  -5  22    7.52    2.89
 -10  -5  22   -4.58    1.75
  -9  -5  22   63.35    8.59
  -8  -5  22   48.44    7.50
  -7  -5  22    4.60    4.93
  -7  -5  22    4.37    2.42
  -6  -5  22    2.88    2.15
  -6  -5  22   -6.24    4.02
  -5  -5  22    9.71    3.45
  -5  -5  22   23.43    7.35
  -4  -5  22    2.93    5.10
  -3  -5  22    4.76    5.21
  -2  -5  22   53.69   10.32
  -1  -5  22    8.72    6.06
   0  -5  22   -3.16    4.38
   1  -5  22   59.62   11.36
   2  -5  22   16.01    8.13
   3  -5  22   19.00    8.05
   4  -5  22   90.99   14.59
   5  -5  22   37.61   10.84
   6  -5  22   31.04   10.15
   7  -5  22   32.02   11.34
   8  -5  22    0.95    8.05
 -13  -4  22   -0.34    2.17
 -12  -4  22    6.60    2.74
 -11  -4  22    1.77    2.18
 -10  -4  22   40.09    6.57
  -9  -4  22   46.29    7.09
  -8  -4  22    2.11    2.36
  -8  -4  22   -0.02    4.18
  -7  -4  22   31.16    5.53
  -7  -4  22   26.20    7.74
  -6  -4  22   32.01    8.11
  -5  -4  22   -3.96    4.30
  -4  -4  22   18.00    6.95
  -3  -4  22  119.58   14.76
  -2  -4  22   65.31   10.85
  -1  -4  22   -2.35    4.51
   0  -4  22   20.95    7.92
   1  -4  22   28.14    9.09
   2  -4  22    3.76    5.72
   3  -4  22   43.87   10.67
   4  -4  22   -4.48    5.70
   5  -4  22    1.70    6.38
   6  -4  22   10.57    7.37
   7  -4  22    1.18    6.03
   8  -4  22    7.79    8.48
 -14  -3  22   35.92    5.99
 -13  -3  22    9.65    3.45
 -12  -3  22   -0.68    2.02
 -11  -3  22    9.72    3.07
 -10  -3  22   10.74    3.32
  -9  -3  22    1.45    2.17
  -9  -3  22    2.27    4.24
  -8  -3  22   52.30    9.48
  -7  -3  22   69.59   10.77
  -6  -3  22   27.53    7.64
  -5  -3  22  118.91   13.60
  -4  -3  22   17.01    6.49
  -3  -3  22   10.67    6.06
  -2  -3  22   26.40    7.67
  -1  -3  22   34.69    8.40
   0  -3  22    3.03    5.36
   1  -3  22   48.05   10.64
   2  -3  22   50.73   10.96
   3  -3  22    8.05    6.60
   4  -3  22   42.69   10.73
   5  -3  22    6.96    6.89
   6  -3  22    2.95    6.86
   7  -3  22   -6.05    5.42
   8  -3  22    8.22    8.87
 -15  -2  22   28.50    5.29
 -14  -2  22   24.09    4.83
 -13  -2  22    0.79    1.79
 -12  -2  22   57.46    7.62
 -11  -2  22    5.65    2.40
 -10  -2  22    1.97    3.96
  -9  -2  22    8.63    4.33
  -8  -2  22   60.99    9.81
  -7  -2  22   43.53    8.50
  -6  -2  22   32.43    7.80
  -5  -2  22   96.83   12.58
  -4  -2  22   98.78   12.82
  -3  -2  22   22.11    7.17
  -2  -2  22   24.93    7.65
  -1  -2  22    3.10    4.46
   0  -2  22   -0.76    5.48
   1  -2  22   39.67    9.48
   2  -2  22   23.82    8.27
   3  -2  22   63.29   12.31
   4  -2  22   40.22   10.24
   5  -2  22    4.97    6.72
   6  -2  22   -8.01    5.25
   7  -2  22   19.70    8.86
  -7   2 -22   -5.07    3.55
 -15  -1  22   24.86    4.44
 -14  -1  22   12.19    3.22
 -13  -1  22   34.95    5.63
 -12  -1  22   84.90    8.14
 -11  -1  22    0.01    3.27
 -10  -1  22    7.27    4.22
  -9  -1  22    7.87    4.14
  -8  -1  22    0.59    3.13
  -7  -1  22   18.98    6.12
  -6  -1  22    3.17    4.23
  -5  -1  22    8.72    4.93
  -4  -1  22   95.56   12.61
  -3  -1  22    3.85    4.41
  -2  -1  22   -4.93    3.14
  -1  -1  22    4.24    4.92
   0  -1  22    1.67    4.86
   1  -1  22    0.87    4.77
   2  -1  22    0.48    5.04
   3  -1  22    8.41    6.13
   4  -1  22    9.45    6.88
   5  -1  22    4.75    6.85
   6  -1  22   48.07   11.81
  -7   1 -22   20.89    6.59
 -16   0  22   15.23    3.35
 -15   0  22    8.44    2.70
 -14   0  22    3.78    1.95
 -11   0  22    3.23    3.31
 -10   0  22    9.54    4.40
  -9   0  22   -2.69    2.72
  -8   0  22   -4.39    2.89
  -7   0  22   -0.76    2.90
  -6   0  22    0.73    3.20
  -5   0  22    5.76    4.27
  -4   0  22   41.00    8.49
  -3   0  22    0.61    3.97
  -2   0  22   -2.89    4.10
  -1   0  22   14.47    6.25
   0   0  22    4.79    5.44
   1   0  22   18.88    7.14
   2   0  22    4.94    5.78
   3   0  22    2.13    5.57
   4   0  22    2.75    6.25
   5   0  22   23.72    9.33
  -6   0 -22   54.48    8.47
   6   0  22   55.95   12.43
 -16   1  22   10.53    2.74
 -15   1  22   -0.41    1.25
 -12   1  22    7.51    4.08
 -11   1  22    1.51    3.11
 -10   1  22   32.26    7.03
  -9   1  22   26.00    6.21
  -8   1  22    4.51    3.67
  -7   1  22   -2.38    3.05
  -6   1  22   19.39    5.88
  -5   1  22    3.94    3.32
  -4   1  22   11.53    4.99
  -3   1  22   40.70    8.83
  -2   1  22    8.35    5.53
  -1   1  22    9.37    5.87
   0   1  22   61.20   11.12
   1   1  22   25.98    8.24
   2   1  22   19.60    7.63
   3   1  22    3.19    4.90
   4   1  22   16.38    7.83
  -5  -1 -22   60.57    8.75
   5   1  22   62.25   12.44
  -6  -1 -22    2.21    4.47
 -16   2  22    4.35    1.79
 -13   2  22    6.69    3.88
 -12   2  22   47.88    8.52
 -11   2  22   11.85    4.81
 -10   2  22   -0.43    3.04
  -9   2  22    2.05    3.64
  -8   2  22   19.42    6.06
  -7   2  22    5.18    3.26
  -6   2  22    9.36    4.48
  -5   2  22    0.12    2.30
  -4   2  22   58.28   10.07
  -3   2  22   39.24    8.58
  -2   2  22   -2.10    4.47
  -1   2  22   -6.32    3.43
   0   2  22   62.22   11.07
   1   2  22   18.02    7.44
   2   2  22    4.57    5.12
   3   2  22   25.80    8.29
   4   2  22   56.80   11.89
  -5  -2 -22   14.49    4.74
  -6  -2 -22    9.59    5.47
 -17   3  22   -0.75    1.09
 -14   3  22  105.78   12.21
 -13   3  22    3.06    3.25
 -12   3  22   88.17   11.77
 -11   3  22    1.81    3.13
 -10   3  22   -0.23    2.83
  -9   3  22    0.66    2.70
  -8   3  22   -2.14    2.17
  -7   3  22   29.21    7.06
  -6   3  22    3.32    3.35
  -5   3  22   52.24    9.49
  -4   3  22  102.51   13.20
  -3   3  22   81.53   11.73
  -2   3  22   -2.76    3.52
  -1   3  22   11.80    5.98
   0   3  22   61.20   10.80
   1   3  22   -0.48    4.59
   2   3  22   16.35    7.13
   3   3  22   22.14    8.16
 -15   4  22   19.19    6.03
 -14   4  22    7.59    4.38
 -13   4  22   -4.46    2.27
 -12   4  22   10.12    4.51
 -11   4  22    0.86    3.43
 -10   4  22    8.11    4.18
  -9   4  22   23.84    6.28
  -8   4  22   55.60    9.36
  -7   4  22   -0.06    3.11
  -6   4  22    2.33    3.93
  -5   4  22   64.92   10.38
  -4   4  22   28.07    7.56
  -3   4  22    0.08    3.84
  -2   4  22   13.62    6.11
  -1   4  22   36.46    8.69
   0   4  22   29.54    8.36
   1   4  22    2.99    5.43
   2   4  22   22.05    8.11
 -16   5  22    2.11    3.92
 -15   5  22   -0.50    3.27
 -14   5  22   -3.00    3.04
 -13   5  22   14.62    5.51
 -12   5  22   16.59    5.79
 -11   5  22    4.77    3.90
 -10   5  22   11.08    5.08
  -9   5  22    0.54    2.81
  -8   5  22   82.35   11.22
  -7   5  22    7.74    4.60
  -6   5  22    0.46    3.92
  -5   5  22   44.98    8.93
  -4   5  22   -2.81    3.88
  -3   5  22   32.86    8.13
  -2   5  22   36.90    8.65
  -1   5  22   36.58    8.74
   0   5  22   -0.57    4.36
   1   5  22    9.95    6.62
 -16   6  22   -0.32    3.38
 -15   6  22   -0.19    3.45
 -14   6  22   15.37    6.23
 -13   6  22   74.10   11.85
 -12   6  22   -0.36    3.32
 -11   6  22    1.79    3.18
 -10   6  22   11.10    4.68
  -9   6  22   11.43    4.64
  -8   6  22   11.30    4.93
  -7   6  22    2.23    4.18
  -6   6  22   45.41    9.10
  -5   6  22   27.33    7.42
  -4   6  22    0.26    3.18
  -3   6  22   10.25    5.59
  -2   6  22   16.78    6.51
  -1   6  22   36.22    9.08
   0   6  22   -4.34    3.81
   0  -6 -22    4.22    3.67
 -17   7  22   -5.80    3.02
 -16   7  22   25.78    7.35
 -15   7  22   17.85    6.48
 -14   7  22   57.35   11.06
 -13   7  22   17.38    6.60
 -12   7  22    1.79    4.12
 -11   7  22   -2.75    2.87
 -10   7  22   37.77    8.46
  -9   7  22    7.12    5.06
  -8   7  22   10.57    5.06
  -7   7  22   44.19    8.94
  -6   7  22   33.48    8.15
  -5   7  22    3.09    4.35
  -4   7  22    0.66    3.72
  -3   7  22    2.76    4.42
  -2   7  22    3.01    4.32
   2  -7 -22    4.16    3.22
   1  -7 -22    3.31    3.58
  -1   7  22   -3.52    4.08
   0  -7 -22    5.71    3.97
 -16   8  22   -1.52    3.04
 -16   8  22    0.05    4.10
 -15   8  22   15.85    6.47
 -15   8  22   30.76    6.64
 -14   8  22   19.92    7.07
 -13   8  22    6.39    4.72
 -12   8  22    9.74    5.26
 -11   8  22   63.66   11.19
 -10   8  22   41.04    9.28
  -9   8  22   -1.12    3.75
  -8   8  22    3.14    4.25
  -7   8  22   -0.75    3.52
  -6   8  22    2.19    4.33
  -5   8  22    9.07    5.11
  -4   8  22    5.07    4.49
  -3   8  22    0.94    3.72
   3  -8 -22    1.98    3.63
  -2   8  22    1.10    4.44
   2  -8 -22    7.81    4.75
   1  -8 -22    4.08    3.29
   0  -8 -22    8.17    3.49
 -15   9  22   44.34    8.12
 -15   9  22   27.71    8.58
 -14   9  22    5.93    4.24
 -14   9  22    2.06    4.57
 -13   9  22   22.17    7.28
 -12   9  22   23.87    7.39
 -11   9  22    8.13    5.97
 -10   9  22   23.49    7.86
  -9   9  22    8.88    5.74
  -8   9  22    3.54    4.36
  -7   9  22    4.68    4.24
  -6   9  22    1.98    3.63
  -5   9  22    1.32    4.20
   5  -9 -22    5.61    4.73
  -4   9  22   -1.80    3.39
   4  -9 -22   -1.50    2.83
  -3   9  22    3.36    4.45
   3  -9 -22    1.22    3.45
   2  -9 -22    7.22    4.06
   1  -9 -22    0.10    3.47
   0  -9 -22    5.47    2.63
 -14  10  22   -8.19    3.77
 -14  10  22   -1.48    3.13
 -13  10  22   19.73    7.05
 -12  10  22   25.10    8.86
 -11  10  22    3.75    4.24
 -10  10  22    1.99    5.04
  -9  10  22   -3.00    3.72
  -8  10  22   25.90    7.25
  -7  10  22    6.24    5.06
   6 -10 -22    1.59    3.70
  -6  10  22    0.12    4.17
   5 -10 -22    0.43    3.69
  -5  10  22    1.80    3.74
  -4  10  22   -0.38    3.99
   4 -10 -22   -0.42    3.29
   3 -10 -22   -3.61    2.53
   2 -10 -22    1.78    3.15
 -13  11  22   16.27    6.40
 -12  11  22    4.50    4.91
 -11  11  22    5.90    4.99
 -10  11  22    0.85    4.04
  -9  11  22    2.84    3.68
  -8  11  22   -0.60    3.90
  -7  11  22    3.36    5.04
  -6  11  22    2.21    4.13
   6 -11 -22    3.13    3.93
   5 -11 -22   11.21    5.77
  -5  11  22   13.13    5.78
 -11  12  22    7.49    5.12
 -10  12  22    0.28    4.23
  -9  12  22   -1.03    4.47
  -8  12  22    4.96    4.63
  -7  12  22    2.15    4.61
  -6  12  22   -2.03    4.42
  -2 -15  23    0.82    4.17
   3 -15  23    6.37    6.37
   4 -15  23    3.85    5.81
  -4 -14  23    3.69    4.83
  -3 -14  23   -1.21    3.33
  -2 -14  23    4.25    3.19
   2 -14  23    9.98    6.59
   3 -14  23   39.68   11.18
   4 -14  23   15.77    7.42
   5 -14  23   11.50    6.70
  -5 -13  23   14.00    5.59
  -4 -13  23    5.81    3.87
  -3 -13  23   22.47    5.48
  -2 -13  23    2.64    2.65
   1 -13  23   10.18    5.91
   2 -13  23    5.90    5.84
   3 -13  23   28.89    9.23
   4 -13  23    8.69    6.64
   5 -13  23   14.76    7.52
  -6 -12  23    2.93    3.43
  -5 -12  23   11.61    4.75
  -4 -12  23   30.83    6.53
  -3 -12  23    2.19    2.75
  -2 -12  23    4.34    2.56
   0 -12  23   16.02    6.73
   1 -12  23    7.36    6.60
   2 -12  23    6.26    6.93
   3 -12  23   13.15    8.19
   4 -12  23   22.68    9.01
   5 -12  23    2.58    7.01
   6 -12  23   31.57    9.92
  -7 -11  23   -0.85    3.06
  -6 -11  23   -2.40    2.31
  -5 -11  23    4.09    3.40
  -4 -11  23   13.69    4.25
  -3 -11  23    3.18    2.71
  -2 -11  23    3.76    2.29
  -1 -11  23    8.35    3.04
  -1 -11  23    7.05    5.85
   0 -11  23   26.81    8.83
   1 -11  23   41.90   10.47
   2 -11  23    0.81    5.60
   3 -11  23   27.74    9.71
   4 -11  23   32.97    9.93
   5 -11  23   23.59    9.54
   6 -11  23    1.85    6.81
  -8 -10  23   -1.90    3.45
  -7 -10  23   -1.05    2.51
  -6 -10  23    1.06    3.38
  -5 -10  23   29.89    6.17
  -4 -10  23   12.68    3.80
  -3 -10  23   12.61    3.50
  -2 -10  23   -4.42    1.76
  -2 -10  23   -6.76    4.91
  -1 -10  23   27.47    5.16
  -1 -10  23   32.76    9.58
   0 -10  23   21.64    8.21
   1 -10  23   15.32    7.71
   2 -10  23   10.54    6.78
   3 -10  23   42.79   10.99
   4 -10  23   30.79    9.95
   5 -10  23   13.44    7.58
   6 -10  23  159.05   20.91
   7 -10  23    3.28    6.65
  -9  -9  23    6.08    3.40
  -8  -9  23    1.04    2.72
  -7  -9  23   -4.33    2.57
  -6  -9  23   -0.51    2.23
  -5  -9  23    8.14    3.34
  -4  -9  23    1.78    2.16
  -3  -9  23    6.35    5.51
  -3  -9  23    3.79    2.31
  -2  -9  23   72.16   12.39
  -2  -9  23   64.65    7.80
  -1  -9  23   29.10    8.69
  -1  -9  23   27.28    5.00
   0  -9  23   21.73    8.02
   1  -9  23   14.13    7.31
   2  -9  23   83.46   14.00
   3  -9  23   66.15   12.93
   4  -9  23   16.96    7.87
   5  -9  23   10.15    6.58
   6  -9  23    4.57    5.63
   7  -9  23    3.07    5.88
 -10  -8  23   -2.21    2.95
  -9  -8  23   -1.16    2.05
  -8  -8  23   -1.60    2.45
  -7  -8  23    3.86    3.07
  -6  -8  23    6.79    3.51
  -5  -8  23   18.80    4.18
  -4  -8  23    4.67    5.79
  -4  -8  23   -0.92    1.98
  -3  -8  23   30.89    8.72
  -3  -8  23   21.81    4.73
  -2  -8  23   53.34   11.40
  -2  -8  23   76.89    8.25
  -1  -8  23   24.40    8.62
  -1  -8  23   27.59    4.88
   0  -8  23   13.59    7.57
   1  -8  23   53.88   11.47
   2  -8  23  165.61   18.76
   3  -8  23   82.64   14.17
   4  -8  23   -1.95    4.85
   5  -8  23    3.10    6.94
   6  -8  23    1.94    4.51
   7  -8  23    0.81    5.45
 -11  -7  23    3.65    2.46
 -10  -7  23   -1.10    2.33
  -9  -7  23   -0.84    3.05
  -8  -7  23   16.39    4.47
  -7  -7  23   22.63    5.13
  -6  -7  23   -0.69    1.85
  -5  -7  23    1.15    5.60
  -5  -7  23    1.87    2.09
  -4  -7  23   10.06    3.31
  -4  -7  23   10.66    6.26
  -3  -7  23  101.49   13.83
  -3  -7  23   81.14    9.08
  -2  -7  23   59.89   12.05
  -2  -7  23   80.28    7.82
  -1  -7  23    5.03    2.25
  -1  -7  23   11.85    6.93
   0  -7  23   -2.61    4.90
   1  -7  23   97.27   14.44
   2  -7  23   17.47    8.13
   3  -7  23   -4.19    5.24
   4  -7  23    4.84    7.20
   5  -7  23    7.31    7.52
   6  -7  23   -0.94    4.40
   7  -7  23   -0.55    4.45
 -12  -6  23    2.86    2.21
 -11  -6  23    1.74    2.49
 -10  -6  23   -0.42    2.49
  -9  -6  23   -3.98    2.23
  -8  -6  23   50.86    7.80
  -7  -6  23   48.61    7.67
  -6  -6  23   13.45    6.73
  -6  -6  23   17.75    4.40
  -5  -6  23   23.53    8.27
  -5  -6  23   44.17    6.62
  -4  -6  23   46.59   10.03
  -4  -6  23   48.45    6.99
  -3  -6  23   33.41    9.47
  -3  -6  23   60.89    7.40
  -2  -6  23   29.29    9.13
  -2  -6  23   30.87    5.37
  -1  -6  23   20.49    4.29
  -1  -6  23   18.41    8.01
   0  -6  23    5.06    5.83
   1  -6  23   74.47   12.96
   2  -6  23    2.42    5.16
   3  -6  23   -4.73    5.32
   4  -6  23   36.74   10.78
   5  -6  23    1.43    6.70
   6  -6  23    1.33    5.73
   7  -6  23    2.91    5.31
 -12  -5  23    3.84    2.22
 -11  -5  23   -1.92    1.97
 -10  -5  23    4.71    3.16
  -9  -5  23    7.58    3.53
  -8  -5  23   43.96    7.08
  -7  -5  23  241.23   21.56
  -7  -5  23  231.28   17.21
  -6  -5  23   95.81   13.44
  -6  -5  23   87.69    9.64
  -5  -5  23    5.10    5.89
  -5  -5  23    4.11    2.34
  -4  -5  23   46.64   10.04
  -3  -5  23   16.44    7.27
  -2  -5  23   -2.40    4.80
  -1  -5  23   -1.75    5.00
   0  -5  23   24.23    8.17
   1  -5  23    5.75    5.91
   2  -5  23   -3.64    5.19
   3  -5  23   20.35    8.73
   4  -5  23    6.66    6.46
   5  -5  23   23.92    9.47
   6  -5  23   -2.78    6.12
   7  -5  23   20.39    9.94
 -13  -4  23   30.12    6.07
 -12  -4  23    3.21    2.60
 -11  -4  23   12.66    3.59
 -10  -4  23    4.44    2.82
  -9  -4  23   -0.93    1.93
  -8  -4  23   28.53    8.04
  -8  -4  23   18.45    4.44
  -7  -4  23   93.57   12.88
  -6  -4  23    5.26    5.38
  -5  -4  23   33.79    8.66
  -4  -4  23   27.09    8.12
  -3  -4  23   31.72    8.76
  -2  -4  23   -1.13    3.91
  -1  -4  23   34.63    9.08
   0  -4  23    1.61    5.40
   1  -4  23    8.40    6.32
   2  -4  23   -0.96    5.53
   3  -4  23    0.39    5.29
   4  -4  23   -3.35    6.67
   5  -4  23   39.61   11.32
   6  -4  23   28.16   10.10
   7  -4  23    5.29    9.27
 -14  -3  23   22.23    4.77
 -13  -3  23    4.10    2.62
 -12  -3  23    2.29    2.49
 -11  -3  23   -0.06    1.80
 -10  -3  23    2.32    2.06
  -9  -3  23   16.63    4.12
  -9  -3  23   17.49    6.40
  -8  -3  23   44.08    9.10
  -7  -3  23   38.41    8.78
  -6  -3  23   -0.09    4.46
  -5  -3  23    4.84    5.12
  -4  -3  23    3.12    4.83
  -3  -3  23   -1.76    4.21
  -2  -3  23    1.11    5.04
  -1  -3  23    4.13    5.26
   0  -3  23    4.13    5.94
   1  -3  23   10.67    6.82
   2  -3  23   -1.43    5.47
   3  -3  23    3.36    6.12
   4  -3  23   66.29   12.85
   5  -3  23   26.40    9.44
   6  -3  23   26.38    9.21
   7  -3  23   -3.88    7.37
 -14  -2  23    3.36    2.22
 -13  -2  23   37.47    6.01
 -12  -2  23   10.96    3.23
 -11  -2  23   16.90    3.86
 -10  -2  23   52.93    9.25
  -9  -2  23   92.66   12.17
  -8  -2  23    7.97    5.05
  -7  -2  23    8.68    5.00
  -6  -2  23    4.94    4.83
  -5  -2  23   12.08    5.88
  -4  -2  23    1.56    4.24
  -3  -2  23   -3.96    3.98
  -2  -2  23    6.15    5.39
  -1  -2  23    4.52    5.36
   0  -2  23   -0.17    4.83
   1  -2  23   81.90   13.46
   2  -2  23   15.12    7.56
   3  -2  23   -1.96    4.95
   4  -2  23   23.44    8.45
   5  -2  23   15.42    8.60
   6  -2  23    7.99    7.32
   7  -2  23    1.11    8.12
 -15  -1  23    4.00    2.13
 -14  -1  23   27.33    4.86
 -13  -1  23   30.88    5.23
 -12  -1  23   14.94    3.43
 -11  -1  23   76.76   10.91
 -10  -1  23   82.71   11.40
  -9  -1  23   23.88    6.28
  -8  -1  23    2.14    3.85
  -7  -1  23   24.89    6.37
  -6  -1  23   12.61    5.47
  -5  -1  23    0.21    3.79
  -4  -1  23    1.93    4.18
  -3  -1  23   22.82    7.33
  -2  -1  23   27.48    8.16
  -1  -1  23    6.85    5.81
   0  -1  23   -0.10    4.80
   1  -1  23   92.29   13.76
   2  -1  23   20.07    8.20
   3  -1  23    8.33    6.18
   4  -1  23    7.87    7.40
   5  -1  23   19.46    8.60
   6  -1  23    3.03    6.42
 -15   0  23   12.70    2.82
 -14   0  23   33.97    5.43
 -12   0  23   16.03    5.37
 -11   0  23    5.51    4.17
 -10   0  23    7.29    3.88
  -9   0  23   -1.38    2.96
  -8   0  23    8.74    4.47
  -7   0  23    1.50    3.41
  -6   0  23   11.87    5.22
  -5   0  23    2.83    3.55
  -4   0  23   35.33    8.36
  -3   0  23   20.33    6.96
  -2   0  23   16.47    6.90
  -1   0  23    3.91    5.66
   0   0  23   17.92    7.33
   1   0  23   21.14    7.64
   2   0  23    3.81    5.63
   3   0  23    6.38    6.84
   4   0  23   56.32   11.96
   5   0  23    9.74    7.29
 -15   1  23    0.63    1.47
 -12   1  23   -0.15    3.53
 -11   1  23    1.50    3.32
 -10   1  23    6.82    3.42
  -9   1  23   -1.01    3.11
  -8   1  23    4.33    4.05
  -7   1  23    7.91    4.15
  -6   1  23    8.32    4.32
  -5   1  23   28.38    7.42
  -4   1  23   64.14   10.57
  -3   1  23   26.68    7.72
  -2   1  23   18.24    7.11
  -1   1  23   -0.26    5.10
   0   1  23   12.45    7.45
   1   1  23   -6.81    3.73
   2   1  23    4.07    6.28
   3   1  23   28.28    9.44
   4   1  23   54.85   12.40
 -16   2  23    1.75    1.50
 -13   2  23   -2.53    2.63
 -12   2  23   21.44    6.23
 -11   2  23    0.26    3.34
 -10   2  23    6.51    4.15
  -9   2  23    6.83    4.54
  -8   2  23   47.07    9.18
  -7   2  23   64.56   10.22
  -6   2  23   -1.76    2.45
  -5   2  23   12.78    5.13
  -4   2  23   24.39    7.52
  -3   2  23   25.94    8.03
  -2   2  23   -2.30    4.68
  -1   2  23   27.85    8.54
   0   2  23    4.01    5.41
   1   2  23   14.34    7.18
   2   2  23    6.64    5.98
   3   2  23   29.61    8.89
   4   2  23   -1.37    5.73
 -14   3  23   -1.44    3.00
 -13   3  23   -4.41    2.88
 -12   3  23   10.31    4.98
 -11   3  23    1.12    3.05
 -10   3  23   37.59    7.90
  -9   3  23   51.25    9.36
  -8   3  23   56.46    9.91
  -7   3  23    4.27    3.91
  -6   3  23   35.16    7.89
  -5   3  23  127.50   14.27
  -4   3  23   35.41    8.70
  -3   3  23   15.45    6.26
  -2   3  23  152.06   16.53
  -1   3  23   30.14    8.58
   0   3  23   -2.62    4.31
   1   3  23   14.62    6.99
   2   3  23   11.86    6.82
   3   3  23   -5.96    5.08
 -15   4  23    0.09    3.33
 -14   4  23    1.61    3.46
 -13   4  23   32.47    7.67
 -12   4  23    4.29    3.64
 -11   4  23   -0.36    2.79
 -10   4  23   54.42    9.23
  -9   4  23  116.88   13.05
  -8   4  23    3.13    3.08
  -7   4  23   22.34    6.04
  -6   4  23  119.64   13.69
  -5   4  23  114.55   14.05
  -4   4  23   18.91    7.24
  -3   4  23  101.98   13.38
  -2   4  23   49.68   10.00
  -1   4  23    5.00    5.62
   0   4  23    2.42    5.18
   1   4  23   12.00    7.31
   2   4  23   -4.07    4.60
 -16   5  23    3.40    3.21
 -15   5  23   -2.56    3.35
 -14   5  23   33.27    8.09
 -13   5  23   34.76    8.34
 -12   5  23    1.48    3.32
 -11   5  23   10.42    5.07
 -10   5  23   15.95    5.30
  -9   5  23   10.53    4.45
  -8   5  23    7.25    4.18
  -7   5  23   33.19    7.99
  -6   5  23   29.11    8.01
  -5   5  23    2.45    4.36
  -4   5  23   66.44   10.92
  -3   5  23   15.74    6.28
  -2   5  23    2.00    4.65
  -1   5  23   -0.04    3.96
   0   5  23   -8.86    4.58
   1   5  23   -3.14    4.78
 -16   6  23   -5.77    2.88
 -15   6  23    6.87    4.36
 -14   6  23   28.45    7.34
 -13   6  23   -0.27    3.71
 -12   6  23    9.98    4.95
 -11   6  23   36.70    8.36
 -10   6  23    4.00    3.39
  -9   6  23    0.67    3.09
  -8   6  23   36.80    8.51
  -7   6  23   79.61   11.90
  -6   6  23   -1.39    4.11
  -5   6  23    3.20    4.72
  -4   6  23    0.18    4.24
  -3   6  23    4.12    5.01
  -2   6  23    7.24    5.37
  -1   6  23   -1.26    4.69
   0   6  23    2.57    5.70
 -16   7  23   39.50    8.77
 -15   7  23   41.20    9.68
 -14   7  23   17.75    7.14
 -13   7  23    0.24    4.07
 -12   7  23   54.28   10.60
 -11   7  23   31.41    8.33
 -10   7  23   13.67    5.49
  -9   7  23   29.19    8.01
  -8   7  23   24.53    7.50
  -7   7  23   27.99    8.11
  -6   7  23   -3.40    3.47
  -5   7  23    5.99    4.82
  -4   7  23   11.51    5.40
  -3   7  23   -5.65    3.61
  -2   7  23   -1.53    4.62
  -1   7  23   14.35    6.87
 -15   8  23    9.95    5.13
 -14   8  23    2.62    4.65
 -13   8  23   53.59   11.16
 -12   8  23   78.29   12.92
 -11   8  23   11.42    5.64
 -10   8  23   13.60    6.60
  -9   8  23   35.50    8.83
  -8   8  23   -2.90    3.90
  -7   8  23   -2.77    4.42
  -6   8  23   13.79    6.31
  -5   8  23   17.26    6.45
  -4   8  23   -4.70    3.26
  -3   8  23    1.06    4.30
   2  -8 -23    5.70    4.20
  -2   8  23    6.72    5.71
   1  -8 -23    1.54    3.37
 -14   9  23   -0.10    4.98
 -13   9  23    7.59    5.38
 -12   9  23   28.27    7.57
 -11   9  23    3.33    4.22
 -10   9  23   -3.36    3.60
  -9   9  23    2.13    4.59
  -8   9  23   -0.64    4.04
  -7   9  23    3.43    4.79
  -6   9  23   22.93    7.27
  -5   9  23    2.03    4.02
  -4   9  23    6.76    5.67
   3  -9 -23    4.03    3.52
  -3   9  23   -3.29    4.04
   2  -9 -23    4.10    3.37
   1  -9 -23    4.25    3.35
 -13  10  23   -6.02    3.88
 -12  10  23    0.21    4.75
 -11  10  23   -0.43    4.34
 -10  10  23   -0.83    3.86
  -9  10  23   -1.94    3.29
  -8  10  23   -0.65    3.15
  -7  10  23    9.60    5.31
  -6  10  23    5.33    4.34
   5 -10 -23   11.27    4.74
  -5  10  23   24.25    7.07
   4 -10 -23   -3.01    2.75
  -4  10  23   -3.24    3.53
 -11  11  23    3.97    5.03
 -10  11  23    0.88    4.32
  -9  11  23    0.63    4.23
  -8  11  23   16.51    6.79
  -7  11  23   15.84    6.54
  -6  11  23    2.14    5.01
  -5  11  23    3.02    5.45
   3 -15  24   24.17    7.32
  -3 -14  24   -0.77    3.52
   2 -14  24    5.49    6.27
   3 -14  24   14.99    7.17
  -4 -13  24   28.34    6.93
  -3 -13  24   -2.50    2.16
  -2 -13  24   -3.70    2.49
   1 -13  24    4.03    5.99
   2 -13  24   14.31    7.26
   3 -13  24    9.08    7.53
   4 -13  24   12.15    7.51
  -5 -12  24    3.99    4.40
  -4 -12  24    9.10    4.25
  -3 -12  24    4.84    3.46
  -2 -12  24    6.93    3.66
   0 -12  24   27.15    8.95
   1 -12  24   11.95    6.83
   2 -12  24    8.40    6.95
   3 -12  24    6.53    6.31
   4 -12  24   -0.35    6.33
   5 -12  24    6.09    7.21
  -7 -11  24    2.86    3.96
  -6 -11  24    3.43    3.47
  -5 -11  24    0.19    2.97
  -4 -11  24    0.33    2.52
  -3 -11  24    3.16    2.66
  -2 -11  24   27.66    5.46
  -1 -11  24   53.59   10.84
   0 -11  24   15.04    7.39
   1 -11  24    5.57    6.86
   2 -11  24    2.22    5.05
   3 -11  24    4.09    5.85
   4 -11  24    7.30    6.77
   5 -11  24   46.90   12.17
  -8 -10  24   -1.48    3.26
  -7 -10  24    1.34    2.93
  -6 -10  24   29.12    6.21
  -5 -10  24    8.71    3.63
  -4 -10  24   23.98    5.36
  -3 -10  24   -3.74    1.59
  -2 -10  24   18.38    7.66
  -2 -10  24   27.51    5.08
  -1 -10  24    8.49    6.24
   0 -10  24    2.00    5.07
   1 -10  24    1.19    6.22
   2 -10  24    5.46    6.44
   3 -10  24   13.45    7.70
   4 -10  24    2.67    6.50
   5 -10  24   46.51   12.41
   6 -10  24   20.73    9.56
  -9  -9  24   -3.99    2.96
  -8  -9  24   -0.88    2.54
  -7  -9  24   -3.22    2.71
  -6  -9  24   44.51    7.50
  -5  -9  24    6.47    3.27
  -4  -9  24   12.41    3.92
  -3  -9  24   24.50    8.75
  -3  -9  24   47.05    6.88
  -2  -9  24   60.16    7.75
  -2  -9  24   63.87   11.99
  -1  -9  24   -1.10    5.03
   0  -9  24   27.60    9.40
   1  -9  24   80.63   13.74
   2  -9  24   47.85   11.49
   3  -9  24   -2.39    5.15
   4  -9  24    9.15    6.33
   5  -9  24   11.41    7.48
   6  -9  24    1.25    4.66
  -9  -8  24    0.72    2.77
  -8  -8  24   -0.26    2.54
  -7  -8  24   14.38    4.72
  -6  -8  24    8.50    3.27
  -5  -8  24   -3.54    2.00
  -4  -8  24    9.88    6.82
  -4  -8  24    3.48    2.55
  -3  -8  24   34.69    5.67
  -3  -8  24   17.87    8.25
  -2  -8  24    1.22    1.97
  -2  -8  24   -1.43    5.25
  -1  -8  24   11.55    7.01
   0  -8  24   79.21   13.31
   1  -8  24   70.89   12.95
   2  -8  24    0.37    5.39
   3  -8  24   -2.26    5.27
   4  -8  24    0.94    6.08
   5  -8  24    0.40    4.57
   6  -8  24    4.57    5.80
 -10  -7  24    0.10    2.63
  -9  -7  24   -2.23    2.42
  -8  -7  24   24.20    5.74
  -7  -7  24    2.54    2.60
  -6  -7  24    6.66    3.39
  -5  -7  24   39.84    9.81
  -5  -7  24   36.00    6.43
  -4  -7  24   47.93   10.53
  -4  -7  24   46.62    7.16
  -3  -7  24    6.36    6.16
  -3  -7  24    3.31    2.40
  -2  -7  24    8.26    6.76
  -2  -7  24    3.43    2.53
  -1  -7  24   -0.42    5.20
  -1  -7  24    2.76    2.13
   0  -7  24   49.01   10.98
   1  -7  24   35.77    9.84
   2  -7  24    6.97    6.49
   3  -7  24    7.28    6.33
   4  -7  24    1.06    6.84
   5  -7  24   -3.47    3.54
   6  -7  24    4.75    5.97
 -11  -6  24    3.48    2.58
 -10  -6  24    2.48    2.47
  -9  -6  24   14.07    4.85
  -8  -6  24   44.98    7.52
  -7  -6  24   16.95    4.92
  -6  -6  24   -8.10    4.11
  -6  -6  24   -3.56    1.69
  -5  -6  24   63.97    8.29
  -5  -6  24   71.34   11.82
  -4  -6  24    6.11    3.12
  -4  -6  24    6.40    6.29
  -3  -6  24   -3.12    5.26
  -3  -6  24    2.18    2.06
  -2  -6  24    4.21    6.45
  -2  -6  24   13.63    3.59
  -1  -6  24    2.80    5.77
  -1  -6  24    1.09    2.05
   0  -6  24   50.98   11.63
   1  -6  24    6.22    6.23
   2  -6  24    6.46    6.20
   3  -6  24   13.57    7.75
   4  -6  24   -0.56    7.00
   5  -6  24    1.48    4.44
   6  -6  24    1.71    5.33
 -12  -5  24   18.65    5.08
 -11  -5  24    1.63    2.14
 -10  -5  24   -0.75    2.43
  -9  -5  24   34.29    6.33
  -8  -5  24   56.46    8.25
  -7  -5  24   14.01    3.94
  -7  -5  24    1.84    5.97
  -6  -5  24   19.49    7.64
  -6  -5  24   26.06    5.13
  -5  -5  24   17.49    7.86
  -5  -5  24   19.46    4.30
  -4  -5  24    7.17    6.16
  -3  -5  24    2.67    5.34
  -2  -5  24    1.75    5.62
  -1  -5  24   54.67   11.55
   0  -5  24    0.42    5.04
   1  -5  24    5.82    5.85
   2  -5  24   -0.55    5.52
   3  -5  24    7.44    7.02
   4  -5  24   13.26    8.22
   5  -5  24   -2.22    4.84
   6  -5  24   -4.45    4.71
 -12  -4  24   -0.13    1.67
 -11  -4  24   10.48    3.29
 -10  -4  24    5.37    3.37
  -9  -4  24    3.12    2.84
  -8  -4  24    6.05    2.94
  -8  -4  24    7.64    6.09
  -7  -4  24    1.95    5.44
  -6  -4  24   64.20   11.38
  -5  -4  24   -3.84    4.82
  -4  -4  24    1.03    5.03
  -3  -4  24   -4.93    3.84
  -2  -4  24   -4.90    4.37
  -1  -4  24    1.58    5.49
   0  -4  24   17.36    7.65
   1  -4  24   17.28    7.99
   2  -4  24   -0.18    5.67
   3  -4  24    5.98    6.26
   4  -4  24   18.84    9.14
   5  -4  24    2.56    6.05
   6  -4  24   13.88    9.46
 -13  -3  24   13.08    3.69
 -12  -3  24    9.71    3.25
 -11  -3  24   10.62    3.19
 -10  -3  24   -2.65    1.88
  -9  -3  24   13.23    6.09
  -8  -3  24    0.65    4.45
  -7  -3  24   15.51    6.82
  -6  -3  24    3.04    4.73
  -5  -3  24   20.85    7.67
  -4  -3  24    0.48    4.82
  -3  -3  24   29.86    8.74
  -2  -3  24    1.02    4.60
  -1  -3  24    4.99    5.98
   0  -3  24   54.12   11.57
   1  -3  24   10.49    6.68
   2  -3  24    0.73    5.89
   3  -3  24   24.63    9.50
   4  -3  24   18.76    9.02
   5  -3  24   15.70    8.20
   6  -3  24    0.20    8.26
 -13  -2  24    8.79    2.95
 -12  -2  24    3.44    2.37
 -11  -2  24   37.79    5.92
 -10  -2  24    4.79    4.70
  -9  -2  24    7.41    4.83
  -8  -2  24    2.67    4.36
  -7  -2  24    3.68    4.85
  -6  -2  24   -2.54    4.38
  -5  -2  24   21.93    7.29
  -4  -2  24   -1.11    4.21
  -3  -2  24    9.17    6.17
  -2  -2  24    7.38    5.62
  -1  -2  24    1.66    5.12
   0  -2  24   27.22    8.81
   1  -2  24    3.27    5.51
   2  -2  24    6.39    5.95
   3  -2  24   41.09   10.66
   4  -2  24   11.07    7.86
   5  -2  24    9.38    6.83
   6  -2  24   14.00    9.78
 -14  -1  24    4.97    2.29
 -13  -1  24    8.46    2.70
 -11  -1  24    9.35    5.23
 -10  -1  24   -0.70    3.37
  -9  -1  24   13.30    5.10
  -8  -1  24   -0.14    3.57
  -7  -1  24   18.18    6.85
  -6  -1  24   14.52    5.72
  -5  -1  24   16.20    6.44
  -4  -1  24    1.63    4.50
  -3  -1  24   -4.33    3.57
  -2  -1  24    2.78    5.08
  -1  -1  24    3.88    5.99
   0  -1  24    6.87    5.94
   1  -1  24    0.86    5.36
   2  -1  24   53.24   11.65
   3  -1  24   18.15    8.24
   4  -1  24    4.26    7.00
   5  -1  24   19.51    8.47
   6  -1  24   -2.37    7.41
 -14   0  24    3.94    1.92
 -12   0  24   15.73    5.49
 -11   0  24   12.24    4.80
 -10   0  24   10.24    4.61
  -9   0  24   14.01    5.44
  -8   0  24    6.34    4.63
  -7   0  24    4.49    3.91
  -6   0  24   36.13    8.44
  -5   0  24   24.49    7.56
  -4   0  24    2.78    4.53
  -3   0  24    9.57    5.77
  -2   0  24    6.53    6.10
  -1   0  24   19.66    7.88
   0   0  24   -1.93    4.68
   1   0  24   16.72    7.71
   2   0  24   31.35    9.62
   3   0  24   26.88    9.60
   4   0  24   10.29    7.43
   5   0  24   27.94    9.99
 -15   1  24    4.22    1.76
 -12   1  24   42.36    8.74
 -11   1  24   -2.53    3.34
 -10   1  24    9.07    4.83
  -9   1  24    8.88    4.49
  -8   1  24   33.05    7.69
  -7   1  24    8.17    4.22
  -6   1  24   51.44    9.62
  -5   1  24    8.67    5.30
  -4   1  24   11.03    5.61
  -3   1  24    7.62    6.03
  -2   1  24   72.47   12.15
  -1   1  24   41.64   10.37
   0   1  24   32.30    9.13
   1   1  24   30.09    9.12
   2   1  24    9.12    6.70
   3   1  24   34.24   10.60
   4   1  24   31.35    9.71
 -13   2  24   -0.87    3.08
 -12   2  24    2.25    3.21
 -11   2  24   -6.10    2.61
 -10   2  24   12.16    5.04
  -9   2  24   17.56    5.68
  -8   2  24   15.11    5.62
  -7   2  24   24.44    6.71
  -6   2  24   38.21    8.19
  -5   2  24   15.83    5.96
  -4   2  24    0.77    4.77
  -3   2  24   32.91    8.75
  -2   2  24   67.07   11.96
  -1   2  24   13.47    6.73
   0   2  24   10.28    6.46
   1   2  24   16.63    7.57
   2   2  24    7.85    6.60
   3   2  24    2.20    5.65
 -14   3  24    5.00    3.52
 -13   3  24    0.06    3.29
 -12   3  24   -0.63    3.46
 -11   3  24   29.03    7.33
 -10   3  24   93.54   12.71
  -9   3  24   17.51    5.90
  -8   3  24    2.93    3.88
  -7   3  24   12.13    5.87
  -6   3  24    9.60    4.42
  -5   3  24   10.59    5.89
  -4   3  24   14.17    6.89
  -3   3  24   81.09   12.65
  -2   3  24   28.09    8.27
  -1   3  24   -4.71    3.86
   0   3  24    1.98    5.53
   1   3  24    2.53    5.00
   2   3  24   -6.64    5.01
 -15   4  24    6.45    3.63
 -14   4  24    5.20    3.74
 -13   4  24   -3.31    2.83
 -12   4  24   15.11    5.37
 -11   4  24   36.57    8.25
 -10   4  24   15.93    4.99
  -9   4  24   20.68    6.24
  -8   4  24   67.64   10.87
  -7   4  24   12.26    5.12
  -6   4  24   17.88    6.32
  -5   4  24   26.74    7.63
  -4   4  24   13.50    5.55
  -3   4  24   -2.81    3.40
  -2   4  24   31.25    8.82
  -1   4  24  -11.36    3.98
   0   4  24    3.78    5.88
   1   4  24   -4.25    4.32
   2   4  24    1.06    6.19
 -16   5  24    9.83    4.09
 -15   5  24   11.04    5.03
 -14   5  24    5.28    4.63
 -13   5  24   18.34    6.39
 -12   5  24   18.26    6.11
 -11   5  24   16.49    5.78
 -10   5  24    4.90    4.16
  -9   5  24    8.30    4.49
  -8   5  24   24.53    6.55
  -7   5  24    7.95    5.53
  -6   5  24   10.70    6.12
  -5   5  24   11.22    5.80
  -4   5  24   12.76    6.18
  -3   5  24   36.73    9.08
  -2   5  24   30.51    8.68
  -1   5  24   -2.45    4.91
   0   5  24   -6.83    4.07
   1   5  24   11.34    7.14
 -16   6  24   34.24    7.90
 -15   6  24   10.50    5.26
 -14   6  24    1.45    4.23
 -13   6  24   49.78   10.19
 -12   6  24   -0.95    3.58
 -11   6  24   -5.15    2.70
 -10   6  24   -2.80    2.56
  -9   6  24    3.51    3.52
  -8   6  24   23.84    8.01
  -7   6  24   -0.63    4.30
  -6   6  24    1.38    4.21
  -5   6  24   -1.88    3.64
  -4   6  24   -6.15    3.96
  -3   6  24   -3.19    3.82
  -2   6  24   -7.89    4.32
  -1   6  24    0.98    4.75
   0   6  24   -0.51    5.49
 -15   7  24   -0.29    3.68
 -14   7  24   -0.30    3.86
 -13   7  24   18.57    6.82
 -12   7  24   -0.57    3.81
 -11   7  24   10.78    5.69
 -10   7  24    4.37    3.42
  -9   7  24   -1.61    4.59
  -8   7  24    8.95    6.09
  -7   7  24   -0.09    4.17
  -6   7  24   -2.41    4.28
  -5   7  24    3.74    4.75
  -4   7  24    4.76    5.15
  -3   7  24   -2.20    4.52
  -2   7  24    9.26    6.33
  -1   7  24   -1.24    5.17
 -14   8  24   -4.66    3.67
 -13   8  24    7.13    4.95
 -12   8  24    6.81    5.44
 -11   8  24    9.08    4.66
 -10   8  24   -4.31    3.51
  -9   8  24    0.48    3.84
  -8   8  24    0.36    4.42
  -7   8  24    4.54    5.20
  -6   8  24    4.32    4.88
  -5   8  24   -5.37    3.50
  -4   8  24    7.28    5.97
  -3   8  24   22.17    7.63
  -2   8  24    5.65    5.75
 -12   9  24    4.49    4.42
 -11   9  24   -1.93    4.28
 -10   9  24    0.96    4.18
  -9   9  24    1.33    3.44
  -8   9  24   -1.68    3.53
  -7   9  24    0.02    3.68
  -6   9  24   -3.33    4.15
  -5   9  24    6.76    4.61
  -4   9  24   17.07    7.57
  -3   9  24   25.63    8.90
 -11  10  24    0.38    5.42
 -10  10  24   -3.20    3.81
  -9  10  24   -0.24    4.00
  -8  10  24   -3.88    3.73
  -7  10  24   -1.10    4.97
  -6  10  24    2.93    5.04
  -5  10  24    9.59    6.00
  -4  10  24   24.40    8.68
   2 -14  25    6.26    6.72
  -4 -13  25    3.12    4.16
  -3 -13  25   -0.81    2.91
   1 -13  25    4.26    5.44
   2 -13  25   19.43    8.77
   3 -13  25   19.19    7.66
  -5 -12  25    1.99    3.97
  -4 -12  25    1.01    3.26
  -3 -12  25   15.72    4.96
   0 -12  25    9.05    6.56
   1 -12  25   27.65    9.64
   2 -12  25    9.81    6.87
   3 -12  25   32.57    9.88
  -6 -11  25   17.83    6.61
  -5 -11  25    3.61    3.68
  -4 -11  25   42.60    7.34
  -3 -11  25    7.53    3.76
  -2 -11  25    1.09    2.58
  -1 -11  25   83.00   13.64
   0 -11  25   76.37   13.49
   1 -11  25    7.26    6.59
   2 -11  25   12.76    7.33
   3 -11  25   41.62   11.89
   4 -11  25    5.33    7.03
  -7 -10  25   -3.91    3.33
  -6 -10  25    3.37    3.33
  -5 -10  25   14.13    4.50
  -4 -10  25   14.65    4.32
  -3 -10  25   -1.93    2.20
  -2 -10  25   23.08    8.35
  -2 -10  25   27.87    5.28
  -1 -10  25   50.22   12.04
   0 -10  25   25.76    9.67
   1 -10  25   13.91    7.46
   2 -10  25   34.78   10.01
   3 -10  25   43.43   11.16
   4 -10  25    5.29    6.34
  -8  -9  25    1.51    3.24
  -7  -9  25   -2.01    2.42
  -6  -9  25   -6.19    2.32
  -5  -9  25    9.05    3.74
  -4  -9  25    3.48    2.59
  -3  -9  25   -0.91    5.26
  -3  -9  25    0.13    2.22
  -2  -9  25   36.41    9.96
  -2  -9  25   33.53    5.80
  -1  -9  25   38.27   10.15
   0  -9  25   39.84   10.27
   1  -9  25    1.80    5.42
   2  -9  25   67.87   13.22
   3  -9  25   67.63   13.54
   4  -9  25   12.77    7.45
   5  -9  25   22.26    8.82
  -9  -8  25   -1.94    2.99
  -8  -8  25    1.36    2.47
  -7  -8  25    0.64    3.51
  -6  -8  25    1.60    2.67
  -5  -8  25   -1.33    2.30
  -4  -8  25    6.88    6.99
  -4  -8  25   20.23    4.77
  -3  -8  25   13.01    3.50
  -3  -8  25    5.68    6.21
  -2  -8  25   84.16    9.19
  -2  -8  25   95.27   14.52
  -1  -8  25   53.95   11.43
   0  -8  25    6.49    6.44
   1  -8  25   47.40   11.72
   2  -8  25   30.16    9.87
   3  -8  25   27.28    9.32
   4  -8  25   -2.42    5.28
   5  -8  25    1.91    5.04
 -10  -7  25   -2.75    3.00
  -9  -7  25   -1.86    2.67
  -8  -7  25   -5.73    2.64
  -7  -7  25    6.26    3.55
  -6  -7  25    2.95    2.33
  -5  -7  25    9.92    3.44
  -5  -7  25   12.20    7.35
  -4  -7  25    5.62    2.58
  -4  -7  25    1.63    5.61
  -3  -7  25   66.20    8.23
  -3  -7  25   50.65   11.29
  -2  -7  25   17.06    4.16
  -2  -7  25   20.66    8.37
  -1  -7  25   10.74    6.75
   0  -7  25   -5.72    5.21
   1  -7  25   -1.57    5.61
   2  -7  25    2.49    6.32
   3  -7  25   -0.32    4.96
   4  -7  25   -0.57    4.54
   5  -7  25   -3.11    4.24
 -10  -6  25   -2.04    2.70
  -9  -6  25    1.56    2.87
  -8  -6  25   12.66    4.05
  -7  -6  25    2.68    2.58
  -6  -6  25   44.33   10.20
  -6  -6  25   22.25    5.22
  -5  -6  25   -2.81    5.77
  -5  -6  25   -1.82    1.90
  -4  -6  25   18.32    8.12
  -4  -6  25   19.82    4.57
  -3  -6  25    8.06    3.10
  -3  -6  25   -1.35    6.19
  -2  -6  25    8.40    3.17
  -2  -6  25   -0.35    5.13
  -1  -6  25   13.55    7.26
   0  -6  25   -8.34    4.47
   1  -6  25    1.71    5.30
   2  -6  25   11.15    7.43
   3  -6  25   -0.79    6.50
   4  -6  25   -5.20    3.42
   5  -6  25    3.63    5.75
 -11  -5  25    3.12    2.37
 -10  -5  25    0.72    2.25
  -9  -5  25    1.05    3.19
  -8  -5  25    9.91    3.80
  -7  -5  25   24.10    5.37
  -7  -5  25   24.01    8.38
  -6  -5  25   28.33    5.56
  -6  -5  25   36.07    9.80
  -5  -5  25   15.81    4.30
  -5  -5  25   15.62    7.32
  -4  -5  25    5.47    5.69
  -3  -5  25   15.39    7.28
  -2  -5  25    3.16    5.76
  -1  -5  25   -1.13    5.16
   0  -5  25   21.11    9.02
   1  -5  25    5.10    6.40
   2  -5  25    4.84    7.50
   3  -5  25    1.08    6.71
   4  -5  25   -1.95    3.88
   5  -5  25    2.60    5.13
 -12  -4  25   12.52    3.60
 -11  -4  25    0.81    2.25
 -10  -4  25    0.89    2.80
  -9  -4  25   23.37    5.53
  -8  -4  25    8.91    3.74
  -8  -4  25    4.99    6.61
  -7  -4  25   45.76   10.41
  -6  -4  25    6.81    6.31
  -5  -4  25    5.49    5.56
  -4  -4  25   -0.29    5.19
  -3  -4  25   -3.09    4.35
  -2  -4  25    3.20    6.05
  -1  -4  25   -1.57    5.60
   0  -4  25   60.48   12.32
   1  -4  25   -4.06    5.43
   2  -4  25   41.00   11.38
   3  -4  25    6.93    6.88
   4  -4  25   -1.86    3.77
   5  -4  25   -1.62    4.46
 -12  -3  25    9.50    3.14
 -11  -3  25    9.68    3.06
 -10  -3  25    2.95    2.83
  -9  -3  25   11.10    6.35
  -8  -3  25   -2.13    4.44
  -7  -3  25    5.29    5.96
  -6  -3  25   10.42    6.49
  -5  -3  25   12.39    6.89
  -4  -3  25    8.99    6.34
  -3  -3  25   25.28    8.33
  -2  -3  25   11.47    6.77
  -1  -3  25   28.85    8.91
   0  -3  25   73.50   13.81
   1  -3  25   20.13    8.66
   2  -3  25   51.17   12.49
   3  -3  25   -6.03    5.01
   4  -3  25    3.15    5.04
   5  -3  25   -3.98    7.46
 -13  -2  25   -2.28    1.57
 -12  -2  25    1.80    1.92
 -11  -2  25   16.87    3.84
 -10  -2  25   50.36    9.81
  -9  -2  25   16.05    6.55
  -8  -2  25    6.22    4.89
  -7  -2  25    5.41    5.34
  -6  -2  25   21.15    7.59
  -5  -2  25   -2.81    4.69
  -4  -2  25    7.79    5.63
  -3  -2  25  139.05   16.82
  -2  -2  25  109.68   15.02
  -1  -2  25   20.11    8.28
   0  -2  25   -3.37    4.85
   1  -2  25   44.33   11.19
   2  -2  25   40.66   11.04
   3  -2  25   -5.11    5.61
   4  -2  25   17.56   10.05
   5  -2  25   23.19   11.18
 -13  -1  25    6.04    2.75
 -11  -1  25    2.91    3.79
 -10  -1  25   53.28    9.74
  -9  -1  25    8.86    5.35
  -8  -1  25   11.04    5.67
  -7  -1  25   33.82    8.67
  -6  -1  25   29.29    8.42
  -5  -1  25    9.77    5.80
  -4  -1  25   21.23    7.44
  -3  -1  25   92.53   13.54
  -2  -1  25   12.78    7.29
  -1  -1  25    3.68    5.25
   0  -1  25   10.03    6.34
   1  -1  25   33.26   10.04
   2  -1  25    3.48    6.27
   3  -1  25   -5.26    5.87
   4  -1  25   19.17    9.23
   5  -1  25    4.52    8.43
 -14   0  25    5.63    2.14
 -12   0  25   24.20    6.42
 -11   0  25    1.54    3.37
 -10   0  25   31.95    7.69
  -9   0  25   -0.89    3.53
  -8   0  25   18.12    6.20
  -7   0  25   23.83    6.93
  -6   0  25   39.37    9.02
  -5   0  25   -1.54    3.78
  -4   0  25   49.64   10.23
  -3   0  25   19.00    7.54
  -2   0  25   25.62    8.00
  -1   0  25    6.50    5.91
   0   0  25   34.08    9.37
   1   0  25   26.09    9.19
   2   0  25   23.99    9.26
   3   0  25   11.60    7.02
   4   0  25   30.68   11.44
 -13   1  25    4.73    3.94
 -12   1  25   -6.95    2.82
 -11   1  25    3.64    3.79
 -10   1  25   -1.13    3.01
  -9   1  25   19.85    6.43
  -8   1  25   49.46    9.60
  -7   1  25   37.21    8.62
  -6   1  25    1.18    3.90
  -5   1  25    7.04    4.69
  -4   1  25   21.10    7.72
  -3   1  25   14.60    6.72
  -2   1  25   55.33   11.25
  -1   1  25   -2.89    5.17
   0   1  25    3.54    5.11
   1   1  25    1.96    6.09
   2   1  25    1.18    5.85
   3   1  25   34.96   10.99
   4   1  25    1.01    7.95
 -13   2  25   34.77    7.93
 -12   2  25    1.57    3.67
 -11   2  25   -3.12    2.96
 -10   2  25    6.10    4.15
  -9   2  25   88.54   12.58
  -8   2  25   27.50    7.40
  -7   2  25   43.56    9.04
  -6   2  25    6.27    4.39
  -5   2  25   51.72   10.21
  -4   2  25    2.82    5.19
  -3   2  25    3.53    5.44
  -2   2  25   -1.28    4.65
  -1   2  25    1.34    4.88
   0   2  25   -0.39    5.05
   1   2  25   -3.29    5.22
   2   2  25   -1.52    5.10
   3   2  25   19.21    9.33
 -14   3  25   -2.17    2.87
 -13   3  25   15.62    5.76
 -12   3  25   10.42    4.57
 -11   3  25    5.86    3.47
 -10   3  25   33.91    7.80
  -9   3  25  262.60   23.03
  -8   3  25   30.81    7.58
  -7   3  25    7.68    4.18
  -6   3  25   37.65    8.41
  -5   3  25   23.04    7.55
  -4   3  25   -4.48    4.20
  -3   3  25    4.07    5.50
  -2   3  25   34.80    9.60
  -1   3  25   -7.22    3.85
   0   3  25   -0.52    5.81
   1   3  25    1.37    5.56
   2   3  25    3.05    7.53
 -15   4  25    9.22    4.04
 -14   4  25    8.11    4.31
 -13   4  25   24.80    6.83
 -12   4  25   42.03    8.87
 -11   4  25   -1.49    3.01
 -10   4  25   57.55   10.36
  -9   4  25  222.14   20.54
  -8   4  25    3.33    3.97
  -7   4  25    4.54    4.06
  -6   4  25    5.81    5.63
  -5   4  25   -1.07    4.52
  -4   4  25   24.33    7.88
  -3   4  25  102.01   14.48
  -2   4  25   25.27    8.27
  -1   4  25   19.87    7.90
   0   4  25   -4.45    5.51
   1   4  25   -1.40    5.63
 -15   5  25    5.14    4.05
 -14   5  25   12.85    4.92
 -13   5  25   11.50    4.94
 -12   5  25    3.94    4.27
 -11   5  25    1.34    2.96
 -10   5  25   51.77   10.21
  -9   5  25   44.48    9.26
  -8   5  25   -0.67    2.70
  -7   5  25    0.61    4.76
  -6   5  25   -0.56    4.70
  -5   5  25    2.58    5.47
  -4   5  25   31.78    8.90
  -3   5  25   13.25    6.88
  -2   5  25    2.61    5.08
  -1   5  25   -5.97    5.10
   0   5  25    1.13    6.25
 -15   6  25   -2.02    3.06
 -14   6  25    4.68    4.33
 -13   6  25    8.71    4.68
 -12   6  25    2.66    3.53
 -11   6  25   -1.21    3.00
 -10   6  25    3.66    3.53
  -9   6  25    1.74    3.21
  -8   6  25   -1.45    4.36
  -7   6  25   13.41    6.14
  -6   6  25   -0.65    4.08
  -5   6  25    1.44    5.44
  -4   6  25    1.09    4.74
  -3   6  25   -1.13    4.82
  -2   6  25    4.26    5.68
  -1   6  25   19.03    8.22
 -14   7  25   -3.04    3.57
 -13   7  25   -3.12    3.42
 -12   7  25    2.99    4.02
 -11   7  25    4.12    3.75
 -10   7  25    2.99    4.18
  -9   7  25   -1.88    3.91
  -8   7  25    1.14    4.47
  -7   7  25   -0.43    4.11
  -6   7  25   -4.27    3.93
  -5   7  25    1.85    4.61
  -4   7  25   -1.05    4.24
  -3   7  25    1.95    5.62
  -2   7  25    3.27    5.99
  -1   7  25   15.92    8.92
 -12   8  25    0.33    3.86
 -11   8  25    4.01    3.77
 -10   8  25   -1.53    3.83
  -9   8  25   -0.90    3.92
  -8   8  25   -0.64    4.20
  -7   8  25    1.83    4.09
  -6   8  25   -3.94    3.41
  -5   8  25    4.81    5.51
  -4   8  25   -0.36    5.46
  -3   8  25    4.90    6.51
 -10   9  25   -0.82    4.23
  -9   9  25    3.50    4.39
  -8   9  25   -2.16    3.98
  -7   9  25    1.16    4.19
  -6   9  25   15.12    7.18
  -5   9  25   16.26    7.21
  -4   9  25    7.08    6.20
  -3 -13  26    0.22    4.13
   1 -13  26   13.56    7.42
  -4 -12  26   20.00    6.32
  -3 -12  26   13.49    4.84
   0 -12  26   21.88    8.56
   1 -12  26    3.74    6.28
  -5 -11  26   83.88   11.15
  -4 -11  26    3.49    3.11
  -3 -11  26    1.82    3.02
   0 -11  26    1.62    5.82
   1 -11  26    2.83    5.88
   2 -11  26   24.35    9.34
   3 -11  26    9.69    7.22
  -6 -10  26   50.92    8.75
  -4 -10  26    0.00    2.59
  -3 -10  26   13.73    4.62
  -2 -10  26   37.05   10.22
  -1 -10  26   20.64    8.96
   0 -10  26   -1.16    5.92
   1 -10  26    2.64    6.59
   2 -10  26   10.35    7.04
   3 -10  26   -5.30    6.10
  -7  -9  26    1.51    3.43
  -6  -9  26   15.72    5.22
  -5  -9  26   10.44    3.77
  -4  -9  26    9.75    3.62
  -3  -9  26   40.36   10.23
  -3  -9  26   26.04    5.50
  -2  -9  26   25.44    9.24
  -1  -9  26   21.48    8.43
   0  -9  26   13.78    7.62
   1  -9  26    5.02    6.33
   2  -9  26    5.23    6.66
   3  -9  26   25.40    8.75
  -8  -8  26   -1.63    2.74
  -7  -8  26   -0.03    2.68
  -6  -8  26    3.04    3.14
  -5  -8  26   22.94    5.53
  -4  -8  26    6.82    6.22
  -4  -8  26    2.93    2.74
  -3  -8  26   27.77    8.69
  -3  -8  26   34.07    6.02
  -2  -8  26   13.38    7.39
  -1  -8  26   16.16    7.53
   0  -8  26    8.58    6.46
   1  -8  26    2.80    5.71
   2  -8  26    0.13    6.52
   3  -8  26    6.56    6.59
   4  -8  26    6.31    6.38
  -9  -7  26   -1.20    3.22
  -8  -7  26   -2.39    2.18
  -7  -7  26   36.64    7.41
  -6  -7  26   20.25    5.05
  -5  -7  26    4.89    3.25
  -5  -7  26    0.47    6.22
  -4  -7  26    8.08    3.35
  -4  -7  26   -1.51    5.34
  -3  -7  26   21.65    4.59
  -3  -7  26   25.09    8.75
  -2  -7  26   -1.33    2.09
  -2  -7  26    1.86    5.79
  -1  -7  26   17.79    7.67
   0  -7  26   -2.36    4.92
   1  -7  26   -2.15    5.50
   2  -7  26   -0.29    6.13
   3  -7  26    1.91    6.09
   4  -7  26    1.48    5.71
 -10  -6  26   -0.37    2.96
  -9  -6  26   -1.39    2.19
  -8  -6  26    0.00    2.68
  -7  -6  26   85.45   10.45
  -6  -6  26   19.50    5.09
  -6  -6  26   18.72    7.77
  -5  -6  26   16.98    4.57
  -5  -6  26   15.28    7.32
  -4  -6  26    5.62    2.65
  -4  -6  26   -2.06    5.20
  -3  -6  26    2.32    6.12
  -3  -6  26    1.76    2.24
  -2  -6  26   -2.04    5.69
  -2  -6  26    4.10    2.67
  -1  -6  26   -1.26    5.86
   0  -6  26  -11.44    4.26
   1  -6  26   11.80    7.46
   2  -6  26   -3.09    5.66
   3  -6  26   -9.57    3.19
   4  -6  26   -5.72    4.59
 -10  -5  26   -0.67    2.57
  -9  -5  26   -3.81    2.07
  -8  -5  26   -3.72    2.28
  -7  -5  26   -4.36    5.07
  -7  -5  26    5.44    2.77
  -6  -5  26   11.07    6.44
  -6  -5  26   14.15    4.04
  -5  -5  26   -3.94    5.48
  -5  -5  26    6.96    2.51
  -4  -5  26    5.27    5.57
  -3  -5  26    9.37    6.91
  -2  -5  26   -1.34    6.20
  -1  -5  26    5.46    6.23
   0  -5  26   -0.91    5.87
   1  -5  26   34.95   10.10
   2  -5  26    6.13    6.08
   3  -5  26    2.05    5.37
   4  -5  26    1.79    5.06
 -11  -4  26    0.15    2.62
 -10  -4  26   -1.96    1.70
  -9  -4  26    0.56    2.61
  -8  -4  26    7.90    3.48
  -8  -4  26    5.45    6.12
  -7  -4  26    3.47    5.53
  -6  -4  26   -0.30    5.45
  -5  -4  26   -3.10    4.78
  -4  -4  26    2.32    5.14
  -3  -4  26   58.92   11.83
  -2  -4  26    4.85    6.14
  -1  -4  26   -0.04    5.57
   0  -4  26   -1.59    5.48
   1  -4  26    6.37    7.45
   2  -4  26    0.14    5.10
   3  -4  26    3.62    4.90
   4  -4  26   -2.18    4.88
 -12  -3  26   -1.31    1.69
 -11  -3  26   -1.57    2.07
 -10  -3  26   -1.72    2.14
  -9  -3  26   17.94    7.08
  -8  -3  26    8.28    5.55
  -7  -3  26   56.52   11.35
  -6  -3  26   27.79    8.64
  -5  -3  26    6.19    5.58
  -4  -3  26   33.57    9.26
  -3  -3  26   36.34    9.80
  -2  -3  26    3.23    5.34
  -1  -3  26   -0.77    5.68
   0  -3  26   31.58   10.53
   1  -3  26    5.82    7.15
   2  -3  26    1.23    5.17
   3  -3  26   -3.35    3.86
   4  -3  26   -3.89    4.28
 -12  -2  26   20.19    4.22
 -11  -2  26   -0.51    1.96
 -10  -2  26   19.15    7.01
  -9  -2  26    4.03    4.89
  -8  -2  26   37.92    9.44
  -7  -2  26   47.75   10.32
  -6  -2  26   14.42    6.49
  -5  -2  26   52.61   10.75
  -4  -2  26   57.58   11.61
  -3  -2  26   31.30    9.44
  -2  -2  26   15.78    7.22
  -1  -2  26   11.10    6.88
   0  -2  26   -5.12    5.26
   1  -2  26   -1.96    6.12
   2  -2  26   -1.94    4.32
   3  -2  26   -2.16    4.89
   4  -2  26    2.85    7.55
 -13  -1  26    5.31    2.09
 -11  -1  26    8.64    5.05
 -10  -1  26    5.64    4.91
  -9  -1  26   58.29   10.71
  -8  -1  26   50.98   10.07
  -7  -1  26   13.65    6.41
  -6  -1  26   15.90    6.59
  -5  -1  26   28.74    8.06
  -4  -1  26   62.04   11.66
  -3  -1  26   10.72    6.48
  -2  -1  26   37.53   10.23
  -1  -1  26    8.53    7.15
   0  -1  26    7.07    6.85
   1  -1  26   -3.03    5.25
   2  -1  26   -7.03    3.79
   3  -1  26   -2.81    6.88
 -12   0  26   20.96    6.51
 -11   0  26   26.95    7.57
 -10   0  26   19.69    7.04
  -9   0  26   49.69   10.06
  -8   0  26   18.18    7.06
  -7   0  26   10.64    5.69
  -6   0  26    2.69    4.45
  -5   0  26   50.52   10.51
  -4   0  26   -0.45    4.19
  -3   0  26   14.80    7.56
  -2   0  26   59.61   12.15
  -1   0  26    2.60    5.80
   0   0  26   -5.48    5.10
   1   0  26    5.20    6.88
   2   0  26   10.87    8.60
   3   0  26   -6.55    6.94
 -13   1  26   80.92   12.17
 -12   1  26    6.70    4.34
 -11   1  26    0.86    3.09
 -10   1  26   12.46    5.18
  -9   1  26   84.85   12.61
  -8   1  26   35.02    8.46
  -7   1  26    3.00    4.65
  -6   1  26   33.11    8.35
  -5   1  26   12.86    5.85
  -4   1  26    2.54    5.58
  -3   1  26   20.59    8.27
  -2   1  26   30.76    9.25
  -1   1  26    2.56    6.46
   0   1  26   -2.99    6.44
   1   1  26   12.73    7.38
   2   1  26   -7.59    5.71
   3   1  26    8.78    8.90
 -13   2  26   16.89    5.70
 -12   2  26    9.24    4.30
 -11   2  26    2.16    3.24
 -10   2  26   74.65   11.96
  -9   2  26  103.20   13.89
  -8   2  26    0.10    3.32
  -7   2  26    0.35    3.83
  -6   2  26    2.48    4.08
  -5   2  26   -0.98    4.58
  -4   2  26   -1.98    5.25
  -3   2  26    7.24    6.12
  -2   2  26   37.17   10.21
  -1   2  26   16.03    8.31
   0   2  26   -3.72    4.87
   1   2  26    2.32    6.68
   2   2  26   -3.17    6.14
 -14   3  26   43.73    8.98
 -13   3  26    1.88    3.66
 -12   3  26   16.68    5.80
 -11   3  26   -0.60    3.39
 -10   3  26   37.34    8.61
  -9   3  26    8.47    4.37
  -8   3  26   -0.32    3.45
  -7   3  26   -0.73    2.58
  -6   3  26    8.75    6.24
  -5   3  26   -1.57    5.23
  -4   3  26   -4.94    4.47
  -3   3  26   33.46    9.49
  -2   3  26   22.00    8.36
  -1   3  26   21.84    9.06
   0   3  26   -4.02    5.97
   1   3  26    0.52    6.68
 -15   4  26   58.54    9.82
 -14   4  26   21.49    5.61
 -13   4  26    4.09    4.38
 -12   4  26   24.35    6.71
 -11   4  26    3.80    4.26
 -10   4  26   20.11    6.18
  -9   4  26    6.70    4.28
  -8   4  26    3.11    3.60
  -7   4  26    1.06    3.67
  -6   4  26    6.71    6.47
  -5   4  26   -4.47    4.29
  -4   4  26   -0.07    4.70
  -3   4  26   -3.73    4.80
  -2   4  26   -5.35    4.48
  -1   4  26   13.30    7.55
   0   4  26    4.38    6.86
   1   4  26    4.46    7.54
 -14   5  26   -4.15    3.45
 -13   5  26    2.07    3.97
 -12   5  26   24.24    7.35
 -11   5  26    8.98    5.43
 -10   5  26    7.67    4.11
  -9   5  26    6.56    3.92
  -8   5  26    2.71    3.67
  -7   5  26   -3.67    4.49
  -6   5  26    0.42    4.69
  -5   5  26    1.75    4.92
  -4   5  26   -1.49    3.61
  -3   5  26   -5.28    4.82
  -2   5  26    4.61    6.36
  -1   5  26   22.14    9.34
   0   5  26    1.39    7.69
 -13   6  26   -1.71    3.45
 -12   6  26   12.51    5.48
 -11   6  26    0.33    4.03
 -10   6  26   -0.15    3.68
  -9   6  26    1.04    3.25
  -8   6  26   -2.41    3.53
  -7   6  26   -1.15    3.26
  -6   6  26   -0.73    3.00
  -5   6  26   -8.01    2.68
  -4   6  26    1.71    4.91
  -3   6  26    8.19    7.51
  -2   6  26   10.67    8.11
  -1   6  26    8.79    8.38
 -12   7  26    1.57    3.83
 -11   7  26    3.26    3.39
 -10   7  26    1.28    2.94
  -9   7  26    1.82    4.76
  -8   7  26   -4.19    3.47
  -7   7  26   -0.57    4.03
  -6   7  26   -1.23    3.85
  -5   7  26   -4.63    3.70
  -4   7  26    0.15    5.86
  -3   7  26   20.56    8.85
  -9   8  26    1.43    4.56
  -8   8  26   -4.37    3.98
  -7   8  26   -3.82    4.17
  -6   8  26   -2.69    4.07
  -5   8  26   -3.50    5.43
  -1 -12  27    7.85    5.41
   0 -12  27   14.91    7.63
  -5 -11  27    1.01    4.34
  -4 -11  27   26.67    6.77
  -2 -11  27   -0.83    5.39
  -1 -11  27   15.57    7.09
   0 -11  27   15.49    7.38
   1 -11  27    5.04    5.84
  -6 -10  27    2.38    4.20
  -5 -10  27   12.15    4.83
  -4 -10  27   11.90    4.17
  -3 -10  27    2.89    2.93
  -3 -10  27    0.48    5.76
  -2 -10  27    3.04    6.08
  -1 -10  27    6.93    6.77
   0 -10  27    1.39    6.47
   1 -10  27    4.32    6.40
   2 -10  27    8.22    6.42
  -7  -9  27    8.30    4.90
  -6  -9  27    7.96    4.38
  -5  -9  27   31.34    6.38
  -4  -9  27   11.01    4.19
  -3  -9  27    0.35    2.86
  -3  -9  27   -2.31    6.30
  -2  -9  27   -1.48    5.40
  -1  -9  27   -3.11    5.95
   0  -9  27   -1.65    5.74
   1  -9  27    9.53    7.45
   2  -9  27   -4.32    5.74
  -7  -8  27   -0.88    3.09
  -6  -8  27   -1.74    2.75
  -5  -8  27    5.37    3.31
  -4  -8  27   26.95    5.48
  -4  -8  27   18.25    8.19
  -3  -8  27   15.05    7.28
  -3  -8  27   11.33    3.72
  -2  -8  27   -1.30    5.93
  -1  -8  27    7.17    7.03
   0  -8  27   12.03    7.51
   1  -8  27   14.02    7.98
   2  -8  27    2.22    6.26
  -8  -7  27    0.51    3.13
  -7  -7  27    8.21    3.69
  -6  -7  27   -2.88    2.64
  -5  -7  27   -2.31    2.21
  -5  -7  27   -3.40    5.42
  -4  -7  27   14.16    7.38
  -4  -7  27   21.58    5.21
  -3  -7  27    3.51    6.85
  -3  -7  27   15.34    4.27
  -2  -7  27    2.68    5.65
  -1  -7  27   10.96    7.19
   0  -7  27   10.80    7.02
   1  -7  27   25.18   10.30
   2  -7  27    3.74    6.64
  -9  -6  27   -4.09    2.38
  -8  -6  27   -3.61    2.22
  -7  -6  27   53.16    8.11
  -6  -6  27    3.10    2.98
  -6  -6  27    7.03    6.23
  -5  -6  27    0.63    2.55
  -5  -6  27   -5.82    5.17
  -4  -6  27    9.89    3.77
  -4  -6  27    3.92    6.49
  -3  -6  27   28.37    5.38
  -3  -6  27   27.02    8.79
  -2  -6  27    4.02    6.60
  -1  -6  27    0.23    5.63
   0  -6  27   44.36   11.20
   1  -6  27   67.79   13.40
   2  -6  27    8.52    6.87
   3  -6  27   -3.45    4.54
 -10  -5  27    0.44    2.84
  -9  -5  27    0.50    2.32
  -8  -5  27   -2.70    2.53
  -7  -5  27   14.01    4.32
  -7  -5  27    4.16    5.93
  -6  -5  27    9.20    3.76
  -6  -5  27    3.93    6.10
  -5  -5  27    4.38    2.89
  -5  -5  27    1.57    6.11
  -4  -5  27   60.30   12.20
  -3  -5  27   15.26    7.63
  -2  -5  27    0.13    6.27
  -1  -5  27    0.41    6.62
   0  -5  27   30.15    9.55
   1  -5  27    6.19    7.06
   2  -5  27    0.09    4.68
   3  -5  27    0.92    5.33
 -10  -4  27    1.59    2.82
  -9  -4  27    1.62    2.21
  -8  -4  27    3.83    3.28
  -8  -4  27   -1.10    5.33
  -7  -4  27   23.80    8.57
  -6  -4  27   -5.81    4.48
  -5  -4  27   35.32    9.61
  -4  -4  27   55.68   11.77
  -3  -4  27   15.39    7.68
  -2  -4  27    0.09    5.42
  -1  -4  27   43.68   11.60
   0  -4  27   18.17    8.50
   1  -4  27    2.82    4.73
   2  -4  27   -0.23    4.60
   3  -4  27    3.30    6.04
 -11  -3  27    2.07    2.88
 -10  -3  27   -1.24    2.23
  -9  -3  27   32.94    9.15
  -8  -3  27   17.33    7.86
  -7  -3  27   65.82   12.20
  -6  -3  27   13.25    7.48
  -5  -3  27   54.76   11.55
  -4  -3  27    8.23    6.97
  -3  -3  27    6.79    6.43
  -2  -3  27   34.18   10.09
  -1  -3  27   66.97   13.12
   0  -3  27    2.02    5.17
   1  -3  27    0.73    4.30
   2  -3  27   -4.93    4.45
 -10  -2  27   52.12   10.58
  -9  -2  27   22.98    8.08
  -8  -2  27   67.00   12.23
  -7  -2  27    1.72    5.08
  -6  -2  27   38.87    9.73
  -5  -2  27    9.23    6.31
  -4  -2  27    1.73    5.47
  -3  -2  27   37.60   10.02
  -2  -2  27   61.09   12.18
  -1  -2  27   -2.53    5.26
   0  -2  27   -0.15    4.60
   1  -2  27   -0.49    4.13
   2  -2  27   -0.87    4.79
 -11  -1  27   39.62    9.03
 -10  -1  27   70.87   12.30
  -9  -1  27   31.97    8.55
  -8  -1  27   -1.47    4.39
  -7  -1  27   22.46    7.56
  -6  -1  27   44.42   10.29
  -5  -1  27    2.00    5.78
  -4  -1  27    6.11    5.69
  -3  -1  27    1.69    5.54
  -2  -1  27   -2.05    5.84
  -1  -1  27   -3.93    4.74
   0  -1  27   -3.36    3.60
   1  -1  27    0.10    3.99
   2  -1  27   -5.81    4.69
 -12   0  27    0.46    3.34
 -11   0  27   29.76    8.01
 -10   0  27   23.61    7.37
  -9   0  27    9.87    5.52
  -8   0  27   21.50    6.99
  -7   0  27    1.77    4.92
  -6   0  27   28.36    8.69
  -5   0  27    3.51    5.19
  -4   0  27    4.16    5.31
  -3   0  27    1.48    5.97
  -2   0  27   -5.56    5.50
  -1   0  27   -5.21    3.77
   0   0  27   -3.20    4.29
   1   0  27   -0.29    5.37
   2   0  27   -8.91    6.19
 -13   1  27    1.47    3.31
 -12   1  27    2.03    3.82
 -11   1  27   -0.18    3.35
 -10   1  27   -4.11    2.82
  -9   1  27   16.92    6.28
  -8   1  27   10.21    5.26
  -7   1  27   14.61    5.75
  -6   1  27    2.95    4.37
  -5   1  27   15.46    6.47
  -4   1  27    3.16    5.76
  -3   1  27   -4.96    5.01
  -2   1  27   -4.13    4.46
  -1   1  27   -2.07    4.06
   0   1  27    1.90    4.56
   1   1  27   25.49   11.01
 -13   2  27   -7.91    3.05
 -12   2  27   15.65    6.07
 -11   2  27   -4.44    2.98
 -10   2  27   10.22    4.85
  -9   2  27   30.77    7.95
  -8   2  27   12.04    5.68
  -7   2  27    5.28    4.33
  -6   2  27   10.02    5.27
  -5   2  27   -4.05    5.06
  -4   2  27   -4.13    4.97
  -3   2  27   -3.87    4.39
  -2   2  27   -4.63    3.19
  -1   2  27   -3.52    4.06
   0   2  27   23.32    9.89
 -14   3  27   11.69    4.47
 -13   3  27   -1.73    3.46
 -12   3  27   35.68    8.60
 -11   3  27   -1.42    3.44
 -10   3  27    1.41    3.50
  -9   3  27   13.40    5.16
  -8   3  27   -1.78    3.07
  -7   3  27    8.07    4.37
  -6   3  27    0.87    4.62
  -5   3  27    1.16    4.48
  -4   3  27   -6.25    3.68
  -3   3  27   -1.94    3.33
  -2   3  27   -0.69    4.40
  -1   3  27   10.70    8.19
   0   3  27    8.05    8.17
 -13   4  27    0.32    3.56
 -12   4  27    5.61    4.80
 -11   4  27   -2.85    3.07
 -10   4  27   -2.48    3.15
  -9   4  27   -4.76    3.00
  -8   4  27   -5.71    2.73
  -7   4  27    2.13    3.99
  -6   4  27   -3.75    2.84
  -5   4  27   -3.46    3.41
  -4   4  27   -0.75    3.72
  -3   4  27   -3.41    3.79
  -2   4  27   36.10   10.53
  -1   4  27   26.14   10.62
 -12   5  27   17.56    6.63
 -11   5  27   -2.70    3.68
 -10   5  27    2.23    4.12
  -9   5  27   -3.45    2.78
  -8   5  27    5.44    4.66
  -7   5  27   -3.13    3.65
  -6   5  27   -6.50    3.60
  -5   5  27   -4.55    3.76
  -4   5  27   -1.24    4.34
  -3   5  27   19.74    8.43
  -2   5  27   29.55   10.30
 -11   6  27   -2.74    2.80
 -10   6  27   -0.18    3.33
  -9   6  27   -0.01    3.31
  -8   6  27   -2.68    4.02
  -7   6  27   -2.14    4.01
  -6   6  27   -5.92    3.85
  -5   6  27   -2.23    4.17
  -4   6  27    7.29    7.24
  -2 -11  28    6.62    4.93
  -1 -11  28    3.99    5.35
  -5 -10  28    9.30    5.07
  -4 -10  28   -0.16    3.37
  -3 -10  28    5.86    7.04
  -2 -10  28    8.15    7.24
  -1 -10  28    8.16    6.83
   0 -10  28   -2.08    5.15
  -6  -9  28    4.78    4.43
  -5  -9  28   21.37    5.92
  -4  -9  28   49.71   11.34
  -4  -9  28   33.83    6.43
  -3  -9  28   25.47    9.33
  -2  -9  28   -1.68    6.24
  -1  -9  28   32.28   10.48
   0  -9  28   53.40   12.15
  -7  -8  28   10.85    5.47
  -6  -8  28   10.08    4.97
  -5  -8  28    7.15    3.81
  -4  -8  28    2.85    2.95
  -4  -8  28    3.66    6.84
  -3  -8  28    8.60    7.53
  -2  -8  28  -11.64    4.90
  -1  -8  28    9.02    7.91
   0  -8  28   76.89   14.77
   1  -8  28   32.16   10.41
  -7  -7  28   16.55    5.64
  -6  -7  28   11.93    4.29
  -5  -7  28    8.43    6.92
  -5  -7  28    9.25    3.96
  -4  -7  28    4.12    3.64
  -4  -7  28    2.57    6.45
  -3  -7  28    4.86    3.36
  -3  -7  28    7.53    7.52
  -2  -7  28   14.07    8.20
  -1  -7  28    3.42    6.03
   0  -7  28   79.75   14.70
   1  -7  28   11.32    7.69
  -8  -6  28    0.40    3.60
  -7  -6  28    2.85    3.56
  -6  -6  28   16.55    8.53
  -6  -6  28   16.21    4.89
  -5  -6  28   11.37    3.56
  -5  -6  28   -0.13    6.03
  -4  -6  28   33.52    6.47
  -4  -6  28   23.35    9.54
  -3  -6  28    4.38    2.45
  -3  -6  28   -3.58    5.88
  -2  -6  28    8.35    7.04
  -1  -6  28    8.94    7.34
   0  -6  28   22.50    9.30
   1  -6  28   -4.81    5.93
  -9  -5  28   -1.30    2.78
  -8  -5  28   -0.60    2.76
  -7  -5  28   18.45    5.24
  -7  -5  28   32.68   10.22
  -6  -5  28    2.64    6.76
  -6  -5  28    4.56    3.09
  -5  -5  28   17.10    4.65
  -5  -5  28   27.01    8.92
  -4  -5  28    0.13    5.62
  -3  -5  28    2.75    6.04
  -2  -5  28    3.56    6.01
  -1  -5  28   18.63    8.67
   0  -5  28  -11.51    4.31
   1  -5  28   -0.85    6.20
  -9  -4  28    0.48    2.57
  -8  -4  28   11.32    7.33
  -8  -4  28    1.37    2.50
  -7  -4  28   -5.95    5.17
  -6  -4  28   45.55   11.68
  -5  -4  28   12.33    7.23
  -4  -4  28    6.24    6.21
  -3  -4  28   -7.86    4.59
  -2  -4  28   21.78    9.23
  -1  -4  28    4.64    6.86
   0  -4  28   -2.00    4.95
   1  -4  28   -3.73    4.28
 -10  -3  28   -0.56    2.65
  -9  -3  28   18.79    7.81
  -8  -3  28    7.29    7.04
  -7  -3  28   11.64    8.20
  -6  -3  28    5.52    6.48
  -5  -3  28    4.74    6.64
  -4  -3  28   17.83    7.94
  -3  -3  28   14.49    7.45
  -2  -3  28   37.29   10.42
  -1  -3  28    6.06    6.90
   0  -3  28   -4.11    4.46
   1  -3  28   -5.95    4.62
 -10  -2  28   34.20    9.62
  -9  -2  28   14.68    6.74
  -8  -2  28   18.90    7.64
  -7  -2  28   20.67    8.71
  -6  -2  28   11.73    6.88
  -5  -2  28   11.57    6.86
  -4  -2  28   17.12    8.04
  -3  -2  28    5.52    5.70
  -2  -2  28   -4.52    5.97
  -1  -2  28   -2.63    4.13
   0  -2  28    3.14    5.26
 -11  -1  28   69.64   12.05
 -10  -1  28   30.16    7.80
  -9  -1  28   -6.91    3.67
  -8  -1  28   23.30    8.09
  -7  -1  28    2.96    4.56
  -6  -1  28    9.51    6.45
  -5  -1  28   17.83    7.26
  -4  -1  28    7.26    5.79
  -3  -1  28   -1.89    5.68
  -2  -1  28   -5.27    3.83
  -1  -1  28    2.46    5.09
   0  -1  28   -2.31    5.07
 -12   0  28   36.59    9.01
 -11   0  28   20.98    6.55
 -10   0  28    7.21    5.04
  -9   0  28   29.14    8.33
  -8   0  28    1.57    4.38
  -7   0  28    9.95    6.01
  -6   0  28    3.66    4.46
  -5   0  28    8.47    5.64
  -4   0  28    2.50    5.25
  -3   0  28   -2.12    3.83
  -2   0  28   -1.25    4.71
  -1   0  28   -1.03    4.65
   0   0  28   -4.79    4.68
 -13   1  28   13.29    4.46
 -12   1  28    3.27    4.01
 -11   1  28    5.56    4.86
 -10   1  28   21.69    6.42
  -9   1  28   39.62    9.52
  -8   1  28    3.28    4.22
  -7   1  28    1.48    4.04
  -6   1  28   -2.04    3.88
  -5   1  28    0.45    4.27
  -4   1  28   -7.85    3.19
  -3   1  28   -1.37    4.56
  -2   1  28   -5.03    3.93
  -1   1  28   -5.43    3.86
 -13   2  28   20.88    6.67
 -12   2  28    3.02    3.51
 -11   2  28   -1.33    3.94
 -10   2  28   11.24    5.72
  -9   2  28    6.64    4.64
  -8   2  28    0.42    3.92
  -7   2  28    0.37    3.87
  -6   2  28    3.36    5.32
  -5   2  28   -2.08    4.27
  -4   2  28   -6.66    3.87
  -3   2  28   -4.45    3.79
  -2   2  28   -4.03    4.11
 -12   3  28   18.91    5.63
 -11   3  28    3.35    4.07
 -10   3  28    1.63    3.44
  -9   3  28    1.45    3.87
  -8   3  28    2.49    4.25
  -7   3  28    4.39    4.59
  -6   3  28   -3.74    3.78
  -5   3  28   -4.70    3.68
  -4   3  28   -4.08    3.79
  -3   3  28   -3.93    4.02
 -11   4  28   -0.94    2.95
 -10   4  28   13.13    5.54
  -9   4  28   -2.45    3.08
  -8   4  28   19.61    6.99
  -7   4  28   -3.98    4.24
  -6   4  28   -3.77    4.08
  -5   4  28   -8.25    3.69
  -4   4  28   -5.08    4.53
  -9   5  28   -2.01    3.09
  -8   5  28   -2.44    4.48
  -7   5  28   -2.56    4.64
  -6   5  28   -1.42    4.29
  -3 -10  29   13.34    5.08
  -5  -9  29   -3.78    3.70
  -4  -9  29    2.70    4.33
  -4  -9  29    6.25    5.72
  -3  -9  29    4.13    5.75
  -2  -9  29   12.41    7.89
  -6  -8  29   -4.84    3.80
  -5  -8  29   15.42    7.99
  -5  -8  29    4.39    4.61
  -4  -8  29    0.63    2.58
  -4  -8  29   -1.00    6.23
  -3  -8  29   29.51   10.09
  -2  -8  29   19.48    7.88
  -1  -8  29   33.56   10.29
  -7  -7  29    6.82    5.17
  -6  -7  29   24.78    6.82
  -5  -7  29    3.83    7.04
  -5  -7  29   16.84    5.05
  -4  -7  29   10.81    7.67
  -4  -7  29    3.45    3.55
  -3  -7  29   19.57    9.08
  -2  -7  29   37.71   10.56
  -1  -7  29   19.89    7.98
  -7  -6  29   24.11    6.50
  -6  -6  29   21.54    9.57
  -6  -6  29   30.82    6.71
  -5  -6  29   -0.61    2.93
  -5  -6  29    7.03    7.41
  -4  -6  29    5.53    3.63
  -4  -6  29   14.35    8.92
  -3  -6  29   27.35    9.72
  -2  -6  29   18.26    8.30
  -1  -6  29    2.33    6.13
  -8  -5  29    1.28    3.31
  -7  -5  29   28.72    6.49
  -7  -5  29   32.64   10.38
  -6  -5  29   31.41    6.63
  -6  -5  29    4.87    7.50
  -5  -5  29    8.93    8.13
  -5  -5  29   20.97    5.44
  -4  -5  29    1.79    6.81
  -3  -5  29   -3.54    6.06
  -2  -5  29   18.80    8.76
  -1  -5  29    7.57    6.27
  -8  -4  29   15.70    8.31
  -7  -4  29  104.76   16.12
  -6  -4  29    8.07    6.97
  -5  -4  29   24.15    9.02
  -4  -4  29    9.08    7.07
  -3  -4  29    4.39    6.86
  -2  -4  29   -1.66    5.18
  -1  -4  29    9.60    7.22
  -9  -3  29   17.56    7.92
  -8  -3  29   72.30   13.25
  -7  -3  29   63.73   12.31
  -6  -3  29    6.04    6.82
  -5  -3  29   49.82   11.95
  -4  -3  29   23.33    9.06
  -3  -3  29   -2.67    6.00
  -2  -3  29   20.47    8.98
  -1  -3  29   -1.69    5.37
 -10  -2  29    5.23    5.40
  -9  -2  29    5.82    5.64
  -8  -2  29   24.66    8.66
  -7  -2  29    0.29    5.61
  -6  -2  29    4.03    6.46
  -5  -2  29   21.11    9.34
  -4  -2  29   16.13    7.88
  -3  -2  29    7.12    6.55
  -2  -2  29    6.59    6.07
 -11  -1  29    3.11    4.77
 -10  -1  29    6.76    6.30
  -9  -1  29    9.27    6.47
  -8  -1  29    3.88    5.95
  -7  -1  29    0.67    5.06
  -6  -1  29   16.03    7.69
  -5  -1  29   -1.87    6.24
  -4  -1  29    7.12    6.44
  -3  -1  29   -0.61    5.49
  -2  -1  29   -4.39    4.09
 -12   0  29   16.25    4.64
 -11   0  29   23.00    7.00
 -10   0  29    8.30    5.49
  -9   0  29    3.15    5.31
  -8   0  29    6.76    5.56
  -7   0  29   11.52    6.82
  -6   0  29   -0.74    5.75
  -5   0  29   10.03    6.53
  -4   0  29    8.18    6.61
  -3   0  29   -3.87    4.62
 -12   1  29   30.90    7.86
 -11   1  29    1.40    3.59
 -10   1  29    2.44    4.01
  -9   1  29    3.25    4.47
  -8   1  29    3.75    4.65
  -7   1  29    2.02    4.69
  -6   1  29    5.54    6.05
  -5   1  29    3.72    4.98
  -4   1  29   -4.88    4.15
  -3   1  29   -1.72    5.04
 -11   2  29    7.19    4.40
 -10   2  29   10.21    4.78
  -9   2  29    8.88    4.79
  -8   2  29    0.20    4.08
  -7   2  29    3.61    5.05
  -6   2  29   -4.57    4.14
  -5   2  29    0.02    4.76
  -9   3  29   36.07    8.59
  -8   3  29   25.12    7.47
  -7   3  29   10.17    5.55
  -4  -8  30   22.93    8.63
  -5  -7  30   22.94    7.96
  -5  -7  30   10.37    5.22
  -4  -7  30   18.51    8.52
  -6  -6  30    5.74    7.06
  -6  -6  30   -0.46    3.67
  -5  -6  30   36.13   10.23
  -5  -6  30   29.36    6.65
  -4  -6  30   13.81    7.43
  -4  -6  30   11.66    4.11
  -7  -5  30    6.81    7.55
  -7  -5  30   16.96    5.72
  -6  -5  30   16.65    7.75
  -6  -5  30   13.56    5.17
  -5  -5  30   14.75    8.08
  -5  -5  30    7.48    4.41
  -4  -5  30   -0.14    6.00
  -8  -4  30   14.90    7.79
  -7  -4  30    8.16    6.12
  -6  -4  30    2.14    6.10
  -5  -4  30   -1.17    5.74
  -4  -4  30   -3.83    4.90
  -9  -3  30    9.34    6.87
  -8  -3  30  -11.24    4.63
  -7  -3  30   -5.29    5.18
  -6  -3  30    1.42    6.31
  -5  -3  30    2.65    5.62
  -4  -3  30    3.49    6.51
 -10  -2  30    2.24    5.31
  -9  -2  30   20.28    7.97
  -8  -2  30    5.51    5.78
  -7  -2  30    5.24    6.44
  -6  -2  30   -2.22    5.77
  -5  -2  30  -11.11    4.46
 -10  -1  30   14.51    7.11
  -9  -1  30   19.23    7.62
  -8  -1  30    0.42    5.13
  -7  -1  30   -4.57    5.89
  -6  -1  30    0.45    5.83
  -5  -1  30   14.77    8.34
  -9   0  30    3.91    4.70
  -8   0  30   14.16    6.39
  -7   0  30    6.59    5.55
  -5  -5  31   -3.55    3.50
   0   0   0    0.00    0.00
;
_shelx_hkl_checksum              58945
loop_
_space_group_symop_operation_xyz
'x, y, z'
'-x, -y, -z'
loop_
_atom_site_label
_atom_site_type_symbol
_atom_site_fract_x
_atom_site_fract_y
_atom_site_fract_z
_atom_site_U_iso_or_equiv
_atom_site_adp_type
_atom_site_occupancy
_atom_site_site_symmetry_order
_atom_site_calc_flag
_atom_site_refinement_flags_posn
_atom_site_refinement_flags_adp
_atom_site_refinement_flags_occupancy
_atom_site_disorder_assembly
_atom_site_disorder_group
Mn1 Mn 0.15966(5) 0.14416(5) 0.82129(3) 0.0221(2) Uani 1 1 d . . . . .
Mn2 Mn 0.11512(5) 0.03389(4) 0.65458(3) 0.0194(2) Uani 1 1 d . . . . .
O1 O 0.16459(19) 0.07582(18) 0.74607(12) 0.0103(6) Uani 1 1 d . . . . .
N1 N 0.0044(3) 0.1022(3) 0.80201(17) 0.0227(8) Uani 1 1 d . . . . .
N2 N 0.1761(3) 0.2677(3) 0.80192(18) 0.0257(9) Uani 1 1 d . . . . .
N3 N 0.3173(3) 0.2028(3) 0.86337(18) 0.0256(9) Uani 1 1 d . . . . .
N4 N 0.1421(3) 0.0329(3) 0.85717(18) 0.0233(8) Uani 1 1 d . . . . .
N5 N 0.0411(3) -0.1071(2) 0.64514(17) 0.0213(8) Uani 1 1 d . . . . .
N6 N 0.2433(3) 0.0239(3) 0.64661(18) 0.0232(9) Uani 1 1 d . . . . .
N7 N 0.1792(3) 0.1684(3) 0.64590(18) 0.0237(9) Uani 1 1 d . . . . .
N8 N -0.0245(3) 0.0350(2) 0.64385(17) 0.0208(8) Uani 1 1 d . . . . .
C1 C -0.0716(3) 0.0125(3) 0.7974(2) 0.0210(10) Uani 1 1 d . . . . .
C2 C -0.1729(3) 0.0130(3) 0.7903(2) 0.0237(10) Uani 1 1 d . . . . .
C3 C -0.1579(4) 0.1038(3) 0.7881(2) 0.0258(10) Uani 1 1 d . . . . .
C4 C -0.0481(4) 0.1578(3) 0.7927(2) 0.0247(10) Uani 1 1 d . . . . .
C5 C -0.0051(4) 0.2486(3) 0.7845(2) 0.0278(11) Uani 1 1 d . . . . .
H5A H -0.0503 0.2786 0.7763 0.033 Uiso 1 1 calc R U . . .
C6 C 0.0989(4) 0.2996(3) 0.7872(2) 0.0265(11) Uani 1 1 d . . . . .
C7 C 0.1430(4) 0.3924(3) 0.7758(2) 0.0300(11) Uani 1 1 d . . . . .
C8 C 0.2460(4) 0.4156(3) 0.7820(2) 0.0312(12) Uani 1 1 d . . . . .
C9 C 0.2674(4) 0.3392(3) 0.7993(2) 0.0273(11) Uani 1 1 d . . . . .
C10 C 0.3673(4) 0.3409(3) 0.8201(2) 0.0316(12) Uani 1 1 d . . . . .
H10A H 0.4232 0.3879 0.8114 0.038 Uiso 1 1 calc R U . . .
C11 C 0.3919(4) 0.2808(3) 0.8517(2) 0.0298(11) Uani 1 1 d . . . . .
C12 C 0.4979(4) 0.2933(4) 0.8843(3) 0.0362(13) Uani 1 1 d . . . . .
C13 C 0.4889(4) 0.2274(4) 0.9175(2) 0.0331(12) Uani 1 1 d . . . . .
C14 C 0.3754(4) 0.1697(3) 0.9033(2) 0.0281(11) Uani 1 1 d . . . . .
C15 C 0.3307(4) 0.0859(3) 0.9198(2) 0.0292(11) Uani 1 1 d . . . . .
H15A H 0.3774 0.0722 0.9502 0.035 Uiso 1 1 calc R U . . .
C16 C 0.2233(4) 0.0195(3) 0.8956(2) 0.0255(10) Uani 1 1 d . . . . .
C17 C 0.1809(4) -0.0765(3) 0.9013(2) 0.0250(10) Uani 1 1 d . . . . .
C18 C 0.0765(4) -0.1235(3) 0.8639(2) 0.0243(10) Uani 1 1 d . . . . .
C19 C 0.0512(3) -0.0544(3) 0.8361(2) 0.0220(10) Uani 1 1 d . . . . .
C20 C -0.0504(3) -0.0661(3) 0.8012(2) 0.0234(10) Uani 1 1 d . . . . .
C21 C -0.2683(4) -0.0613(4) 0.7987(2) 0.0296(11) Uani 1 1 d . . . . .
H21B H -0.2920 -0.1236 0.7707 0.035 Uiso 1 1 calc R U . . .
H21C H -0.3277 -0.0439 0.7876 0.035 Uiso 1 1 calc R U . . .
C22 C -0.2436(4) -0.0709(4) 0.8644(3) 0.0394(13) Uani 1 1 d . . . . .
H22B H -0.3092 -0.1153 0.8689 0.059 Uiso 1 1 calc R U . . .
H22C H -0.2149 -0.0083 0.8925 0.059 Uiso 1 1 calc R U . . .
H22D H -0.1907 -0.0952 0.8740 0.059 Uiso 1 1 calc R U . . .
C23 C -0.2339(4) 0.1457(3) 0.7846(2) 0.0305(11) Uani 1 1 d . . . . .
H23A H -0.3081 0.0938 0.7675 0.037 Uiso 1 1 calc R U . . .
H23B H -0.2260 0.1881 0.7564 0.037 Uiso 1 1 calc R U . . .
C24 C -0.2143(5) 0.2025(4) 0.8470(3) 0.0430(14) Uani 1 1 d . . . . .
H24A H -0.2630 0.2314 0.8424 0.064 Uiso 1 1 calc R U . . .
H24B H -0.1402 0.2528 0.8647 0.064 Uiso 1 1 calc R U . . .
H24C H -0.2270 0.1598 0.8742 0.064 Uiso 1 1 calc R U . . .
C25 C 0.0849(5) 0.4507(4) 0.7638(3) 0.0413(14) Uani 1 1 d . . . . .
H25A H 0.0119 0.4100 0.7334 0.050 Uiso 1 1 calc R U . . .
H25B H 0.1223 0.5020 0.7460 0.050 Uiso 1 1 calc R U . . .
C26 C 0.0774(5) 0.4956(4) 0.8225(3) 0.0496(16) Uani 1 1 d . . . . .
H26A H 0.0355 0.5306 0.8125 0.074 Uiso 1 1 calc R U . . .
H26B H 0.1495 0.5396 0.8516 0.074 Uiso 1 1 calc R U . . .
H26C H 0.0426 0.4452 0.8410 0.074 Uiso 1 1 calc R U . . .
C27 C 0.3284(4) 0.5081(3) 0.7781(3) 0.0360(12) Uani 1 1 d . . . . .
H27A H 0.2948 0.5286 0.7432 0.043 Uiso 1 1 calc R U . . .
H27B H 0.3864 0.4976 0.7704 0.043 Uiso 1 1 calc R U . . .
C28 C 0.3764(5) 0.5876(4) 0.8371(3) 0.0568(18) Uani 1 1 d . . . . .
H28A H 0.4264 0.6471 0.8319 0.085 Uiso 1 1 calc R U . . .
H28B H 0.4145 0.5697 0.8713 0.085 Uiso 1 1 calc R U . . .
H28C H 0.3190 0.5967 0.8458 0.085 Uiso 1 1 calc R U . . .
C29 C 0.5979(4) 0.3659(4) 0.8788(3) 0.0429(14) Uani 1 1 d . . . . .
H29A H 0.5989 0.4292 0.8845 0.051 Uiso 1 1 calc R U . . .
H29B H 0.6615 0.3709 0.9113 0.051 Uiso 1 1 calc R U . . .
C30 C 0.6022(5) 0.3379(6) 0.8182(4) 0.073(2) Uani 1 1 d . . . . .
H30A H 0.6717 0.3808 0.8172 0.110 Uiso 1 1 calc R U . . .
H30B H 0.5452 0.3422 0.7865 0.110 Uiso 1 1 calc R U . . .
H30C H 0.5925 0.2722 0.8107 0.110 Uiso 1 1 calc R U . . .
C31 C 0.5752(4) 0.2150(4) 0.9615(3) 0.0369(13) Uani 1 1 d . . . . .
H31A H 0.6393 0.2393 0.9501 0.044 Uiso 1 1 calc R U . . .
H31B H 0.5515 0.1462 0.9588 0.044 Uiso 1 1 calc R U . . .
C32 C 0.6049(5) 0.2674(5) 1.0275(3) 0.0570(18) Uani 1 1 d . . . . .
H32A H 0.6650 0.2607 1.0544 0.086 Uiso 1 1 calc R U . . .
H32B H 0.5434 0.2398 1.0402 0.086 Uiso 1 1 calc R U . . .
H32C H 0.6254 0.3351 1.0301 0.086 Uiso 1 1 calc R U . . .
C33 C 0.2441(4) -0.1155(4) 0.9432(2) 0.0311(11) Uani 1 1 d . . . . .
H33A H 0.3165 -0.0913 0.9412 0.037 Uiso 1 1 calc R U . . .
H33B H 0.2087 -0.1859 0.9288 0.037 Uiso 1 1 calc R U . . .
C34 C 0.2537(5) -0.0865(5) 1.0101(3) 0.0450(14) Uani 1 1 d . . . . .
H34A H 0.2957 -0.1126 1.0359 0.068 Uiso 1 1 calc R U . . .
H34B H 0.1822 -0.1119 1.0124 0.068 Uiso 1 1 calc R U . . .
H34C H 0.2894 -0.0168 1.0247 0.068 Uiso 1 1 calc R U . . .
C35 C 0.0032(4) -0.2262(3) 0.8581(2) 0.0315(12) Uani 1 1 d . . . . .
H35A H -0.0711 -0.2350 0.8468 0.038 Uiso 1 1 calc R U . . .
H35B H 0.0232 -0.2408 0.8983 0.038 Uiso 1 1 calc R U . . .
C36 C 0.0075(4) -0.2967(4) 0.8099(3) 0.0402(14) Uani 1 1 d . . . . .
H36A H -0.0451 -0.3617 0.8058 0.060 Uiso 1 1 calc R U . . .
H36B H 0.0792 -0.2926 0.8227 0.060 Uiso 1 1 calc R U . . .
H36C H -0.0089 -0.2806 0.7704 0.060 Uiso 1 1 calc R U . . .
C37 C -0.1373(3) -0.1652(3) 0.7632(2) 0.0255(10) Uani 1 1 d . . . . .
H37A H -0.1897 -0.1895 0.7835 0.031 Uiso 1 1 calc R U . . .
H37B H -0.1047 -0.2089 0.7614 0.031 Uiso 1 1 calc R U . . .
C101 C -0.0529(3) -0.1577(3) 0.6549(2) 0.0214(10) Uani 1 1 d . . . . .
C102 C -0.0766(3) -0.2580(3) 0.6448(2) 0.0228(10) Uani 1 1 d . . . . .
C103 C 0.0021(3) -0.2659(3) 0.6283(2) 0.0243(10) Uani 1 1 d . . . . .
C104 C 0.0764(3) -0.1716(3) 0.6307(2) 0.0205(10) Uani 1 1 d . . . . .
C105 C 0.1733(3) -0.1489(3) 0.6233(2) 0.0229(10) Uani 1 1 d . . . . .
H10C H 0.1862 -0.2007 0.6106 0.027 Uiso 1 1 calc R U . . .
C106 C 0.2528(3) -0.0585(3) 0.6327(2) 0.0248(10) Uani 1 1 d . . . . .
C107 C 0.3580(3) -0.0354(3) 0.6318(2) 0.0259(11) Uani 1 1 d . . . . .
C108 C 0.4129(4) 0.0613(3) 0.6467(2) 0.0274(11) Uani 1 1 d . . . . .
C109 C 0.3415(3) 0.0989(3) 0.6542(2) 0.0235(10) Uani 1 1 d . . . . .
C110 C 0.3613(3) 0.1927(3) 0.6610(2) 0.0259(11) Uani 1 1 d . . . . .
H11B H 0.4333 0.2394 0.6718 0.031 Uiso 1 1 calc R U . . .
C111 C 0.2843(3) 0.2243(3) 0.6533(2) 0.0249(10) Uani 1 1 d . . . . .
C112 C 0.2989(4) 0.3176(3) 0.6460(2) 0.0286(11) Uani 1 1 d . . . . .
C113 C 0.2021(4) 0.3178(3) 0.6336(2) 0.0256(11) Uani 1 1 d . . . . .
C114 C 0.1291(3) 0.2249(3) 0.6355(2) 0.0223(10) Uani 1 1 d . . . . .
C115 C 0.0238(3) 0.1968(3) 0.6293(2) 0.0211(10) Uani 1 1 d . . . . .
H11C H -0.0024 0.2421 0.6219 0.025 Uiso 1 1 calc R U . . .
C116 C -0.0475(3) 0.1097(3) 0.6327(2) 0.0216(10) Uani 1 1 d . . . . .
C117 C -0.1541(3) 0.0862(3) 0.6280(2) 0.0220(10) Uani 1 1 d . . . . .
C118 C -0.1963(3) -0.0023(3) 0.6393(2) 0.0218(10) Uani 1 1 d . . . . .
C119 C -0.1137(3) -0.0332(3) 0.6510(2) 0.0208(10) Uani 1 1 d . . . . .
C120 C -0.1199(3) -0.1187(3) 0.6650(2) 0.0209(10) Uani 1 1 d . . . . .
C121 C -0.1749(4) -0.3430(3) 0.6436(2) 0.0288(11) Uani 1 1 d . . . . .
H12B H -0.1933 -0.3273 0.6793 0.035 Uiso 1 1 calc R U . . .
H12C H -0.1588 -0.3977 0.6470 0.035 Uiso 1 1 calc R U . . .
C122 C -0.2706(4) -0.3715(3) 0.5847(2) 0.0357(13) Uani 1 1 d . . . . .
H12D H -0.3344 -0.4220 0.5874 0.054 Uiso 1 1 calc R U . . .
H12E H -0.2561 -0.3950 0.5497 0.054 Uiso 1 1 calc R U . . .
H12F H -0.2827 -0.3159 0.5792 0.054 Uiso 1 1 calc R U . . .
C123 C 0.0110(4) -0.3553(3) 0.6096(2) 0.0288(11) Uani 1 1 d . . . . .
H12G H 0.0475 -0.3471 0.5796 0.035 Uiso 1 1 calc R U . . .
H12H H -0.0617 -0.4090 0.5891 0.035 Uiso 1 1 calc R U . . .
C124 C 0.0727(5) -0.3805(4) 0.6639(3) 0.0423(14) Uani 1 1 d . . . . .
H12I H 0.0759 -0.4392 0.6491 0.063 Uiso 1 1 calc R U . . .
H12J H 0.0363 -0.3901 0.6933 0.063 Uiso 1 1 calc R U . . .
H12K H 0.1455 -0.3283 0.6838 0.063 Uiso 1 1 calc R U . . .
C125 C 0.3975(4) -0.1065(4) 0.6195(2) 0.0297(11) Uani 1 1 d . . . . .
H12L H 0.4550 -0.0785 0.6030 0.036 Uiso 1 1 calc R U . . .
H12M H 0.3383 -0.1636 0.5878 0.036 Uiso 1 1 calc R U . . .
C126 C 0.4402(4) -0.1366(4) 0.6763(2) 0.0361(12) Uani 1 1 d . . . . .
H12N H 0.4677 -0.1810 0.6660 0.054 Uiso 1 1 calc R U . . .
H12O H 0.3825 -0.1681 0.6913 0.054 Uiso 1 1 calc R U . . .
H12P H 0.4980 -0.0802 0.7081 0.054 Uiso 1 1 calc R U . . .
C127 C 0.5256(3) 0.1219(3) 0.6497(2) 0.0300(12) Uani 1 1 d . . . . .
H12Q H 0.5675 0.0861 0.6594 0.036 Uiso 1 1 calc R U . . .
H12R H 0.5596 0.1805 0.6833 0.036 Uiso 1 1 calc R U . . .
C128 C 0.5290(4) 0.1498(4) 0.5902(3) 0.0371(13) Uani 1 1 d . . . . .
H12S H 0.6024 0.1950 0.5962 0.056 Uiso 1 1 calc R U . . .
H12T H 0.4820 0.1797 0.5782 0.056 Uiso 1 1 calc R U . . .
H12U H 0.5050 0.0927 0.5579 0.056 Uiso 1 1 calc R U . . .
C129 C 0.4034(4) 0.3956(3) 0.6494(3) 0.0346(13) Uani 1 1 d . . . . .
H12V H 0.4626 0.3933 0.6814 0.041 Uiso 1 1 calc R U . . .
H12W H 0.4050 0.4581 0.6616 0.041 Uiso 1 1 calc R U . . .
C130 C 0.4214(5) 0.3875(4) 0.5889(3) 0.0482(15) Uani 1 1 d . . . . .
H13A H 0.4882 0.4419 0.5929 0.072 Uiso 1 1 calc R U . . .
H13B H 0.3617 0.3872 0.5567 0.072 Uiso 1 1 calc R U . . .
H13C H 0.4260 0.3281 0.5782 0.072 Uiso 1 1 calc R U . . .
C131 C 0.1715(4) 0.3938(3) 0.6184(3) 0.0328(12) Uani 1 1 d . . . . .
H13D H 0.2374 0.4547 0.6297 0.039 Uiso 1 1 calc R U . . .
H13E H 0.1303 0.4021 0.6434 0.039 Uiso 1 1 calc R U . . .
C132 C 0.1052(4) 0.3734(4) 0.5510(3) 0.0439(14) Uani 1 1 d . . . . .
H13F H 0.0867 0.4254 0.5445 0.066 Uiso 1 1 calc R U . . .
H13G H 0.0397 0.3133 0.5393 0.066 Uiso 1 1 calc R U . . .
H13H H 0.1467 0.3682 0.5259 0.066 Uiso 1 1 calc R U . . .
C133 C -0.2084(3) 0.1473(3) 0.6109(2) 0.0259(11) Uani 1 1 d . . . . .
H13I H -0.1559 0.2152 0.6297 0.031 Uiso 1 1 calc R U . . .
H13J H -0.2659 0.1328 0.6279 0.031 Uiso 1 1 calc R U . . .
C134 C -0.2562(4) 0.1319(4) 0.5418(2) 0.0378(13) Uani 1 1 d . . . . .
H13K H -0.2897 0.1739 0.5331 0.057 Uiso 1 1 calc R U . . .
H13L H -0.3101 0.0653 0.5231 0.057 Uiso 1 1 calc R U . . .
H13M H -0.1995 0.1466 0.5247 0.057 Uiso 1 1 calc R U . . .
C135 C -0.3142(3) -0.0562(3) 0.6292(2) 0.0273(11) Uani 1 1 d . . . . .
H13N H -0.3481 -0.0140 0.6198 0.033 Uiso 1 1 calc R U . . .
H13O H -0.3216 -0.0731 0.6674 0.033 Uiso 1 1 calc R U . . .
C136 C -0.3735(4) -0.1477(4) 0.5768(3) 0.0376(13) Uani 1 1 d . . . . .
H13P H -0.4501 -0.1763 0.5697 0.056 Uiso 1 1 calc R U . . .
H13Q H -0.3460 -0.1931 0.5880 0.056 Uiso 1 1 calc R U . . .
H13R H -0.3623 -0.1322 0.5395 0.056 Uiso 1 1 calc R U . . .
C137 C -0.1967(3) -0.1658(3) 0.6970(2) 0.0223(10) Uani 1 1 d . . . . .
H13S H -0.2460 -0.2325 0.6730 0.027 Uiso 1 1 calc R U . . .
H13T H -0.2401 -0.1317 0.6982 0.027 Uiso 1 1 calc R U . . .
B1 B 0.7783(6) 0.3962(4) 0.7169(3) 0.0454(18) Uani 1 1 d . . . . .
F1 F 0.8435(4) 0.4728(3) 0.7019(2) 0.0970(18) Uani 1 1 d . . . . .
F2 F 0.6735(3) 0.3707(3) 0.6912(2) 0.0786(13) Uani 1 1 d . . . . .
F3 F 0.7991(4) 0.3207(3) 0.7007(3) 0.0935(16) Uani 1 1 d . . . . .
F4 F 0.8158(4) 0.4192(5) 0.7799(2) 0.128(2) Uani 1 1 d . . . . .
C1S C -0.2977(7) 0.6238(6) 0.8402(6) 0.099(3) Uani 1 1 d . . . . .
H1SA H -0.2628 0.6233 0.8807 0.118 Uiso 1 1 calc R U . . .
C2S C -0.2883(8) 0.5765(6) 0.7938(7) 0.098(4) Uani 1 1 d . . . . .
H2SA H -0.2480 0.5419 0.8013 0.118 Uiso 1 1 calc R U . . .
C3S C -0.3364(7) 0.5778(6) 0.7356(6) 0.081(3) Uani 1 1 d . . . . .
H3SA H -0.3272 0.5440 0.7036 0.098 Uiso 1 1 calc R U . . .
C4S C -0.3955(6) 0.6229(6) 0.7200(4) 0.079(3) Uani 1 1 d . . . . .
H4SA H -0.4280 0.6216 0.6786 0.094 Uiso 1 1 calc R U . . .
C5S C -0.4079(6) 0.6760(6) 0.7719(6) 0.093(3) Uani 1 1 d . . . . .
H5S H -0.4490 0.7100 0.7649 0.112 Uiso 1 1 calc R U . . .
C6S C -0.3562(7) 0.6732(6) 0.8310(4) 0.077(2) Uani 1 1 d . . . . .
H6SA H -0.3618 0.7060 0.8651 0.092 Uiso 1 1 calc R U . . .
C7S C -0.3788(6) 0.3845(5) 0.4866(5) 0.074(2) Uani 1 1 d . . . . .
H7SA H -0.4441 0.3871 0.4821 0.089 Uiso 1 1 calc R U . . .
C8S C -0.3475(7) 0.3800(5) 0.4361(4) 0.074(2) Uani 1 1 d . . . . .
H8SA H -0.3919 0.3782 0.3972 0.088 Uiso 1 1 calc R U . . .
C9S C -0.2513(6) 0.3781(4) 0.4429(4) 0.0618(19) Uani 1 1 d . . . . .
H9SA H -0.2282 0.3765 0.4092 0.074 Uiso 1 1 calc R U . . .
C10S C -0.1914(6) 0.3784(4) 0.4979(4) 0.064(2) Uani 1 1 d . . . . .
H10B H -0.1258 0.3764 0.5026 0.076 Uiso 1 1 calc R U . . .
C11S C -0.2223(6) 0.3816(4) 0.5485(4) 0.066(2) Uani 1 1 d . . . . .
H11A H -0.1786 0.3814 0.5870 0.080 Uiso 1 1 calc R U . . .
C12S C -0.3166(6) 0.3852(4) 0.5420(4) 0.065(2) Uani 1 1 d . . . . .
H12A H -0.3384 0.3882 0.5762 0.079 Uiso 1 1 calc R U . . .
C13S C -0.0879(8) 0.4130(8) 0.9828(5) 0.107(4) Uani 1 1 d . . . . .
H13U H -0.1498 0.3532 0.9702 0.128 Uiso 1 1 calc R U . . .
C14S C -0.0702(8) 0.4651(8) 0.9409(5) 0.100(3) Uani 1 1 d . . . . .
H14B H -0.1187 0.4404 0.8997 0.120 Uiso 1 1 calc R U . . .
C15S C 0.0198(8) 0.5555(8) 0.9586(5) 0.103(3) Uani 1 1 d . . . . .
H15C H 0.0318 0.5928 0.9300 0.124 Uiso 1 1 calc R U . . .
C16S C 0.2844(3) -0.0946(6) 0.7860(2) 0.069(3) Uani 0.75 1 d G . P A 1
H16S H 0.2114 -0.1150 0.7674 0.082 Uiso 0.75 1 d G U P A 1
C17S C 0.3568(5) -0.0028(5) 0.7893(2) 0.056(3) Uani 0.75 1 d G . P A 1
H17S H 0.3322 0.0383 0.7729 0.067 Uiso 0.75 1 d G U P A 1
C18S C 0.4659(5) 0.0277(3) 0.8171(2) 0.0392(17) Uani 0.75 1 d G . P A 1
H18S H 0.5143 0.0891 0.8194 0.047 Uiso 0.75 1 d G U P A 1
C19S C 0.5026(3) -0.0337(4) 0.8416(2) 0.0338(16) Uani 0.75 1 d G . P A 1
H19S H 0.5756 -0.0133 0.8602 0.041 Uiso 0.75 1 d G U P A 1
C20S C 0.4302(5) -0.1256(3) 0.8383(2) 0.0441(19) Uani 0.75 1 d G . P A 1
H20S H 0.4548 -0.1666 0.8547 0.053 Uiso 0.75 1 d G U P A 1
C21S C 0.3211(4) -0.1560(3) 0.8105(3) 0.071(3) Uani 0.75 1 d G . P A 1
H21S H 0.2727 -0.2174 0.8083 0.086 Uiso 0.75 1 d G U P A 1
C22S C 0.4957(3) 0.0044(3) 0.8334(2) 0.042(8) Uiso 0.25 1 d G . P A 2
H22S H 0.5663 0.0508 0.8459 0.050 Uiso 0.25 1 d G U P A 2
C23S C 0.4729(4) -0.0851(4) 0.8443(2) 0.036(7) Uiso 0.25 1 d G . P A 2
H23S H 0.5283 -0.0985 0.8641 0.043 Uiso 0.25 1 d G U P A 2
C24S C 0.3674(5) -0.1545(3) 0.8257(2) 0.037(7) Uiso 0.25 1 d G . P A 2
H24S H 0.3522 -0.2144 0.8330 0.044 Uiso 0.25 1 d G U P A 2
C25S C 0.2847(3) -0.1345(5) 0.7961(2) 0.034(7) Uiso 0.25 1 d G . P A 2
H25S H 0.2141 -0.1810 0.7836 0.041 Uiso 0.25 1 d G U P A 2
C26S C 0.3075(4) -0.0450(6) 0.7851(2) 0.024(6) Uiso 0.25 1 d G . P A 2
H26S H 0.2522 -0.0316 0.7653 0.028 Uiso 0.25 1 d G U P A 2
C27S C 0.4130(6) 0.0244(4) 0.8038(2) 0.048(9) Uiso 0.25 1 d G . P A 2
H27S H 0.4283 0.0843 0.7965 0.057 Uiso 0.25 1 d G U P A 2
C28S C -0.0206(6) -0.0191(8) 0.5020(7) 0.056(5) Uani 0.5 1 d G . P B -1
H28S H -0.0840 -0.0660 0.5024 0.068 Uiso 0.5 1 d G U P B -1
C29S C -0.0139(6) 0.0683(8) 0.4934(6) 0.053(5) Uani 0.5 1 d G . P B -1
H29S H -0.0727 0.0800 0.4879 0.064 Uiso 0.5 1 d G U P B -1
C30S C 0.0809(7) 0.1384(5) 0.4929(4) 0.046(3) Uani 0.5 1 d G . P B -1
H30S H 0.0854 0.1969 0.4871 0.055 Uiso 0.5 1 d G U P B -1
C31S C 0.1689(5) 0.1210(5) 0.5010(4) 0.044(3) Uani 0.5 1 d G . P B -1
H31S H 0.2323 0.1679 0.5007 0.053 Uiso 0.5 1 d G U P B -1
C32S C 0.1621(5) 0.0335(5) 0.5097(4) 0.042(3) Uani 0.5 1 d G . P B -1
H32S H 0.2210 0.0219 0.5151 0.051 Uiso 0.5 1 d G U P B -1
C33S C 0.0674(7) -0.0365(5) 0.5102(5) 0.045(4) Uani 0.5 1 d G . P B -1
H33S H 0.0628 -0.0951 0.5160 0.054 Uiso 0.5 1 d G U P B -1
C34S C 0.9361(13) 0.8317(12) 1.0111(9) 0.042(5) Uiso 0.25 1 d G . P . .
H34S H 0.9861 0.8832 1.0032 0.050 Uiso 0.25 1 d G U P . .
C35S C 0.9581(13) 0.7571(14) 1.0247(10) 0.124(16) Uiso 0.25 1 d G . P . .
H35S H 1.0228 0.7587 1.0260 0.149 Uiso 0.25 1 d G U P . .
C36S C 0.8833(16) 0.6801(12) 1.0365(10) 0.063(7) Uiso 0.25 1 d G . P . .
H36S H 0.8980 0.6302 1.0456 0.075 Uiso 0.25 1 d G U P . .
C37S C 0.7867(14) 0.6778(12) 1.0345(10) 0.087(10) Uiso 0.25 1 d G . P . .
H37S H 0.7367 0.6263 1.0424 0.104 Uiso 0.25 1 d G U P . .
C38S C 0.7647(13) 0.7524(15) 1.0209(11) 0.066(8) Uiso 0.25 1 d G . P . .
H38S H 0.7000 0.7508 1.0196 0.079 Uiso 0.25 1 d G U P . .
C39S C 0.8394(15) 0.8294(12) 1.0092(10) 0.118(14) Uiso 0.25 1 d G . P . .
H39S H 0.8247 0.8793 1.0000 0.141 Uiso 0.25 1 d G U P . .
loop_
_atom_site_aniso_label
_atom_site_aniso_U_11
_atom_site_aniso_U_22
_atom_site_aniso_U_33
_atom_site_aniso_U_23
_atom_site_aniso_U_13
_atom_site_aniso_U_12
Mn1 0.0217(4) 0.0196(4) 0.0257(4) 0.0065(3) 0.0069(3) 0.0109(3)
Mn2 0.0172(3) 0.0180(4) 0.0253(4) 0.0074(3) 0.0086(3) 0.0091(3)
O1 0.0098(12) 0.0117(13) 0.0091(14) 0.0022(10) 0.0012(10) 0.0062(11)
N1 0.0256(19) 0.0204(19) 0.026(2) 0.0051(15) 0.0080(16) 0.0148(16)
N2 0.0280(19) 0.028(2) 0.025(2) 0.0092(16) 0.0086(17) 0.0162(17)
N3 0.0252(19) 0.023(2) 0.031(2) 0.0091(17) 0.0076(17) 0.0144(17)
N4 0.0262(19) 0.025(2) 0.025(2) 0.0103(16) 0.0097(16) 0.0159(16)
N5 0.0200(17) 0.0195(19) 0.026(2) 0.0075(15) 0.0102(16) 0.0089(15)
N6 0.0200(18) 0.024(2) 0.030(2) 0.0114(16) 0.0116(16) 0.0120(16)
N7 0.0190(17) 0.0198(19) 0.031(2) 0.0053(16) 0.0108(16) 0.0070(16)
N8 0.0210(17) 0.0190(18) 0.024(2) 0.0082(15) 0.0073(15) 0.0107(15)
C1 0.025(2) 0.024(2) 0.020(2) 0.0042(18) 0.0081(18) 0.0161(19)
C2 0.025(2) 0.028(2) 0.019(2) 0.0048(18) 0.0067(18) 0.015(2)
C3 0.027(2) 0.031(3) 0.027(3) 0.009(2) 0.011(2) 0.020(2)
C4 0.028(2) 0.025(2) 0.023(3) 0.0055(19) 0.0072(19) 0.015(2)
C5 0.029(2) 0.029(3) 0.029(3) 0.009(2) 0.007(2) 0.018(2)
C6 0.036(3) 0.020(2) 0.028(3) 0.0072(19) 0.011(2) 0.017(2)
C7 0.039(3) 0.025(2) 0.032(3) 0.009(2) 0.014(2) 0.018(2)
C8 0.041(3) 0.021(2) 0.032(3) 0.010(2) 0.012(2) 0.013(2)
C9 0.032(2) 0.022(2) 0.026(3) 0.0041(19) 0.010(2) 0.011(2)
C10 0.031(2) 0.026(3) 0.033(3) 0.009(2) 0.012(2) 0.008(2)
C11 0.026(2) 0.020(2) 0.034(3) 0.001(2) 0.007(2) 0.006(2)
C12 0.025(2) 0.031(3) 0.041(3) 0.005(2) 0.005(2) 0.007(2)
C13 0.029(2) 0.029(3) 0.033(3) 0.001(2) 0.002(2) 0.013(2)
C14 0.027(2) 0.023(2) 0.030(3) 0.000(2) 0.005(2) 0.013(2)
C15 0.029(2) 0.029(3) 0.028(3) 0.004(2) 0.005(2) 0.017(2)
C16 0.027(2) 0.029(2) 0.022(3) 0.0048(19) 0.0057(19) 0.016(2)
C17 0.030(2) 0.027(2) 0.025(3) 0.0112(19) 0.012(2) 0.017(2)
C18 0.031(2) 0.023(2) 0.028(3) 0.0093(19) 0.015(2) 0.016(2)
C19 0.024(2) 0.021(2) 0.026(3) 0.0086(18) 0.0098(19) 0.0134(19)
C20 0.024(2) 0.022(2) 0.025(3) 0.0091(19) 0.0131(19) 0.0080(19)
C21 0.029(2) 0.034(3) 0.040(3) 0.016(2) 0.017(2) 0.022(2)
C22 0.047(3) 0.046(3) 0.041(3) 0.023(3) 0.027(3) 0.026(3)
C23 0.029(2) 0.031(3) 0.039(3) 0.012(2) 0.013(2) 0.020(2)
C24 0.051(3) 0.041(3) 0.054(4) 0.013(3) 0.025(3) 0.033(3)
C25 0.051(3) 0.030(3) 0.054(4) 0.024(3) 0.021(3) 0.024(3)
C26 0.063(4) 0.031(3) 0.070(5) 0.013(3) 0.030(3) 0.032(3)
C27 0.043(3) 0.028(3) 0.039(3) 0.014(2) 0.018(2) 0.014(2)
C28 0.054(4) 0.029(3) 0.075(5) 0.002(3) 0.029(3) 0.005(3)
C29 0.025(2) 0.039(3) 0.054(4) 0.015(3) 0.008(2) 0.008(2)
C30 0.049(4) 0.083(5) 0.087(6) 0.027(4) 0.030(4) 0.023(4)
C31 0.028(2) 0.028(3) 0.047(4) 0.006(2) 0.005(2) 0.013(2)
C32 0.057(4) 0.061(4) 0.047(4) 0.000(3) -0.002(3) 0.039(3)
C33 0.031(2) 0.035(3) 0.032(3) 0.014(2) 0.009(2) 0.020(2)
C34 0.053(3) 0.067(4) 0.033(3) 0.023(3) 0.016(3) 0.042(3)
C35 0.029(2) 0.027(3) 0.040(3) 0.016(2) 0.009(2) 0.014(2)
C36 0.042(3) 0.024(3) 0.048(4) 0.006(2) 0.007(3) 0.015(2)
C37 0.027(2) 0.022(2) 0.032(3) 0.0112(19) 0.013(2) 0.013(2)
C101 0.026(2) 0.022(2) 0.020(2) 0.0091(18) 0.0077(18) 0.0130(19)
C102 0.023(2) 0.021(2) 0.027(3) 0.0116(19) 0.0093(19) 0.0108(19)
C103 0.027(2) 0.023(2) 0.025(3) 0.0067(19) 0.0050(19) 0.016(2)
C104 0.023(2) 0.020(2) 0.024(3) 0.0089(18) 0.0078(18) 0.0139(18)
C105 0.024(2) 0.022(2) 0.028(3) 0.0069(19) 0.0100(19) 0.0158(19)
C106 0.025(2) 0.029(2) 0.024(3) 0.0080(19) 0.0091(19) 0.016(2)
C107 0.020(2) 0.035(3) 0.028(3) 0.015(2) 0.0093(19) 0.015(2)
C108 0.028(2) 0.031(3) 0.028(3) 0.014(2) 0.011(2) 0.015(2)
C109 0.016(2) 0.028(2) 0.027(3) 0.0090(19) 0.0081(18) 0.0098(19)
C110 0.020(2) 0.027(2) 0.025(3) 0.0035(19) 0.0070(19) 0.0063(19)
C111 0.024(2) 0.022(2) 0.031(3) 0.0087(19) 0.013(2) 0.0101(19)
C112 0.026(2) 0.023(2) 0.037(3) 0.013(2) 0.014(2) 0.009(2)
C113 0.028(2) 0.015(2) 0.029(3) 0.0085(18) 0.009(2) 0.0063(19)
C114 0.023(2) 0.021(2) 0.026(3) 0.0090(18) 0.0096(19) 0.0125(19)
C115 0.028(2) 0.020(2) 0.022(3) 0.0090(18) 0.0096(19) 0.0156(19)
C116 0.027(2) 0.021(2) 0.020(2) 0.0035(18) 0.0082(18) 0.0142(19)
C117 0.022(2) 0.022(2) 0.024(3) 0.0048(18) 0.0067(18) 0.0139(19)
C118 0.023(2) 0.022(2) 0.026(3) 0.0077(18) 0.0123(19) 0.0127(19)
C119 0.018(2) 0.021(2) 0.022(2) 0.0071(18) 0.0075(18) 0.0074(18)
C120 0.020(2) 0.019(2) 0.023(3) 0.0027(18) 0.0041(18) 0.0109(18)
C121 0.035(3) 0.017(2) 0.041(3) 0.013(2) 0.022(2) 0.012(2)
C122 0.029(2) 0.025(3) 0.041(3) 0.002(2) 0.011(2) 0.005(2)
C123 0.034(2) 0.023(2) 0.039(3) 0.014(2) 0.020(2) 0.016(2)
C124 0.063(4) 0.039(3) 0.048(4) 0.020(3) 0.030(3) 0.036(3)
C125 0.025(2) 0.036(3) 0.036(3) 0.012(2) 0.014(2) 0.018(2)
C126 0.037(3) 0.041(3) 0.038(3) 0.009(2) 0.009(2) 0.028(2)
C127 0.016(2) 0.031(3) 0.044(3) 0.013(2) 0.009(2) 0.012(2)
C128 0.030(2) 0.040(3) 0.047(3) 0.015(2) 0.019(2) 0.017(2)
C129 0.026(2) 0.024(3) 0.052(4) 0.018(2) 0.016(2) 0.007(2)
C130 0.042(3) 0.047(3) 0.050(4) 0.017(3) 0.023(3) 0.009(3)
C131 0.029(2) 0.025(3) 0.046(3) 0.018(2) 0.014(2) 0.011(2)
C132 0.045(3) 0.037(3) 0.053(4) 0.025(3) 0.017(3) 0.019(3)
C133 0.023(2) 0.022(2) 0.039(3) 0.013(2) 0.014(2) 0.0135(19)
C134 0.044(3) 0.043(3) 0.037(3) 0.019(2) 0.015(2) 0.028(3)
C135 0.019(2) 0.032(3) 0.035(3) 0.014(2) 0.009(2) 0.016(2)
C136 0.023(2) 0.033(3) 0.045(3) 0.009(2) 0.003(2) 0.009(2)
C137 0.021(2) 0.018(2) 0.030(3) 0.0065(18) 0.0092(19) 0.0114(18)
B1 0.052(4) 0.022(3) 0.046(4) 0.000(3) -0.001(3) 0.016(3)
F1 0.087(3) 0.048(2) 0.116(4) 0.043(2) 0.000(3) 0.012(2)
F2 0.068(3) 0.074(3) 0.077(3) -0.014(2) 0.005(2) 0.039(2)
F3 0.095(3) 0.043(2) 0.140(5) 0.015(2) 0.030(3) 0.040(2)
F4 0.080(3) 0.205(7) 0.064(4) 0.011(4) 0.018(3) 0.044(4)
C1S 0.071(5) 0.058(5) 0.186(12) 0.053(6) 0.074(7) 0.022(4)
C2S 0.091(7) 0.042(5) 0.179(12) 0.024(6) 0.089(8) 0.019(4)
C3S 0.059(5) 0.048(5) 0.124(9) 0.011(5) 0.051(5) 0.003(4)
C4S 0.055(4) 0.049(4) 0.091(6) 0.004(4) 0.028(4) -0.011(4)
C5S 0.054(4) 0.049(5) 0.161(10) 0.029(5) 0.054(6) -0.002(4)
C6S 0.071(5) 0.063(5) 0.085(7) 0.012(4) 0.049(5) 0.007(4)
C7S 0.067(5) 0.033(4) 0.114(8) 0.001(4) 0.042(5) 0.014(3)
C8S 0.083(5) 0.036(4) 0.077(6) 0.006(3) 0.018(4) 0.014(4)
C9S 0.071(5) 0.039(4) 0.082(6) 0.015(3) 0.041(4) 0.023(3)
C10S 0.059(4) 0.042(4) 0.097(6) 0.020(4) 0.039(4) 0.022(3)
C11S 0.072(5) 0.038(4) 0.089(6) 0.018(3) 0.035(4) 0.021(3)
C12S 0.073(5) 0.037(4) 0.087(6) 0.010(4) 0.043(5) 0.019(3)
C13S 0.093(7) 0.103(8) 0.077(7) 0.001(6) 0.024(6) 0.009(6)
C14S 0.086(6) 0.107(8) 0.066(6) -0.003(5) 0.008(5) 0.025(6)
C15S 0.114(8) 0.108(8) 0.074(7) 0.000(5) 0.041(6) 0.039(6)
C16S 0.035(5) 0.123(12) 0.040(6) 0.013(6) 0.013(4) 0.031(6)
C17S 0.059(7) 0.100(8) 0.036(5) 0.018(5) 0.014(4) 0.064(7)
C18S 0.049(5) 0.051(5) 0.031(4) 0.013(3) 0.015(3) 0.034(4)
C19S 0.043(4) 0.039(5) 0.022(4) 0.006(3) 0.008(3) 0.025(4)
C20S 0.044(5) 0.039(5) 0.042(5) 0.010(3) 0.012(4) 0.014(5)
C21S 0.044(6) 0.095(8) 0.039(5) 0.005(5) 0.014(5) 0.001(6)
C28S 0.050(11) 0.088(15) 0.028(6) 0.008(8) 0.016(8) 0.029(11)
C29S 0.075(12) 0.084(12) 0.016(7) 0.000(8) 0.006(8) 0.061(11)
C30S 0.075(8) 0.040(7) 0.022(6) 0.009(5) 0.011(6) 0.030(6)
C31S 0.057(7) 0.040(6) 0.032(7) 0.009(5) 0.015(5) 0.020(6)
C32S 0.051(7) 0.050(7) 0.029(6) 0.000(5) 0.016(5) 0.028(6)
C33S 0.065(10) 0.051(9) 0.013(6) 0.005(5) -0.002(7) 0.032(8)
loop_
_atom_type_symbol
_atom_type_description
_atom_type_scat_dispersion_real
_atom_type_scat_dispersion_imag
_atom_type_scat_source
C C 0.0033 0.0016 'International Tables Vol C Tables 4.2.6.8 and 6.1.1.4'
H H 0.0000 0.0000 'International Tables Vol C Tables 4.2.6.8 and 6.1.1.4'
N N 0.0061 0.0033 'International Tables Vol C Tables 4.2.6.8 and 6.1.1.4'
O O 0.0106 0.0060 'International Tables Vol C Tables 4.2.6.8 and 6.1.1.4'
F F 0.0171 0.0103 'International Tables Vol C Tables 4.2.6.8 and 6.1.1.4'
Mn Mn 0.3368 0.7283 'International Tables Vol C Tables 4.2.6.8 and 6.1.1.4'
B B 0.0013 0.0007 'International Tables Vol C Tables 4.2.6.8 and 6.1.1.4'
loop_
_geom_angle_atom_site_label_1
_geom_angle_atom_site_label_2
_geom_angle_atom_site_label_3
_geom_angle
_geom_angle_site_symmetry_1
N3 Mn1 N1 163.90(17) .
N3 Mn1 N4 90.53(16) .
N1 Mn1 N4 87.40(15) .
N3 Mn1 N2 88.85(16) .
N1 Mn1 N2 89.82(15) .
N4 Mn1 N2 167.82(17) .
N3 Mn1 O1 92.48(14) .
N1 Mn1 O1 103.52(13) .
N4 Mn1 O1 90.83(14) .
N2 Mn1 O1 101.35(14) .
N8 Mn2 N5 88.05(15) .
N8 Mn2 O1 92.18(13) .
N5 Mn2 O1 97.94(13) .
N8 Mn2 N6 168.27(16) .
N5 Mn2 N6 90.17(15) .
O1 Mn2 N6 99.56(14) .
N8 Mn2 N7 91.11(15) .
N5 Mn2 N7 168.68(16) .
O1 Mn2 N7 93.37(14) .
N6 Mn2 N7 88.36(15) .
Mn2 O1 Mn1 149.90(15) .
C1 N1 C4 106.2(4) .
C1 N1 Mn1 126.8(3) .
C4 N1 Mn1 127.0(3) .
C9 N2 C6 105.6(4) .
C9 N2 Mn1 126.7(3) .
C6 N2 Mn1 127.6(3) .
C14 N3 C11 106.2(4) .
C14 N3 Mn1 128.0(3) .
C11 N3 Mn1 125.4(3) .
C16 N4 C19 106.9(4) .
C16 N4 Mn1 126.2(3) .
C19 N4 Mn1 125.0(3) .
C104 N5 C101 106.7(3) .
C104 N5 Mn2 126.5(3) .
C101 N5 Mn2 126.8(3) .
C106 N6 C109 105.8(4) .
C106 N6 Mn2 127.2(3) .
C109 N6 Mn2 127.0(3) .
C114 N7 C111 106.1(4) .
C114 N7 Mn2 126.9(3) .
C111 N7 Mn2 126.8(3) .
C116 N8 C119 106.3(4) .
C116 N8 Mn2 125.6(3) .
C119 N8 Mn2 127.9(3) .
N1 C1 C20 123.5(4) .
N1 C1 C2 110.3(4) .
C20 C1 C2 126.1(4) .
C3 C2 C1 106.5(4) .
C3 C2 C21 124.4(4) .
C1 C2 C21 127.6(4) .
C2 C3 C4 106.8(4) .
C2 C3 C23 129.4(4) .
C4 C3 C23 123.7(4) .
C5 C4 N1 125.1(4) .
C5 C4 C3 124.9(4) .
N1 C4 C3 109.9(4) .
C4 C5 C6 125.2(5) .
C4 C5 H5A 117.4 .
C6 C5 H5A 117.4 .
C5 C6 N2 124.2(4) .
C5 C6 C7 125.5(5) .
N2 C6 C7 110.2(4) .
C8 C7 C6 106.7(4) .
C8 C7 C25 128.8(5) .
C6 C7 C25 124.3(5) .
C7 C8 C9 107.6(4) .
C7 C8 C27 127.5(5) .
C9 C8 C27 124.7(5) .
N2 C9 C10 123.2(4) .
N2 C9 C8 109.8(4) .
C10 C9 C8 126.2(4) .
C11 C10 C9 125.6(5) .
C11 C10 H10A 117.2 .
C9 C10 H10A 117.2 .
C10 C11 N3 124.4(4) .
C10 C11 C12 126.2(5) .
N3 C11 C12 109.0(4) .
C13 C12 C11 108.0(4) .
C13 C12 C29 128.1(5) .
C11 C12 C29 123.9(5) .
C12 C13 C14 106.6(4) .
C12 C13 C31 128.6(5) .
C14 C13 C31 124.7(5) .
N3 C14 C15 124.0(4) .
N3 C14 C13 110.1(4) .
C15 C14 C13 125.3(5) .
C14 C15 C16 125.7(5) .
C14 C15 H15A 117.2 .
C16 C15 H15A 117.2 .
N4 C16 C15 125.2(4) .
N4 C16 C17 109.1(4) .
C15 C16 C17 125.4(4) .
C18 C17 C16 108.3(4) .
C18 C17 C33 127.4(4) .
C16 C17 C33 124.3(4) .
C17 C18 C19 106.7(4) .
C17 C18 C35 124.3(4) .
C19 C18 C35 128.8(4) .
N4 C19 C20 123.1(4) .
N4 C19 C18 108.9(4) .
C20 C19 C18 127.3(4) .
C1 C20 C19 121.4(4) .
C1 C20 C37 119.1(4) .
C19 C20 C37 119.4(4) .
C2 C21 C22 112.0(4) .
C2 C21 H21B 109.2 .
C22 C21 H21B 109.2 .
C2 C21 H21C 109.2 .
C22 C21 H21C 109.2 .
H21B C21 H21C 107.9 .
C21 C22 H22B 109.5 .
C21 C22 H22C 109.5 .
H22B C22 H22C 109.5 .
C21 C22 H22D 109.5 .
H22B C22 H22D 109.5 .
H22C C22 H22D 109.5 .
C3 C23 C24 112.1(4) .
C3 C23 H23A 109.2 .
C24 C23 H23A 109.2 .
C3 C23 H23B 109.2 .
C24 C23 H23B 109.2 .
H23A C23 H23B 107.9 .
C23 C24 H24A 109.5 .
C23 C24 H24B 109.5 .
H24A C24 H24B 109.5 .
C23 C24 H24C 109.5 .
H24A C24 H24C 109.5 .
H24B C24 H24C 109.5 .
C7 C25 C26 111.9(5) .
C7 C25 H25A 109.2 .
C26 C25 H25A 109.2 .
C7 C25 H25B 109.2 .
C26 C25 H25B 109.2 .
H25A C25 H25B 107.9 .
C25 C26 H26A 109.5 .
C25 C26 H26B 109.5 .
H26A C26 H26B 109.5 .
C25 C26 H26C 109.5 .
H26A C26 H26C 109.5 .
H26B C26 H26C 109.5 .
C8 C27 C28 112.1(5) .
C8 C27 H27A 109.2 .
C28 C27 H27A 109.2 .
C8 C27 H27B 109.2 .
C28 C27 H27B 109.2 .
H27A C27 H27B 107.9 .
C27 C28 H28A 109.5 .
C27 C28 H28B 109.5 .
H28A C28 H28B 109.5 .
C27 C28 H28C 109.5 .
H28A C28 H28C 109.5 .
H28B C28 H28C 109.5 .
C30 C29 C12 110.3(5) .
C30 C29 H29A 109.6 .
C12 C29 H29A 109.6 .
C30 C29 H29B 109.6 .
C12 C29 H29B 109.6 .
H29A C29 H29B 108.1 .
C29 C30 H30A 109.5 .
C29 C30 H30B 109.5 .
H30A C30 H30B 109.5 .
C29 C30 H30C 109.5 .
H30A C30 H30C 109.5 .
H30B C30 H30C 109.5 .
C13 C31 C32 112.4(5) .
C13 C31 H31A 109.1 .
C32 C31 H31A 109.1 .
C13 C31 H31B 109.1 .
C32 C31 H31B 109.1 .
H31A C31 H31B 107.9 .
C31 C32 H32A 109.5 .
C31 C32 H32B 109.5 .
H32A C32 H32B 109.5 .
C31 C32 H32C 109.5 .
H32A C32 H32C 109.5 .
H32B C32 H32C 109.5 .
C17 C33 C34 111.9(4) .
C17 C33 H33A 109.2 .
C34 C33 H33A 109.2 .
C17 C33 H33B 109.2 .
C34 C33 H33B 109.2 .
H33A C33 H33B 107.9 .
C33 C34 H34A 109.5 .
C33 C34 H34B 109.5 .
H34A C34 H34B 109.5 .
C33 C34 H34C 109.5 .
H34A C34 H34C 109.5 .
H34B C34 H34C 109.5 .
C18 C35 C36 112.8(4) .
C18 C35 H35A 109.0 .
C36 C35 H35A 109.0 .
C18 C35 H35B 109.0 .
C36 C35 H35B 109.0 .
H35A C35 H35B 107.8 .
C35 C36 H36A 109.5 .
C35 C36 H36B 109.5 .
H36A C36 H36B 109.5 .
C35 C36 H36C 109.5 .
H36A C36 H36C 109.5 .
H36B C36 H36C 109.5 .
C20 C37 C137 112.6(4) .
C20 C37 H37A 109.1 .
C137 C37 H37A 109.1 .
C20 C37 H37B 109.1 .
C137 C37 H37B 109.1 .
H37A C37 H37B 107.8 .
N5 C101 C120 124.2(4) .
N5 C101 C102 108.8(4) .
C120 C101 C102 126.5(4) .
C103 C102 C101 106.9(4) .
C103 C102 C121 123.4(4) .
C101 C102 C121 129.2(4) .
C102 C103 C104 107.1(4) .
C102 C103 C123 127.7(4) .
C104 C103 C123 125.1(4) .
N5 C104 C105 125.2(4) .
N5 C104 C103 110.4(4) .
C105 C104 C103 124.3(4) .
C106 C105 C104 126.3(4) .
C106 C105 H10C 116.8 .
C104 C105 H10C 116.8 .
C105 C106 N6 124.0(4) .
C105 C106 C107 125.7(4) .
N6 C106 C107 110.2(4) .
C108 C107 C106 106.8(4) .
C108 C107 C125 127.9(4) .
C106 C107 C125 125.2(4) .
C107 C108 C109 107.7(4) .
C107 C108 C127 128.0(5) .
C109 C108 C127 124.1(4) .
C110 C109 N6 124.3(4) .
C110 C109 C108 125.9(4) .
N6 C109 C108 109.4(4) .
C109 C110 C111 125.0(4) .
C109 C110 H11B 117.5 .
C111 C110 H11B 117.5 .
N7 C111 C110 124.8(4) .
N7 C111 C112 109.7(4) .
C110 C111 C112 125.3(4) .
C113 C112 C111 107.4(4) .
C113 C112 C129 129.0(5) .
C111 C112 C129 123.6(4) .
C112 C113 C114 106.0(4) .
C112 C113 C131 129.2(4) .
C114 C113 C131 124.7(4) .
N7 C114 C115 124.1(4) .
N7 C114 C113 110.8(4) .
C115 C114 C113 125.1(4) .
C114 C115 C116 126.8(4) .
C114 C115 H11C 116.6 .
C116 C115 H11C 116.6 .
C115 C116 N8 125.4(4) .
C115 C116 C117 124.1(4) .
N8 C116 C117 110.4(4) .
C118 C117 C116 107.2(4) .
C118 C117 C133 128.2(4) .
C116 C117 C133 124.5(4) .
C117 C118 C119 107.0(4) .
C117 C118 C135 121.5(4) .
C119 C118 C135 130.7(4) .
N8 C119 C120 123.5(4) .
N8 C119 C118 109.0(4) .
C120 C119 C118 127.5(4) .
C119 C120 C101 122.7(4) .
C119 C120 C137 117.4(4) .
C101 C120 C137 119.7(4) .
C102 C121 C122 111.7(4) .
C102 C121 H12B 109.3 .
C122 C121 H12B 109.3 .
C102 C121 H12C 109.3 .
C122 C121 H12C 109.3 .
H12B C121 H12C 107.9 .
C121 C122 H12D 109.5 .
C121 C122 H12E 109.5 .
H12D C122 H12E 109.5 .
C121 C122 H12F 109.5 .
H12D C122 H12F 109.5 .
H12E C122 H12F 109.5 .
C103 C123 C124 113.0(4) .
C103 C123 H12G 109.0 .
C124 C123 H12G 109.0 .
C103 C123 H12H 109.0 .
C124 C123 H12H 109.0 .
H12G C123 H12H 107.8 .
C123 C124 H12I 109.5 .
C123 C124 H12J 109.5 .
H12I C124 H12J 109.5 .
C123 C124 H12K 109.5 .
H12I C124 H12K 109.5 .
H12J C124 H12K 109.5 .
C107 C125 C126 112.9(4) .
C107 C125 H12L 109.0 .
C126 C125 H12L 109.0 .
C107 C125 H12M 109.0 .
C126 C125 H12M 109.0 .
H12L C125 H12M 107.8 .
C125 C126 H12N 109.5 .
C125 C126 H12O 109.5 .
H12N C126 H12O 109.5 .
C125 C126 H12P 109.5 .
H12N C126 H12P 109.5 .
H12O C126 H12P 109.5 .
C108 C127 C128 112.9(4) .
C108 C127 H12Q 109.0 .
C128 C127 H12Q 109.0 .
C108 C127 H12R 109.0 .
C128 C127 H12R 109.0 .
H12Q C127 H12R 107.8 .
C127 C128 H12S 109.5 .
C127 C128 H12T 109.5 .
H12S C128 H12T 109.5 .
C127 C128 H12U 109.5 .
H12S C128 H12U 109.5 .
H12T C128 H12U 109.5 .
C112 C129 C130 112.8(4) .
C112 C129 H12V 109.0 .
C130 C129 H12V 109.0 .
C112 C129 H12W 109.0 .
C130 C129 H12W 109.0 .
H12V C129 H12W 107.8 .
C129 C130 H13A 109.5 .
C129 C130 H13B 109.5 .
H13A C130 H13B 109.5 .
C129 C130 H13C 109.5 .
H13A C130 H13C 109.5 .
H13B C130 H13C 109.5 .
C113 C131 C132 114.0(4) .
C113 C131 H13D 108.8 .
C132 C131 H13D 108.8 .
C113 C131 H13E 108.8 .
C132 C131 H13E 108.8 .
H13D C131 H13E 107.7 .
C131 C132 H13F 109.5 .
C131 C132 H13G 109.5 .
H13F C132 H13G 109.5 .
C131 C132 H13H 109.5 .
H13F C132 H13H 109.5 .
H13G C132 H13H 109.5 .
C117 C133 C134 112.7(4) .
C117 C133 H13I 109.1 .
C134 C133 H13I 109.1 .
C117 C133 H13J 109.1 .
C134 C133 H13J 109.1 .
H13I C133 H13J 107.8 .
C133 C134 H13K 109.5 .
C133 C134 H13L 109.5 .
H13K C134 H13L 109.5 .
C133 C134 H13M 109.5 .
H13K C134 H13M 109.5 .
H13L C134 H13M 109.5 .
C118 C135 C136 112.9(4) .
C118 C135 H13N 109.0 .
C136 C135 H13N 109.0 .
C118 C135 H13O 109.0 .
C136 C135 H13O 109.0 .
H13N C135 H13O 107.8 .
C135 C136 H13P 109.5 .
C135 C136 H13Q 109.5 .
H13P C136 H13Q 109.5 .
C135 C136 H13R 109.5 .
H13P C136 H13R 109.5 .
H13Q C136 H13R 109.5 .
C120 C137 C37 112.2(4) .
C120 C137 H13S 109.2 .
C37 C137 H13S 109.2 .
C120 C137 H13T 109.2 .
C37 C137 H13T 109.2 .
H13S C137 H13T 107.9 .
F2 B1 F1 114.6(6) .
F2 B1 F4 113.5(7) .
F1 B1 F4 105.3(5) .
F2 B1 F3 110.5(5) .
F1 B1 F3 107.7(7) .
F4 B1 F3 104.5(6) .
C2S C1S C6S 121.7(12) .
C2S C1S H1SA 119.1 .
C6S C1S H1SA 119.1 .
C1S C2S C3S 119.8(11) .
C1S C2S H2SA 120.1 .
C3S C2S H2SA 120.1 .
C4S C3S C2S 124.9(10) .
C4S C3S H3SA 117.5 .
C2S C3S H3SA 117.5 .
C3S C4S C5S 116.0(9) .
C3S C4S H4SA 122.0 .
C5S C4S H4SA 122.0 .
C6S C5S C4S 116.9(9) .
C6S C5S H5S 121.5 .
C4S C5S H5S 121.5 .
C1S C6S C5S 120.6(9) .
C1S C6S H6SA 119.7 .
C5S C6S H6SA 119.7 .
C12S C7S C8S 120.5(8) .
C12S C7S H7SA 119.8 .
C8S C7S H7SA 119.8 .
C9S C8S C7S 119.7(8) .
C9S C8S H8SA 120.2 .
C7S C8S H8SA 120.2 .
C10S C9S C8S 118.9(8) .
C10S C9S H9SA 120.5 .
C8S C9S H9SA 120.5 .
C9S C10S C11S 122.1(8) .
C9S C10S H10B 119.0 .
C11S C10S H10B 119.0 .
C12S C11S C10S 119.1(8) .
C12S C11S H11A 120.5 .
C10S C11S H11A 120.5 .
C7S C12S C11S 119.8(8) .
C7S C12S H12A 120.1 .
C11S C12S H12A 120.1 .
C15S C13S C14S 121.6(10) 2_567
C15S C13S H13U 119.2 2_567
C14S C13S H13U 119.2 .
C13S C14S C15S 120.5(9) .
C13S C14S H14B 119.7 .
C15S C14S H14B 119.7 .
C13S C15S C14S 117.9(10) 2_567
C13S C15S H15C 121.1 2_567
C14S C15S H15C 121.1 .
C17S C16S C21S 120.0 .
C17S C16S H16S 120.0 .
C21S C16S H16S 120.0 .
C16S C17S C18S 120.0 .
C16S C17S H17S 120.0 .
C18S C17S H17S 120.0 .
C19S C18S C17S 120.0 .
C19S C18S H18S 120.0 .
C17S C18S H18S 120.0 .
C18S C19S C20S 120.0 .
C18S C19S H19S 120.0 .
C20S C19S H19S 120.0 .
C21S C20S C19S 120.0 .
C21S C20S H20S 120.0 .
C19S C20S H20S 120.0 .
C20S C21S C16S 120.0 .
C20S C21S H21S 120.0 .
C16S C21S H21S 120.0 .
C23S C22S C27S 120.0 .
C23S C22S H22S 120.0 .
C27S C22S H22S 120.0 .
C22S C23S C24S 120.0 .
C22S C23S H23S 120.0 .
C24S C23S H23S 120.0 .
C25S C24S C23S 120.0 .
C25S C24S H24S 120.0 .
C23S C24S H24S 120.0 .
C26S C25S C24S 120.0 .
C26S C25S H25S 120.0 .
C24S C25S H25S 120.0 .
C25S C26S C27S 120.0 .
C25S C26S H26S 120.0 .
C27S C26S H26S 120.0 .
C26S C27S C22S 120.0 .
C26S C27S H27S 120.0 .
C22S C27S H27S 120.0 .
C29S C28S C33S 120.0 .
C29S C28S H28S 120.0 .
C33S C28S H28S 120.0 .
C30S C29S C28S 120.0 .
C30S C29S H29S 120.0 .
C28S C29S H29S 120.0 .
C29S C30S C31S 120.0 .
C29S C30S H30S 120.0 .
C31S C30S H30S 120.0 .
C32S C31S C30S 120.0 .
C32S C31S H31S 120.0 .
C30S C31S H31S 120.0 .
C31S C32S C33S 120.0 .
C31S C32S H32S 120.0 .
C33S C32S H32S 120.0 .
C28S C33S C32S 120.0 .
C28S C33S H33S 120.0 .
C32S C33S H33S 120.0 .
C39S C34S C35S 120.0 .
C39S C34S H34S 120.0 .
C35S C34S H34S 120.0 .
C34S C35S C36S 120.0 .
C34S C35S H35S 120.0 .
C36S C35S H35S 120.0 .
C37S C36S C35S 120.0 .
C37S C36S H36S 120.0 .
C35S C36S H36S 120.0 .
C36S C37S C38S 120.0 .
C36S C37S H37S 120.0 .
C38S C37S H37S 120.0 .
C37S C38S C39S 120.0 .
C37S C38S H38S 120.0 .
C39S C38S H38S 120.0 .
C34S C39S C38S 120.0 .
C34S C39S H39S 120.0 .
C38S C39S H39S 120.0 .
loop_
_geom_bond_atom_site_label_1
_geom_bond_atom_site_label_2
_geom_bond_distance
_geom_bond_site_symmetry_2
Mn1 N3 1.988(4) .
Mn1 N1 1.988(4) .
Mn1 N4 1.992(4) .
Mn1 N2 1.992(4) .
Mn1 O1 2.008(3) .
Mn2 N8 1.997(4) .
Mn2 N5 2.004(4) .
Mn2 O1 2.005(3) .
Mn2 N6 2.006(4) .
Mn2 N7 2.013(4) .
N1 C1 1.376(6) .
N1 C4 1.381(6) .
N2 C9 1.384(6) .
N2 C6 1.389(6) .
N3 C14 1.376(6) .
N3 C11 1.398(6) .
N4 C16 1.383(6) .
N4 C19 1.387(5) .
N5 C104 1.370(6) .
N5 C101 1.388(5) .
N6 C106 1.380(6) .
N6 C109 1.394(5) .
N7 C114 1.369(6) .
N7 C111 1.380(5) .
N8 C116 1.385(6) .
N8 C119 1.389(5) .
C1 C20 1.405(6) .
C1 C2 1.450(6) .
C2 C3 1.373(7) .
C2 C21 1.504(6) .
C3 C4 1.452(6) .
C3 C23 1.497(7) .
C4 C5 1.380(7) .
C5 C6 1.386(7) .
C5 H5A 0.9500 .
C6 C7 1.439(7) .
C7 C8 1.360(7) .
C7 C25 1.487(7) .
C8 C9 1.439(7) .
C8 C27 1.510(7) .
C9 C10 1.394(7) .
C10 C11 1.366(7) .
C10 H10A 0.9500 .
C11 C12 1.444(7) .
C12 C13 1.356(8) .
C12 C29 1.507(7) .
C13 C14 1.451(7) .
C13 C31 1.487(7) .
C14 C15 1.377(7) .
C15 C16 1.391(6) .
C15 H15A 0.9500 .
C16 C17 1.430(7) .
C17 C18 1.358(6) .
C17 C33 1.510(7) .
C18 C19 1.453(7) .
C18 C35 1.509(6) .
C19 C20 1.405(6) .
C20 C37 1.524(6) .
C21 C22 1.525(7) .
C21 H21B 0.9900 .
C21 H21C 0.9900 .
C22 H22B 0.9800 .
C22 H22C 0.9800 .
C22 H22D 0.9800 .
C23 C24 1.522(7) .
C23 H23A 0.9900 .
C23 H23B 0.9900 .
C24 H24A 0.9800 .
C24 H24B 0.9800 .
C24 H24C 0.9800 .
C25 C26 1.539(8) .
C25 H25A 0.9900 .
C25 H25B 0.9900 .
C26 H26A 0.9800 .
C26 H26B 0.9800 .
C26 H26C 0.9800 .
C27 C28 1.536(8) .
C27 H27A 0.9900 .
C27 H27B 0.9900 .
C28 H28A 0.9800 .
C28 H28B 0.9800 .
C28 H28C 0.9800 .
C29 C30 1.474(10) .
C29 H29A 0.9900 .
C29 H29B 0.9900 .
C30 H30A 0.9800 .
C30 H30B 0.9800 .
C30 H30C 0.9800 .
C31 C32 1.527(8) .
C31 H31A 0.9900 .
C31 H31B 0.9900 .
C32 H32A 0.9800 .
C32 H32B 0.9800 .
C32 H32C 0.9800 .
C33 C34 1.543(8) .
C33 H33A 0.9900 .
C33 H33B 0.9900 .
C34 H34A 0.9800 .
C34 H34B 0.9800 .
C34 H34C 0.9800 .
C35 C36 1.536(7) .
C35 H35A 0.9900 .
C35 H35B 0.9900 .
C36 H36A 0.9800 .
C36 H36B 0.9800 .
C36 H36C 0.9800 .
C37 C137 1.551(7) .
C37 H37A 0.9900 .
C37 H37B 0.9900 .
C101 C120 1.411(6) .
C101 C102 1.458(6) .
C102 C103 1.364(7) .
C102 C121 1.515(6) .
C103 C104 1.433(6) .
C103 C123 1.504(6) .
C104 C105 1.385(6) .
C105 C106 1.378(6) .
C105 H10C 0.9500 .
C106 C107 1.441(6) .
C107 C108 1.358(7) .
C107 C125 1.496(7) .
C108 C109 1.438(7) .
C108 C127 1.514(6) .
C109 C110 1.375(7) .
C110 C111 1.383(7) .
C110 H11B 0.9500 .
C111 C112 1.442(6) .
C112 C113 1.366(7) .
C112 C129 1.504(6) .
C113 C114 1.443(6) .
C113 C131 1.489(7) .
C114 C115 1.381(6) .
C115 C116 1.383(6) .
C115 H11C 0.9500 .
C116 C117 1.420(6) .
C117 C118 1.376(6) .
C117 C133 1.500(6) .
C118 C119 1.449(6) .
C118 C135 1.518(6) .
C119 C120 1.402(6) .
C120 C137 1.523(6) .
C121 C122 1.531(7) .
C121 H12B 0.9900 .
C121 H12C 0.9900 .
C122 H12D 0.9800 .
C122 H12E 0.9800 .
C122 H12F 0.9800 .
C123 C124 1.534(7) .
C123 H12G 0.9900 .
C123 H12H 0.9900 .
C124 H12I 0.9800 .
C124 H12J 0.9800 .
C124 H12K 0.9800 .
C125 C126 1.520(7) .
C125 H12L 0.9900 .
C125 H12M 0.9900 .
C126 H12N 0.9800 .
C126 H12O 0.9800 .
C126 H12P 0.9800 .
C127 C128 1.523(7) .
C127 H12Q 0.9900 .
C127 H12R 0.9900 .
C128 H12S 0.9800 .
C128 H12T 0.9800 .
C128 H12U 0.9800 .
C129 C130 1.522(8) .
C129 H12V 0.9900 .
C129 H12W 0.9900 .
C130 H13A 0.9800 .
C130 H13B 0.9800 .
C130 H13C 0.9800 .
C131 C132 1.523(8) .
C131 H13D 0.9900 .
C131 H13E 0.9900 .
C132 H13F 0.9800 .
C132 H13G 0.9800 .
C132 H13H 0.9800 .
C133 C134 1.527(7) .
C133 H13I 0.9900 .
C133 H13J 0.9900 .
C134 H13K 0.9800 .
C134 H13L 0.9800 .
C134 H13M 0.9800 .
C135 C136 1.537(7) .
C135 H13N 0.9900 .
C135 H13O 0.9900 .
C136 H13P 0.9800 .
C136 H13Q 0.9800 .
C136 H13R 0.9800 .
C137 H13S 0.9900 .
C137 H13T 0.9900 .
B1 F2 1.345(8) .
B1 F1 1.365(8) .
B1 F4 1.377(9) .
B1 F3 1.387(8) .
C1S C2S 1.328(14) .
C1S C6S 1.365(13) .
C1S H1SA 0.9500 .
C2S C3S 1.357(14) .
C2S H2SA 0.9500 .
C3S C4S 1.329(12) .
C3S H3SA 0.9500 .
C4S C5S 1.504(12) .
C4S H4SA 0.9500 .
C5S C6S 1.397(12) .
C5S H5S 0.9500 .
C6S H6SA 0.9500 .
C7S C12S 1.359(11) .
C7S C8S 1.397(11) .
C7S H7SA 0.9500 .
C8S C9S 1.385(11) .
C8S H8SA 0.9500 .
C9S C10S 1.340(10) .
C9S H9SA 0.9500 .
C10S C11S 1.393(11) .
C10S H10B 0.9500 .
C11S C12S 1.372(10) .
C11S H11A 0.9500 .
C12S H12A 0.9500 .
C13S C15S 1.348(13) 2_567
C13S C14S 1.367(14) .
C13S H13U 0.9500 .
C14S C15S 1.413(13) .
C14S H14B 0.9500 .
C15S C13S 1.348(13) 2_567
C15S H15C 0.9500 .
C16S C17S 1.3898 .
C16S C21S 1.3903 .
C16S H16S 0.9299 .
C17S C18S 1.3900 .
C17S H17S 0.9303 .
C18S C19S 1.3899 .
C18S H18S 0.9302 .
C19S C20S 1.3900 .
C19S H19S 0.9300 .
C20S C21S 1.3899 .
C20S H20S 0.9302 .
C21S H21S 0.9297 .
C22S C23S 1.3900 .
C22S C27S 1.3901 .
C22S H22S 0.9301 .
C23S C24S 1.3900 .
C23S H23S 0.9298 .
C24S C25S 1.3900 .
C24S H24S 0.9301 .
C25S C26S 1.3900 .
C25S H25S 0.9299 .
C26S C27S 1.3901 .
C26S H26S 0.9300 .
C27S H27S 0.9300 .
C28S C29S 1.3900 .
C28S C33S 1.3901 .
C28S H28S 0.9300 .
C29S C30S 1.3899 .
C29S H29S 0.9301 .
C30S C31S 1.3899 .
C30S H30S 0.9300 .
C31S C32S 1.3899 .
C31S H31S 0.9301 .
C32S C33S 1.3901 .
C32S H32S 0.9298 .
C33S H33S 0.9299 .
C34S C39S 1.3900 .
C34S C35S 1.3901 .
C34S H34S 0.9300 .
C35S C36S 1.3901 .
C35S H35S 0.9298 .
C36S C37S 1.3900 .
C36S H36S 0.9300 .
C37S C38S 1.3900 .
C37S H37S 0.9299 .
C38S C39S 1.3901 .
C38S H38S 0.9299 .
C39S H39S 0.9299 .
