#------------------------------------------------------------------------------
#$Date: 2019-11-23 03:33:02 +0200 (Sat, 23 Nov 2019) $
#$Revision: 232012 $
#$URL: file:///home/coder/svn-repositories/cod/cif/4/34/68/4346844.cif $
#------------------------------------------------------------------------------
#
# This file is available in the Crystallography Open Database (COD),
# http://www.crystallography.net/
#
# All data on this site have been placed in the public domain by the
# contributors.
#
data_4346844
loop_
_publ_author_name
'Sil, Debangsu'
'Bhowmik, Susovan'
'Khan, Firoz Shah Tuglak'
'Rath, Sankar Prasad'
_publ_section_title
;
 Experimental and Theoretical Investigation of a Series of Novel
 Dimanganese(III) \m-Hydroxo Bisporphyrins: Magneto-Structural Correlation
 and Effect of Metal Spin on Porphyrin Core Deformation.
;
_journal_issue                   7
_journal_name_full               'Inorganic chemistry'
_journal_page_first              3239
_journal_page_last               3251
_journal_paper_doi               10.1021/acs.inorgchem.5b02226
_journal_volume                  55
_journal_year                    2016
_chemical_formula_sum            'C75 H89 Cl2 F6 Mn2 N8 O Sb'
_chemical_formula_weight         1535.07
_space_group_crystal_system      monoclinic
_space_group_IT_number           15
_space_group_name_Hall           '-C 2yc'
_space_group_name_H-M_alt        'C 1 2/c 1'
_atom_sites_solution_hydrogens   mixed
_audit_creation_method           SHELXL-2014
_cell_angle_alpha                90.000(5)
_cell_angle_beta                 116.234(5)
_cell_angle_gamma                90.000(5)
_cell_formula_units_Z            4
_cell_length_a                   17.832(5)
_cell_length_b                   24.159(5)
_cell_length_c                   18.505(5)
_cell_measurement_reflns_used    999
_cell_measurement_temperature    100(2)
_cell_measurement_theta_max      27.5
_cell_measurement_theta_min      2.5
_cell_volume                     7151(3)
_computing_cell_refinement       'Bruker SAINT'
_computing_data_collection       'Bruker APEX'
_computing_data_reduction        'Bruker SAINT'
_computing_molecular_graphics    'SHELXL 5.1, XP (Sheldrick, 1994)'
_computing_publication_material  SHELXS-97
_computing_structure_refinement  'SHELXL-2014 (Sheldrick, 2014)'
_computing_structure_solution    'SHELXS-97 (Sheldrick, 2008)'
_diffrn_ambient_temperature      100(2)
_diffrn_measured_fraction_theta_full 0.997
_diffrn_measured_fraction_theta_max 0.996
_diffrn_measurement_device_type  'Bruker SMART APEX'
_diffrn_measurement_method       \w
_diffrn_radiation_type           MoK\a
_diffrn_radiation_wavelength     0.71069
_diffrn_reflns_av_R_equivalents  0.0750
_diffrn_reflns_av_unetI/netI     0.0942
_diffrn_reflns_Laue_measured_fraction_full 0.997
_diffrn_reflns_Laue_measured_fraction_max 0.996
_diffrn_reflns_limit_h_max       21
_diffrn_reflns_limit_h_min       -21
_diffrn_reflns_limit_k_max       29
_diffrn_reflns_limit_k_min       -29
_diffrn_reflns_limit_l_max       11
_diffrn_reflns_limit_l_min       -22
_diffrn_reflns_number            20083
_diffrn_reflns_point_group_measured_fraction_full 0.997
_diffrn_reflns_point_group_measured_fraction_max 0.996
_diffrn_reflns_theta_full        25.000
_diffrn_reflns_theta_max         26.000
_diffrn_reflns_theta_min         2.085
_diffrn_source                   'fine-focus sealed tube'
_exptl_absorpt_coefficient_mu    0.863
_exptl_absorpt_correction_T_max  0.900
_exptl_absorpt_correction_T_min  0.850
_exptl_absorpt_correction_type   multi-scan
_exptl_absorpt_process_details   'SADABS 2.05 (Sheldrick, 2002)'
_exptl_crystal_colour            'dark red'
_exptl_crystal_density_diffrn    1.426
_exptl_crystal_description       block
_exptl_crystal_F_000             3168
_exptl_crystal_size_max          0.220
_exptl_crystal_size_mid          0.160
_exptl_crystal_size_min          0.120
_refine_diff_density_max         0.861
_refine_diff_density_min         -0.876
_refine_diff_density_rms         0.106
_refine_ls_extinction_method     none
_refine_ls_goodness_of_fit_ref   1.031
_refine_ls_hydrogen_treatment    constr
_refine_ls_matrix_type           full
_refine_ls_number_parameters     457
_refine_ls_number_reflns         7018
_refine_ls_number_restraints     0
_refine_ls_restrained_S_all      1.031
_refine_ls_R_factor_all          0.1201
_refine_ls_R_factor_gt           0.0728
_refine_ls_shift/su_max          0.001
_refine_ls_shift/su_mean         0.000
_refine_ls_structure_factor_coef Fsqd
_refine_ls_weighting_details
'w=1/[\s^2^(Fo^2^)+(0.0826P)^2^+18.2957P] where P=(Fo^2^+2Fc^2^)/3'
_refine_ls_weighting_scheme      calc
_refine_ls_wR_factor_gt          0.1704
_refine_ls_wR_factor_ref         0.1970
_reflns_Friedel_coverage         0.000
_reflns_number_gt                4377
_reflns_number_total             7018
_reflns_threshold_expression     'I > 2\s(I)'
_cod_data_source_file            ic5b02226_si_002.cif
_cod_data_source_block           2novcm
_cod_original_sg_symbol_H-M      'C 2/c'
_cod_database_code               4346844
_shelx_space_group_comment
;
The symmetry employed for this shelxl refinement is uniquely defined
by the following loop, which should always be used as a source of
symmetry information in preference to the above space-group names.
They are only intended as comments.
;
_shelx_estimated_absorpt_t_min   0.833
_shelx_estimated_absorpt_t_max   0.903
_shelxl_version_number           2014-3
_shelx_res_file
;
TITL 2novcm in C 2/c
CELL  0.71069  17.8320  24.1590  18.5050   90.000  116.234   90.000
ZERR     4.00   0.0050   0.0050   0.0050    0.005    0.005    0.005
LATT 7
SYMM  - X,   Y, 1/2 - Z
SFAC C  H  N  O  F  Cl Mn Sb
UNIT 300 356  32  4  24  8  8  4
MERG 2
OMIT -3 52
omit -5 5 3
L.S. 30
FMAP 2
PLAN 5
TEMP -173.0
bond $H
size 0.22 0.16 0.12 ! red block
acta 50
WGHT    0.082600   18.295700
FVAR       0.11336   0.60428
MN1   7    0.442795    0.116733    0.633956    11.00000    0.02154    0.04441 =
         0.02645   -0.00212    0.01054   -0.00209
O1    4    0.500000    0.102106    0.750000    10.50000    0.01139    0.01592 =
         0.01108    0.00000    0.00342    0.00000
N1    3    0.379678    0.182985    0.639799    11.00000    0.02163    0.03759 =
         0.02972    0.00018    0.01189   -0.00239
N2    3    0.529876    0.164483    0.625519    11.00000    0.02585    0.04921 =
         0.03223   -0.00493    0.01453   -0.00753
N3    3    0.495303    0.052257    0.607568    11.00000    0.02579    0.05172 =
         0.02960    0.00551    0.01469    0.00601
N4    3    0.341020    0.072025    0.612672    11.00000    0.02677    0.03337 =
         0.02894   -0.00133    0.01467   -0.00108
C1    1    0.313696    0.184056    0.659176    11.00000    0.02861    0.04375 =
         0.03508   -0.00781    0.01596   -0.00263
C2    1    0.291369    0.241246    0.665778    11.00000    0.03387    0.04007 =
         0.02924   -0.00935    0.01613   -0.00358
C3    1    0.346094    0.274289    0.650982    11.00000    0.03848    0.04266 =
         0.02628   -0.00743    0.01259   -0.00545
C4    1    0.402034    0.237441    0.637066    11.00000    0.03647    0.04436 =
         0.02723   -0.00678    0.01351   -0.00917
C5    1    0.468883    0.254145    0.624293    11.00000    0.05296    0.05279 =
         0.04794   -0.01640    0.03067   -0.01669
AFIX  43
H5A   2    0.474588    0.292862    0.619231    11.00000   -1.20000
AFIX   0
C6    1    0.528467    0.220963    0.618030    11.00000    0.04964    0.05720 =
         0.05663   -0.02686    0.03591   -0.02239
C7    1    0.602764    0.238888    0.614047    11.00000    0.07021    0.06856 =
         0.09968   -0.04862    0.06986   -0.03886
C8    1    0.649940    0.195452    0.619908    11.00000    0.04544    0.08420 =
         0.04964   -0.03398    0.03205   -0.03311
C9    1    0.606092    0.148252    0.630213    11.00000    0.02686    0.07864 =
         0.02420   -0.00057    0.00976   -0.00577
C10   1    0.632013    0.093367    0.640396    11.00000    0.02705    0.08426 =
         0.07569    0.04845    0.02587    0.01038
C11   1    0.580017    0.047836    0.626505    11.00000    0.03566    0.07226 =
         0.03275    0.02514    0.01977    0.02048
C12   1    0.597922   -0.009162    0.617674    11.00000    0.04115    0.06219 =
         0.04657    0.02827    0.02894    0.02329
C13   1    0.525339   -0.038757    0.593360    11.00000    0.04111    0.06626 =
         0.02791    0.01096    0.02116    0.01441
C14   1    0.462739   -0.000002    0.588483    11.00000    0.03324    0.04932 =
         0.02484    0.00551    0.01320    0.01072
C15   1    0.381650   -0.014072    0.572088    11.00000    0.03722    0.04236 =
         0.03052   -0.00049    0.01581    0.00658
AFIX  43
H15A  2    0.363340   -0.050053    0.550928    11.00000   -1.20000
AFIX   0
C16   1    0.324602    0.019081    0.583466    11.00000    0.03036    0.04317 =
         0.02692    0.00151    0.01205    0.00540
C17   1    0.245518    0.000928    0.578540    11.00000    0.03418    0.03886 =
         0.03451    0.00469    0.01706   -0.00003
C18   1    0.217610    0.041753    0.610776    11.00000    0.02684    0.03721 =
         0.03912    0.00603    0.01544    0.00200
C19   1    0.277475    0.086866    0.632437    11.00000    0.01923    0.05206 =
         0.03256   -0.00144    0.01247    0.00121
C20   1    0.270122    0.137662    0.663474    11.00000    0.03292    0.04920 =
         0.05222   -0.01433    0.02437   -0.01055
C21   1    0.215228    0.260981    0.672973    11.00000    0.03923    0.02834 =
         0.04161    0.00004    0.01904    0.00492
AFIX  23
H21A  2    0.222305    0.300632    0.688027    11.00000   -1.20000
H21B  2    0.210237    0.240265    0.716804    11.00000   -1.20000
AFIX   0
C22   1    0.135509    0.253848    0.596184    11.00000    0.03659    0.06895 =
         0.04965   -0.00672    0.01567   -0.00444
AFIX 137
H22A  2    0.087986    0.266973    0.604641    11.00000   -1.50000
H22B  2    0.127697    0.214618    0.581196    11.00000   -1.50000
H22C  2    0.139147    0.275327    0.552918    11.00000   -1.50000
AFIX   0
C23   1    0.346768    0.335806    0.645985    11.00000    0.04780    0.04465 =
         0.04817   -0.00397    0.02383   -0.00685
AFIX  23
H23A  2    0.405429    0.348874    0.670724    11.00000   -1.20000
H23B  2    0.319107    0.351481    0.677465    11.00000   -1.20000
AFIX   0
C24   1    0.302884    0.357236    0.560056    11.00000    0.06462    0.06328 =
         0.05057    0.01211    0.02336   -0.00119
AFIX 137
H24A  2    0.307722    0.397646    0.560153    11.00000   -1.50000
H24B  2    0.243703    0.346815    0.536487    11.00000   -1.50000
H24C  2    0.328926    0.341069    0.528108    11.00000   -1.50000
AFIX   0
PART   1
C25   1    0.632326    0.292495    0.617815    21.00000    0.03275    0.06635 =
         0.04897   -0.01146    0.01730   -0.00984
AFIX  23
H25A  2    0.692733    0.292352    0.631892    21.00000   -1.20000
H25B  2    0.623429    0.314524    0.658475    21.00000   -1.20000
AFIX   0
C26   1    0.582169    0.315775    0.534477    21.00000    0.02716    0.07149 =
         0.08423    0.00187    0.01677   -0.02123
AFIX 137
H26A  2    0.586888    0.356218    0.536310    21.00000   -1.50000
H26B  2    0.523360    0.305235    0.515022    21.00000   -1.50000
H26C  2    0.603671    0.300996    0.497953    21.00000   -1.50000
AFIX   0
PART   2
C25A  1    0.598891    0.304118    0.572041   -21.00000    0.03288
AFIX  23
H25C  2    0.631713    0.304731    0.540672   -21.00000   -1.20000
H25D  2    0.540501    0.314889    0.536346   -21.00000   -1.20000
AFIX   0
C26A  1    0.637083    0.342431    0.644476   -21.00000    0.05265
AFIX 137
H26D  2    0.637634    0.380405    0.626096   -21.00000   -1.50000
H26E  2    0.694443    0.330615    0.679320   -21.00000   -1.50000
H26F  2    0.603794    0.340974    0.674716   -21.00000   -1.50000
AFIX   0
PART   0
C27   1    0.730048    0.193909    0.610168    11.00000    0.06017    0.11110 =
         0.10282   -0.06353    0.06297   -0.04739
AFIX  23
H27A  2    0.757769    0.230478    0.624933    11.00000   -1.20000
H27B  2    0.768335    0.166122    0.647709    11.00000   -1.20000
AFIX   0
C28   1    0.715211    0.180005    0.526803    11.00000    0.06000    0.05436 =
         0.08571   -0.01527    0.05576   -0.01019
AFIX 137
H28A  2    0.768690    0.179202    0.523763    11.00000   -1.50000
H28B  2    0.678725    0.208016    0.489522    11.00000   -1.50000
H28C  2    0.688419    0.143613    0.512067    11.00000   -1.50000
AFIX   0
C29   1    0.681906   -0.032435    0.631222    11.00000    0.03557    0.05608 =
         0.06492    0.00753    0.02608    0.01461
AFIX  23
H29A  2    0.673156   -0.062379    0.591764    11.00000   -1.20000
H29B  2    0.715019   -0.002930    0.621681    11.00000   -1.20000
AFIX   0
C30   1    0.730336   -0.054901    0.714873    11.00000    0.03444    0.05591 =
         0.05769   -0.01449    0.00700    0.01194
AFIX 137
H30A  2    0.785128   -0.067854    0.721612    11.00000   -1.50000
H30B  2    0.699572   -0.085837    0.723364    11.00000   -1.50000
H30C  2    0.737914   -0.025674    0.754237    11.00000   -1.50000
AFIX   0
C31   1    0.512371   -0.099878    0.579223    11.00000    0.04844    0.06416 =
         0.04641    0.00377    0.02713    0.02121
AFIX  23
H31A  2    0.558206   -0.115267    0.568933    11.00000   -1.20000
H31B  2    0.459178   -0.106373    0.530560    11.00000   -1.20000
AFIX   0
C32   1    0.509853   -0.130292    0.650288    11.00000    0.06731    0.05934 =
         0.05349    0.00474    0.03600    0.00702
AFIX 137
H32A  2    0.499947   -0.169791    0.637583    11.00000   -1.50000
H32B  2    0.464651   -0.115196    0.660860    11.00000   -1.50000
H32C  2    0.563342   -0.125441    0.698110    11.00000   -1.50000
AFIX   0
C33   1    0.203836   -0.052408    0.542254    11.00000    0.04547    0.03612 =
         0.06459   -0.00532    0.03663   -0.00740
AFIX  23
H33A  2    0.160616   -0.060656    0.560594    11.00000   -1.20000
H33B  2    0.245690   -0.082580    0.561409    11.00000   -1.20000
AFIX   0
C34   1    0.163867   -0.050930    0.451950    11.00000    0.06410    0.05310 =
         0.07108   -0.01988    0.02957   -0.02120
AFIX 137
H34A  2    0.134233   -0.085811    0.430682    11.00000   -1.50000
H34B  2    0.207087   -0.045927    0.433397    11.00000   -1.50000
H34C  2    0.124160   -0.020087    0.432756    11.00000   -1.50000
AFIX   0
C35   1    0.136664    0.041656    0.617658    11.00000    0.04287    0.04002 =
         0.06133    0.00316    0.02954    0.00332
AFIX  23
H35A  2    0.146181    0.058391    0.669848    11.00000   -1.20000
H35B  2    0.118543    0.002897    0.617443    11.00000   -1.20000
AFIX   0
C36   1    0.067223    0.073172    0.550005    11.00000    0.02742    0.06905 =
         0.07714    0.00035    0.02420    0.00437
AFIX 137
H36A  2    0.015911    0.071018    0.556950    11.00000   -1.50000
H36B  2    0.057341    0.056809    0.498096    11.00000   -1.50000
H36C  2    0.083641    0.112013    0.551345    11.00000   -1.50000
AFIX   0
C37   1    0.231968    0.135567    0.724682    10.50000    0.02426    0.03264 =
         0.04872   -0.00982    0.01556    0.00230
AFIX  23
H37A  2    0.171919    0.126382    0.694177    10.50000   -1.20000
H37B  2    0.235229    0.173345    0.746608    10.50000   -1.20000
AFIX   0
C37A  1    0.270895    0.094348    0.798525    10.50000    0.02113    0.02834 =
         0.03184    0.00473    0.01180   -0.00124
AFIX  23
H37C  2    0.256317    0.056517    0.776067    10.50000   -1.20000
H37D  2    0.240446    0.100569    0.831418    10.50000   -1.20000
AFIX   0
SB1   8    0.500000    0.325513    0.250000    10.50000    0.03399    0.05660 =
         0.05452    0.00000    0.01893    0.00000
F1    5    0.428121    0.273251    0.254412    11.00000    0.07024    0.13039 =
         0.14169    0.03609    0.03485   -0.03595
F2    5    0.559772    0.327009    0.361106    11.00000    0.14152    0.19496 =
         0.05443   -0.02185    0.01221   -0.03125
F3    5    0.571080    0.381459    0.249797    11.00000    0.09174    0.11457 =
         0.22618    0.04912    0.05749   -0.03221
CL1   6    0.517546    0.445883    0.681086    11.00000    0.07072    0.13849 =
         0.13012    0.06498    0.02522   -0.02312
C1S   1    0.500000    0.484712    0.750000    10.50000    0.30791    0.05777 =
         0.03422    0.00000   -0.01180    0.00000
AFIX   1
H1SA  2    0.452440    0.508860    0.721570    10.50000   -1.20000

AFIX   0
HKLF    4

REM  2novcm in C 2/c
REM R1 =  0.0728 for    4377 Fo > 4sig(Fo)  and  0.1201 for all    7018 data
REM    457 parameters refined using      0 restraints

END

WGHT      0.0826     18.3080

REM Highest difference peak  0.861,  deepest hole -0.876,  1-sigma level  0.106
Q1    1   0.5428  0.4702  0.7304  11.00000  0.05    0.86
Q2    1   0.4954  0.2928  0.2826  11.00000  0.05    0.77
Q3    1   0.5000  0.5126  0.7500  10.50000  0.05    0.61
Q4    1   0.5765  0.3392  0.2012  11.00000  0.05    0.61
Q5    1   0.5734  0.2778  0.3335  11.00000  0.05    0.58
;
_shelx_res_checksum              44989
_shelx_hkl_file
;
   2   0   0 2183.42   90.95
   2   0   0 2101.84   90.47
   4   0   0 1727.50   75.78
   4   0   0 1757.94   76.39
   6   0   0  191.20   13.31
   6   0   0  191.56   12.89
   8   0   0  202.17   14.94
   8   0   0  215.40   15.81
  10   0   0   41.02    7.97
 -12   0   0   34.97    7.94
 -12   0   0   37.58    8.24
 -14   0   0  253.33   21.16
 -14   0   0  239.69   21.62
 -16   0   0   56.81   11.67
 -16   0   0   63.91   12.39
 -18   0   0  142.10   20.40
 -18   0   0   94.56   16.12
 -20   0   0   -2.59    4.93
 -20   0   0    5.55    6.49
  -3  -1   0   19.79    3.19
   3   1   0   19.87    3.09
  -3  -1   0   18.26    2.87
   3  -1   0   13.37    2.87
   3  -1   0   21.67    2.98
   5  -1   0    5.81    2.64
   5  -1   0    8.64    2.86
  -5  -1   0   10.90    2.94
  -5  -1   0    8.49    3.15
   5   1   0    9.08    2.87
   7  -1   0   54.11    7.59
  -7  -1   0   72.04    8.34
   7  -1   0   57.16    8.41
  -7  -1   0   63.15    7.57
   7   1   0   66.69    8.24
   9   1   0   26.42    5.89
  -9  -1   0   37.77    6.78
   9  -1   0   26.55    6.14
   9  -1   0   23.30    6.20
  -9  -1   0   22.72    5.11
 -11  -1   0   65.65   10.07
 -11  -1   0   78.46   11.27
  11  -1   0   66.54   11.35
  11  -1   0   57.64    9.95
 -13   1   0   19.82    6.95
 -13   1   0   28.61    8.01
 -13  -1   0   27.60    7.12
 -13  -1   0   32.38    8.09
 -15   1   0   25.79    8.21
 -15  -1   0   38.10    9.45
 -15  -1   0   11.14    5.07
 -15   1   0   16.20    6.51
 -17  -1   0   32.02    9.74
 -17  -1   0   39.13   10.96
 -17   1   0   20.66    8.99
 -17   1   0   35.42   10.06
 -19   1   0    0.90    6.67
 -19   1   0   -6.77    5.57
 -19  -1   0   -0.06    6.85
  -2  -2   0   15.46    2.49
   2   2   0   14.59    2.40
   2  -2   0   21.38    2.85
   4  -2   0  142.14   10.01
   4  -2   0  151.03    9.37
   4   2   0  143.60    9.71
  -4  -2   0  165.37    9.54
  -4  -2   0  155.16    9.89
  -6  -2   0   14.09    3.78
   6  -2   0   14.03    3.56
   6  -2   0   17.31    4.50
   6   2   0   12.85    3.77
  -6  -2   0   16.63    4.38
  -8  -2   0    8.91    3.13
  -8  -2   0   12.59    4.07
   8  -2   0    8.62    4.00
   8   2   0   11.02    3.59
   8  -2   0   10.27    3.25
 -10  -2   0   54.53    9.01
  10  -2   0   61.08   10.38
 -10  -2   0   68.27    9.35
  10   2   0   45.97    8.68
  10  -2   0   59.57    9.30
 -12  -2   0   -7.08    2.85
 -12  -2   0    2.12    2.92
  12  -2   0    3.10    3.95
 -14  -2   0   28.99    8.00
 -14  -2   0   32.30    8.30
 -16  -2   0   -4.14    4.41
 -16  -2   0    1.41    4.84
 -16   2   0    2.79    5.77
 -16   2   0   -0.37    5.27
 -18   2   0   -5.73    7.34
 -18   2   0    0.46    5.74
 -18  -2   0   -3.01    5.73
 -20   2   0   -4.47    5.66
 -20   2   0   -7.16    5.07
 -20  -2   0   -5.88    4.91
   1  -3   0  191.87    9.80
  -1  -3   0  189.34    9.70
   1   3   0  189.87    9.77
  -1   3   0  193.89    9.38
   3  -3   0   57.41    5.50
  -3  -3   0   58.69    5.05
  -3   3   0   51.13    3.65
   3   3   0   56.78    5.27
   5   3   0    0.82    2.00
  -5   3   0   -1.22    1.13
  -5  -3   0    4.90    2.77
   5  -3   0    5.58    2.23
   5  -3   0    0.94    2.36
   7  -3   0  154.21   12.92
  -7  -3   0  169.97   12.70
  -7  -3   0  173.97   12.14
   7   3   0  200.60   13.83
   7  -3   0  174.15   12.54
  -9  -3   0   16.80    4.95
   9  -3   0   24.78    6.78
  -9  -3   0   15.54    4.39
   9   3   0   26.99    6.38
   9  -3   0   28.01    6.24
  11  -3   0  459.22   29.69
 -11  -3   0  453.53   27.02
  11  -3   0  453.78   28.75
 -11  -3   0  442.81   28.24
  13  -3   0  108.91   15.89
 -13  -3   0  115.19   14.40
 -13  -3   0  112.52   14.74
 -15  -3   0   23.86    7.16
 -17   3   0   14.77    8.23
 -17  -3   0   -2.44    5.52
 -17   3   0    3.73    7.70
 -19   3   0    7.84    8.23
 -19  -3   0   -3.75    5.86
 -19   3   0   -5.47    5.94
   0  -4   0   23.53    2.94
   0   4   0   28.12    3.29
   2   4   0  533.57   24.58
  -2   4   0  555.27   23.66
   2   4   0  532.45   24.73
   2  -4   0  533.30   25.11
  -2  -4   0  520.70   24.79
  -4  -4   0  430.09   21.83
   4   4   0  421.34   21.98
  -4   4   0  429.00   19.25
   4  -4   0  428.46   22.34
  -6   4   0    8.87    2.14
   6   4   0    7.12    3.35
   6  -4   0    9.98    2.97
   6  -4   0   11.63    4.10
  -6  -4   0    9.09    3.59
   8  -4   0   87.41   10.65
  -8  -4   0   73.50    9.45
  -8   4   0   78.41    5.61
   8  -4   0   78.74    9.29
   8   4   0   76.65   10.01
  10  -4   0   66.97    9.98
  10  -4   0   59.22   10.20
 -10  -4   0   42.22    8.36
  12  -4   0   11.56    5.17
 -12  -4   0    6.55    4.08
 -14  -4   0   65.13   11.70
  14  -4   0   61.26   12.57
 -16  -4   0   78.69   13.73
 -18   4   0   85.27   18.04
 -18   4   0  111.47   20.35
 -18  -4   0  106.64   17.68
 -20   4   0    6.36   10.62
 -20   4   0   -3.12    9.00
 -20  -4   0    0.97    4.42
  -1  -5   0  931.37   41.09
   1  -5   0  926.58   41.19
   1   5   0  908.78   40.48
  -1   5   0  923.96   39.93
   3   5   0 1041.44   47.58
   3  -5   0 1069.64   48.09
  -3   5   0 1078.14   45.22
  -3  -5   0 1067.69   47.75
   3  -5   0 1074.78   46.12
   3   5   0 1036.13   46.55
   5   5   0   86.41    8.52
  -5   5   0   80.60    5.73
  -5  -5   0   99.23    8.00
   5  -5   0   79.61    8.43
   7  -5   0   94.95   10.36
   7  -5   0   87.95    8.73
  -7   5   0   87.99    6.01
  -7  -5   0   76.75    9.25
   7   5   0   72.52    9.40
  -9   5   0    2.98    2.18
   9  -5   0    1.33    3.24
  -9  -5   0    4.28    3.48
   9  -5   0   -0.78    1.91
  11  -5   0    0.32    3.29
 -11  -5   0    5.65    4.08
 -13  -5   0  252.05   20.24
  13  -5   0  222.87   22.19
 -15  -5   0  139.05   17.48
  15  -5   0   97.25   16.27
 -17  -5   0  105.86   17.14
 -19   5   0   74.71   19.12
 -19   5   0  118.21   21.78
 -19  -5   0   68.32   14.08
   0   6   0   65.37    6.06
   0  -6   0   74.34    5.91
   2  -6   0   25.60    4.03
   2   6   0   23.20    4.21
  -2  -6   0   22.23    3.80
  -2   6   0   24.09    3.73
   4   6   0   63.16    6.75
  -4  -6   0   71.85    6.89
   4  -6   0   54.22    4.72
   4  -6   0   57.40    6.82
  -4   6   0   60.10    5.09
  -6   6   0  106.75    7.02
  -6  -6   0   90.59    9.45
   6  -6   0  114.87   10.63
   6   6   0  102.23   10.17
  -8  -6   0  230.20   16.23
   8  -6   0  227.85   15.57
  -8   6   0  242.08   12.43
   8  -6   0  199.59   16.20
  10  -6   0  122.90   13.09
 -10  -6   0  112.89   13.08
  10  -6   0  110.65   13.66
  12  -6   0   71.83   12.51
 -12  -6   0   88.64   12.76
  14  -6   0   19.18    7.51
 -14  -6   0    5.66    5.16
 -16  -6   0   18.22    7.51
  16  -6   0   39.29   11.17
 -18  -6   0   -4.75    5.58
 -20   6   0    1.15   13.90
 -20   6   0   13.26   15.20
 -20  -6   0   12.43    4.86
   1   7   0  178.81   11.73
  -1   7   0  195.73   11.53
   1  -7   0  199.21   11.68
  -1  -7   0  181.72   11.27
   3  -7   0  197.03    9.71
   3  -7   0  170.20   11.83
  -3   7   0  204.27   11.43
  -3  -7   0  203.45   12.12
   3   7   0  175.03   11.94
  -5  -7   0  122.85    9.64
   5  -7   0  117.64    8.19
  -5   7   0  117.37    7.97
   5  -7   0  131.57   10.42
   7  -7   0   33.93    5.82
  -7   7   0   38.02    4.62
   7  -7   0   36.11    6.83
  -7  -7   0   33.45    6.23
   9  -7   0   82.50   11.68
  -9  -7   0   95.17   11.48
  -9   7   0  104.55    7.58
   9  -7   0  113.27   11.34
 -11  -7   0    4.20    3.68
  11  -7   0    8.02    4.48
 -13  -7   0   35.71    8.29
  13  -7   0   28.02    8.60
  15  -7   0    9.47    5.92
 -15  -7   0    7.77    4.83
 -17  -7   0   -1.23    4.97
  17  -7   0    7.21    5.93
 -19  -7   0    2.63    6.40
   0  -8   0   44.77    5.39
   0   8   0   37.45    5.71
  -2   8   0   15.76    3.63
   2   8   0   19.80    4.20
  -2  -8   0   13.62    3.54
   2  -8   0   20.99    4.26
   4   8   0  104.19    8.86
  -4  -8   0  119.53    9.13
   4  -8   0  105.36    9.16
  -4   8   0   97.06    7.72
   4  -8   0  102.45    6.62
  -6  -8   0 1076.49   51.00
   6  -8   0 1033.68   51.51
   6  -8   0 1046.26   48.84
  -6   8   0 1106.95   47.15
  -8   8   0  373.13   19.26
  -8  -8   0  379.27   23.44
   8  -8   0  419.22   22.82
   8  -8   0  370.09   23.92
  10  -8   0  224.91   17.79
 -10  -8   0  191.12   16.20
  12  -8   0  140.14   16.88
 -12  -8   0  122.64   15.15
 -14  -8   0   66.24   11.69
  14  -8   0   39.78   10.21
 -16  -8   0   -0.25    5.61
  16  -8   0   -0.93    5.57
  18  -8   0    2.53    6.38
 -18  -8   0   -3.17    5.42
 -20  -8   0   -7.60    4.66
  -1  -9   0 1946.01   83.39
  -1   9   0 1871.16   81.16
   1   9   0 1871.56   81.68
   1  -9   0 1856.69   83.23
  -3   9   0  368.64   19.32
   3   9   0  373.01   20.72
   3  -9   0  340.97   20.11
   3  -9   0  342.09   16.27
  -3  -9   0  385.11   20.25
  -5  -9   0  333.62   19.40
  -5   9   0  321.81   17.62
   5  -9   0  321.25   16.79
   5  -9   0  319.28   19.71
   7  -9   0   27.45    4.94
  -7  -9   0   25.70    5.77
   7  -9   0   34.80    6.97
  -7   9   0   28.32    4.88
  -9  -9   0   24.32    5.93
  -9   9   0   29.62    4.91
   9  -9   0   48.85    8.98
 -11  -9   0   -3.94    3.46
  11  -9   0    3.17    3.50
 -13  -9   0    7.82    5.11
  13  -9   0   17.50    6.58
  15  -9   0  114.94   17.66
 -15  -9   0   99.05   15.39
  17  -9   0   42.04   11.73
 -17  -9   0   35.51   10.07
 -19  -9   0   -2.18    5.05
  19  -9   0   -3.49    4.91
   0 -10   0  201.75   13.26
   0  10   0  193.77   13.51
  -2 -10   0   15.62    3.99
  -2  10   0   14.80    4.03
   2 -10   0   20.62    4.63
   2  10   0   30.04    5.56
  -4  10   0   40.66    5.81
  -4 -10   0   29.33    5.42
   4  10   0   23.07    5.20
   4 -10   0   39.04    6.66
  -6  10   0  100.66    8.50
   6 -10   0   96.18    7.52
   6 -10   0  117.34   11.75
  -6 -10   0   85.21    9.88
  -8  10   0    7.29    3.26
  -8 -10   0    8.70    4.14
   8 -10   0   12.06    4.98
  10 -10   0   67.39   11.21
 -10 -10   0   68.69   10.56
 -12 -10   0    6.63    5.02
  12 -10   0   -2.22    3.37
  14 -10   0   -1.58    4.05
 -14 -10   0   -0.60    4.31
  16 -10   0   20.02    8.64
 -16 -10   0   38.15    9.88
  18 -10   0   10.37    7.55
 -18 -10   0   13.30    6.77
   1  11   0   19.30    5.10
   1 -11   0   17.88    4.27
  -1  11   0   25.85    5.54
  -1 -11   0   18.62    4.37
   3  11   0  759.17   39.24
  -3  11   0  796.75   38.08
  -3 -11   0  822.05   39.40
   3 -11   0  787.90   39.64
  -5 -11   0   11.78    4.11
   5 -11   0   11.02    4.12
  -5  11   0    6.80    3.24
   7 -11   0   12.85    4.83
  -7 -11   0   13.17    4.17
  -7  11   0   12.97    3.98
  -9 -11   0   36.77    7.32
   9 -11   0   37.73    7.96
  -9  11   0   31.94    5.65
  11 -11   0   99.55   14.33
 -11 -11   0  102.59   13.69
 -13 -11   0   49.82   10.58
  13 -11   0   30.47    9.22
 -15 -11   0   19.10    7.82
  15 -11   0   16.89    8.24
  17 -11   0   20.20    9.23
 -17 -11   0   25.15    8.40
  19 -11   0   -5.05    4.86
 -19 -11   0   -4.82    4.61
   0  12   0   32.81    6.38
   0 -12   0   44.30    6.81
  -2  12   0    7.20    3.76
   2  12   0    2.78    2.48
  -2 -12   0    6.97    3.24
   2 -12   0   13.97    3.92
  -4  12   0   12.92    4.15
  -4 -12   0   27.22    5.37
   4 -12   0   15.26    4.62
   4  12   0   28.77    6.36
   6 -12   0   47.68    8.42
  -6  12   0   47.19    6.92
  -6 -12   0   53.76    8.67
   8 -12   0  262.90   19.59
  -8  12   0  264.41   16.18
  -8 -12   0  249.73   18.38
  10 -12   0   86.82   13.06
 -10 -12   0   63.51   10.55
 -12 -12   0   15.39    5.72
  12 -12   0   11.33    5.55
  14 -12   0    5.26    5.47
 -14 -12   0    3.07    4.92
  16 -12   0    3.37    5.24
 -16 -12   0    9.23    6.15
 -18 -12   0    7.23    5.82
  18 -12   0    1.64    6.28
   1  13   0   47.13    7.98
   1 -13   0   39.57    6.87
  -1  13   0   42.41    7.33
  -1 -13   0   49.11    7.60
   3 -13   0   34.50    6.73
   3  13   0   40.76    7.37
  -3  13   0   33.41    6.26
  -3 -13   0   34.06    6.37
  -5 -13   0    0.20    2.50
   5 -13   0    3.87    3.54
  -5  13   0   -0.52    2.53
   5  13   0    5.70    2.97
  -7  13   0   27.10    5.77
   7 -13   0   14.05    5.50
  -7 -13   0   27.69    6.57
   9 -13   0  239.26   19.90
  -9 -13   0  252.90   19.35
  -9  13   0  269.46   16.75
  11 -13   0   19.74    7.04
 -11 -13   0   23.44    6.73
  13 -13   0   10.36    6.18
 -13 -13   0    1.05    4.41
  15 -13   0   28.76   10.07
 -15 -13   0   33.74    9.82
  17 -13   0   40.73   12.23
 -17 -13   0   34.90   10.48
   0  14   0  723.28   37.66
   0 -14   0  714.56   37.58
   2 -14   0  384.67   22.88
   2  14   0  340.79   22.76
  -2  14   0  387.49   23.01
  -2 -14   0  361.02   22.19
  -4  14   0  145.49   13.21
  -4 -14   0  145.44   12.43
   4  14   0  147.28   14.28
   4 -14   0  157.99   13.29
   6 -14   0   65.34   10.49
  -6  14   0   92.95   10.29
  -6 -14   0   95.61   11.62
  -8  14   0   11.30    4.48
   8 -14   0    5.90    3.77
  -8 -14   0    5.24    4.10
 -10 -14   0   27.71    7.19
  10 -14   0   48.93   10.43
 -12 -14   0    9.58    4.99
  12 -14   0    4.64    5.27
 -14 -14   0   90.94   14.83
  14 -14   0   87.48   15.91
 -16 -14   0   88.99   15.89
  16 -14   0   57.23   13.71
 -18 -14   0    5.01    4.96
  18 -14   0    9.26    5.47
   1 -15   0    5.41    3.27
   1  15   0   15.64    5.43
  -1  15   0   14.23    4.96
  -1 -15   0   11.98    4.10
  -3  15   0    1.98    3.65
   3 -15   0    9.25    4.03
  -3 -15   0    9.09    3.64
   3  15   0    9.73    4.19
   5 -15   0    5.68    3.99
   5  15   0   20.36    5.73
  -5 -15   0   11.12    4.11
  -5  15   0    8.47    4.28
  -7  15   0   69.90    9.52
   7 -15   0   60.99   10.52
  -7 -15   0   51.06    9.10
   9 -15   0    2.83    3.72
  -9 -15   0    0.06    4.18
 -11 -15   0    0.45    4.58
  11 -15   0    2.41    4.40
 -13 -15   0   29.45    8.19
  13 -15   0   29.83    9.23
 -15 -15   0   10.47    6.97
  15 -15   0    8.68    7.14
 -17 -15   0   -1.26    6.03
  17 -15   0  -11.80    5.23
   0 -16   0  294.87   20.52
   0  16   0  339.16   22.26
  -2 -16   0   24.51    5.84
  -2  16   0   36.30    7.79
   2  16   0   25.12    7.09
   2 -16   0   17.17    5.47
  -4  16   0   20.40    6.24
   4  16   0   37.85    8.02
   4 -16   0   20.03    5.93
  -4 -16   0   26.43    6.18
   6 -16   0   34.39    7.96
  -6  16   0   30.41    6.90
  -6 -16   0   12.21    4.88
   8 -16   0    7.94    4.65
  -8  16   0    0.02    3.95
  -8 -16   0    9.70    5.03
  10 -16   0   -0.15    4.17
 -10 -16   0    0.83    4.42
  12 -16   0    4.00    4.91
 -12 -16   0    9.64    6.15
  14 -16   0   15.51    8.22
 -14 -16   0    6.45    6.63
 -16 -16   0   32.63    9.69
  16 -16   0   -0.04    6.45
  -1  17   0    4.97    4.05
   1  17   0    6.00    4.50
  -1 -17   0   -0.61    2.72
   1 -17   0    2.32    3.18
   3  17   0   43.10    8.83
  -3 -17   0   37.86    7.67
   3 -17   0   35.24    7.44
  -3  17   0   39.47    8.24
  -5 -17   0   87.82   12.20
  -5  17   0  125.10   13.63
   5 -17   0  134.22   14.75
  -7 -17   0  138.53   15.54
   7 -17   0  168.68   17.62
  -7  17   0  143.10   14.45
  -9 -17   0   64.61   11.18
   9 -17   0   52.97   11.20
 -11 -17   0   65.23   11.62
  11 -17   0   58.86   12.40
 -13 -17   0   40.24   10.34
  13 -17   0   42.54   11.36
  15 -17   0    5.89    6.95
 -15 -17   0   -4.87    6.39
 -17 -17   0   -7.06    4.54
  17 -17   0   -1.18    4.47
   0  18   0  248.48   19.21
   0 -18   0  213.75   17.09
  -2  18   0  373.22   24.80
   2 -18   0  357.41   24.16
   2  18   0  353.42   24.73
  -2 -18   0  354.09   23.43
   4 -18   0   79.43   12.13
   4  18   0  112.72   14.45
  -4  18   0  104.62   12.98
  -4 -18   0   92.90   12.44
  -6  18   0   14.39    5.79
  -6 -18   0   14.01    5.38
   6 -18   0   28.94    7.90
  -8  18   0    5.30    5.18
   8 -18   0   -1.88    3.52
  -8 -18   0   -0.41    3.71
 -10 -18   0    8.06    5.34
  10 -18   0    7.21    6.22
 -12 -18   0   30.25    9.01
  12 -18   0   21.56    9.33
 -14 -18   0   28.19    9.11
  14 -18   0    4.22    6.65
 -16 -18   0    4.84    6.58
  16 -18   0    6.55    5.84
   1  19   0    6.10    4.66
  -1 -19   0    4.04    4.04
  -1  19   0   13.34    5.43
   1 -19   0    5.52    4.07
   3 -19   0  251.49   19.88
   3  19   0  240.47   20.28
  -3  19   0  237.11   19.51
  -3 -19   0  285.06   20.32
  -5  19   0   -0.80    4.18
  -5 -19   0   -1.22    3.10
   5 -19   0    4.56    3.48
  -7 -19   0    3.70    4.07
   7 -19   0   -2.80    3.61
  -7  19   0    0.23    4.38
   9 -19   0    4.60    4.22
  -9 -19   0    2.88    4.24
  11 -19   0    5.23    6.81
 -11 -19   0   18.26    7.45
 -13 -19   0    3.96    6.11
  13 -19   0   10.87    6.84
  15 -19   0   -5.21    5.29
 -15 -19   0   -0.25    5.61
   0  20   0   14.76    6.96
   0 -20   0   10.86    4.62
  -2  20   0   64.53   11.73
  -2 -20   0   61.93   10.58
   2 -20   0   55.80   10.39
   2  20   0   73.87   12.61
  -4 -20   0    4.37    3.88
   4  20   0    0.17    4.33
   4 -20   0    6.68    4.18
  -4  20   0   -2.31    4.12
   6 -20   0    7.51    4.64
  -6  20   0   20.36    7.11
  -6 -20   0    7.90    4.55
  -8 -20   0    3.39    4.67
   8 -20   0    5.35    4.61
  -8  20   0   15.70    6.71
 -10 -20   0   -3.79    5.00
  10 -20   0    4.28    5.15
  12 -20   0    5.11    6.54
 -12 -20   0   14.57    7.71
  14 -20   0   13.01    7.92
 -14 -20   0   22.96    8.71
 -16 -20   0   -2.87    5.01
  16 -20   0    0.17    7.07
   1  21   0   -3.54    3.21
  -1 -21   0   -0.79    3.47
   1 -21   0    6.02    4.10
  -1  21   0    0.51    5.20
  -3 -21   0    1.59    3.45
   3 -21   0   -3.52    2.88
   3  21   0   -2.97    4.13
  -3  21   0    0.08    4.70
  -5  21   0    4.45    5.33
   5 -21   0    5.61    4.61
  -5 -21   0    1.91    3.80
  -7 -21   0   10.26    5.63
  -7  21   0   26.43    8.49
   7 -21   0   18.55    7.37
   9 -21   0  120.71   18.69
  -9 -21   0   99.00   15.96
  11 -21   0    5.95    7.38
 -11 -21   0   22.08    8.21
  13 -21   0    9.15    6.96
 -13 -21   0   13.55    7.13
  15 -21   0    3.76    5.99
 -15 -21   0    5.81    4.99
   0  22   0   22.83    8.26
   0 -22   0   21.73    6.15
   2  22   0   10.01    6.62
  -2 -22   0   17.65    5.98
   2 -22   0   20.69    6.63
  -2  22   0    7.51    6.80
  -4  22   0   36.40    9.64
  -4 -22   0   38.81    8.86
   4 -22   0   29.94    8.64
  -6 -22   0    5.73    4.93
   6 -22   0    0.26    3.87
  -6  22   0    7.77    5.72
   8 -22   0   68.86   13.97
  -8 -22   0   91.36   14.94
  -8  22   0  120.99   15.52
  10 -22   0   51.98   13.03
 -10 -22   0   44.69   11.01
 -12 -22   0   26.68    8.92
  12 -22   0   -1.21    6.62
  14 -22   0    9.43    6.70
 -14 -22   0   -1.58    5.49
  -1  23   0   33.34    9.46
   1 -23   0   57.72   10.70
   1  23   0   27.38    8.87
  -1 -23   0   39.63    8.67
  -3 -23   0   -3.82    3.86
   3 -23   0    2.73    3.74
   3  23   0    2.69    5.15
  -3  23   0    0.75    4.91
  -5  23   0   13.59    7.52
  -5 -23   0   24.61    7.66
   5 -23   0   21.14    7.86
  -7 -23   0   17.28    7.97
   7 -23   0    9.17    6.27
  -7  23   0   10.05    6.82
   9 -23   0   14.86    8.29
  -9 -23   0   12.33    6.99
 -11 -23   0   10.10    6.64
  11 -23   0    8.98    7.93
  13 -23   0    3.12    6.54
 -13 -23   0    3.70    6.42
   0  24   0   11.87    7.11
   0 -24   0   15.11    5.64
  -2  24   0    6.54    5.89
   2  24   0    0.63    5.17
   2 -24   0    3.25    4.75
  -2 -24   0   14.67    6.19
  -4  24   0    6.09    6.43
  -4 -24   0   11.36    4.82
   4 -24   0    9.59    5.70
  -6  24   0    0.48    6.40
  -6 -24   0   -7.37    5.01
   6 -24   0   -0.93    4.92
   8 -24   0    4.24    5.57
  -8 -24   0   10.87    6.74
 -10 -24   0    0.88    5.80
  10 -24   0    2.33    6.41
  12 -24   0    0.28    7.13
 -12 -24   0    2.53    5.54
  -1 -25   0   16.08    6.46
   1  25   0    8.51    7.39
  -1  25   0   13.32    8.13
   1 -25   0   17.52    6.63
  -3 -25   0   24.13    7.87
  -3  25   0   18.11    7.90
   3 -25   0    7.30    5.80
  -5 -25   0    0.08    4.59
   5 -25   0    8.38    5.56
  -5  25   0   13.09    8.07
   7 -25   0    0.21    5.99
  -7  25   0    9.22    7.84
  -7 -25   0    5.07    6.46
  -9 -25   0    7.12    5.79
   9 -25   0    1.53    6.65
  11 -25   0   -1.35    5.39
 -11 -25   0   -7.57    5.13
   0  26   0    4.51    7.29
   0 -26   0    6.69    5.83
  -2 -26   0   -7.06    3.68
   2 -26   0    5.47    5.50
  -2  26   0   -4.16    5.76
  -4 -26   0   27.44    8.67
  -4  26   0   25.48   10.14
   4 -26   0   15.03    7.76
   6 -26   0   26.37    9.53
  -6  26   0   47.77   11.73
  -6 -26   0   18.57    8.92
  -8 -26   0   54.50   12.02
   8 -26   0   35.77   10.03
  10 -26   0   18.44    8.38
 -10 -26   0   26.26    9.27
   1 -27   0   -2.43    4.98
  -1  27   0    6.09    7.58
  -1 -27   0    6.24    6.05
   3 -27   0    6.18    5.86
  -3  27   0   21.53    9.05
  -3 -27   0    6.24    5.88
  -5  27   0    1.47    6.26
  -5 -27   0   -0.92    5.17
   5 -27   0    4.27    5.14
  -7  27   0    2.77    7.51
   7 -27   0    9.12    6.71
  -7 -27   0    4.54    6.63
  -9 -27   0   12.90    6.57
   9 -27   0    4.69    6.07
   0  28   0   -5.02    5.47
   0 -28   0    1.01    4.82
  -2  28   0   -3.53    6.82
  -2 -28   0    1.45    5.07
   2 -28   0    7.18    5.76
   4 -28   0   11.50    6.96
  -4 -28   0   13.54    6.93
  -4  28   0   11.27    8.60
   6 -28   0    2.72    6.03
  -6  28   0   -2.21    7.46
  -6 -28   0    4.23    5.40
   8 -28   0   -5.98    7.03
  -8 -28   0   -1.34    4.57
   1 -29   0   15.67    7.52
  -1 -29   0    6.82    5.74
   3 -29   0    6.72    6.32
  -3  29   0   15.60    9.44
  -3 -29   0   14.58    7.52
  -5 -29   0    4.23    6.03
   5 -29   0   -5.65    5.59
  -5  29   0    4.15    8.01
   7 -29   0   -2.94    4.91
  -7 -29   0    2.21    5.02
   0 -30   0   -4.97    5.01
   2 -30   0    0.75    5.70
  -2 -30   0    1.99    5.46
  -4 -30   0   10.79    5.25
  -4  30   0    8.07    9.44
   4 -30   0    1.15    4.78
  -6  30   0   -5.74    9.05
   6 -30   0    3.60    5.82
  -6 -30   0    4.90    5.49
  -1 -31   0   -5.23    4.09
   1 -31   0    1.39    4.64
   3 -31   0   -0.75    4.51
  -3 -31   0    2.64    4.26
 -20   0   1   -2.44    5.91
 -20   0   1    7.44    6.87
 -18   0   1   -4.19    5.49
 -18   0   1    7.69    7.39
 -16   0   1   -6.68    4.17
 -16   0   1   -2.98    3.45
 -14   0   1    4.69    4.60
  14   0  -1    4.04    4.38
 -14   0   1    2.89    4.95
 -12   0   1    2.32    3.23
 -12   0   1    3.80    3.25
  12   0  -1   -0.60    2.47
  10   0  -1   -0.36    2.91
  10   0  -1    0.91    2.39
   8   0  -1   -1.76    1.67
   8   0  -1    0.62    2.41
   6   0  -1    0.82    1.62
   6   0  -1   -2.29    1.70
   4   0  -1   -0.21    1.95
   4   0  -1    1.20    1.39
   2   0  -1   -0.84    0.74
   2   0  -1   -2.72    0.82
   2   0   1    0.79    1.34
   4   0   1    1.52    2.24
   6   0   1    0.23    2.48
 -10   0  -1    0.67    3.21
 -10   0  -1    2.20    3.63
 -12   0  -1   -3.53    3.82
 -12   0  -1   -0.98    3.77
 -14   0  -1    1.09    6.19
 -14   0  -1    3.44    6.01
 -16   0  -1    2.80    6.58
 -16   0  -1   -0.12    6.61
 -18   0  -1   -3.98    7.10
 -18   0  -1   -7.92    7.96
 -20   0  -1   10.24   11.75
 -21  -1   1    1.45    5.38
 -21   1   1    7.71    6.37
 -21   1   1   -7.48    6.04
 -19   1   1    1.69    6.17
 -19  -1   1    0.11    6.39
 -19   1   1   -0.33    6.59
 -19  -1   1   -2.38    6.90
 -17  -1   1   14.72    7.32
 -17  -1   1   26.72    8.79
 -17   1   1   20.94    7.57
 -17   1   1   18.36    8.60
 -15  -1   1  120.81   15.56
 -15  -1   1  111.43   15.85
 -15   1   1  133.34   16.58
 -15   1   1   95.54   14.88
 -13  -1   1  309.43   23.67
  13   1  -1  336.06   25.35
  13  -1  -1  423.84   27.40
 -13  -1   1  317.03   23.02
 -11  -1   1  342.23   21.86
  11  -1  -1  346.15   23.05
  11   1  -1  310.82   22.46
  11  -1  -1  347.67   23.99
 -11  -1   1  309.77   22.10
   9   1  -1  119.40   12.02
   9  -1  -1  115.75   12.30
  -9  -1   1  103.32   10.59
   9  -1  -1  106.23   11.25
  -9  -1   1   98.14   10.96
   7  -1  -1   16.82    4.77
   7  -1  -1   19.96    4.72
   7   1  -1   21.00    4.59
   5  -1  -1  108.67    8.14
   5  -1  -1  122.84    8.97
   5   1  -1  108.24    8.23
  -3  -1   1 1196.88   51.46
   3  -1  -1 1176.81   51.17
   3  -1  -1 1197.15   51.79
  -3  -1   1 1190.28   49.27
   3   1  -1 1143.93   51.36
  -1  -1  -1    0.79    0.98
   1  -1   1    1.30    0.92
   3  -1   1  999.54   45.87
  -3  -1  -1 1053.06   43.82
  -3  -1  -1 1007.72   45.58
   5  -1   1   71.10    7.85
  -5  -1  -1   78.16    7.42
  -5  -1  -1   64.78    7.36
  -7  -1  -1  144.70   11.97
  -7  -1  -1  148.25   11.54
   7  -1   1  156.72   12.59
  -9  -1  -1   47.92    8.15
  -9  -1  -1   67.49    9.82
   9  -1   1   77.10   11.09
 -11  -1  -1   79.97   11.92
 -11  -1  -1   77.68   11.24
 -13   1  -1   22.24    8.04
 -13  -1  -1   38.07    9.55
 -13  -1  -1   37.25    8.89
 -13   1  -1   27.99    8.15
 -15   1  -1   25.44    8.40
 -15  -1  -1   33.98   10.24
 -15  -1  -1   26.84    8.92
 -15   1  -1   27.08    9.28
 -17  -1  -1   14.76    8.51
 -17  -1  -1    7.57    8.15
 -17   1  -1   13.54    9.43
 -17   1  -1    6.35    8.52
 -19  -1  -1   -4.13    9.75
 -19   1  -1    5.29   10.36
 -19   1  -1   39.71   14.35
 -20   2   1   20.72    9.00
 -20  -2   1   16.14    7.89
 -20   2   1    8.86    7.53
 -18  -2   1  176.13   22.37
 -18   2   1  139.25   20.63
 -18   2   1  190.70   22.95
 -16  -2   1   61.77   11.92
 -16  -2   1   50.76   10.79
 -16   2   1   45.37   10.43
 -16   2   1   38.20    9.95
  14  -2  -1   64.27   12.51
 -14  -2   1   90.87   13.30
  14  -2  -1   82.28   13.63
 -14  -2   1   72.64   12.18
 -12  -2   1    4.26    3.62
 -12  -2   1   10.77    4.82
  12  -2  -1    0.70    3.46
  12   2  -1    8.75    4.92
  12  -2  -1    5.69    4.75
 -10  -2   1   17.32    5.13
  10  -2  -1   18.51    5.05
  10   2  -1   20.49    5.50
  10  -2  -1   24.45    6.40
 -10  -2   1   11.40    4.09
  -8  -2   1   29.53    5.31
   8   2  -1   29.97    5.94
   8  -2  -1   25.78    5.78
   8  -2  -1   29.69    5.80
  -8  -2   1   19.09    4.56
   6   2  -1    8.91    3.29
   6  -2  -1    0.96    2.52
  -6  -2   1    4.23    2.70
  -6  -2   1    6.59    2.59
   6  -2  -1    5.10    2.50
  -4  -2   1  671.28   32.08
   4  -2  -1  700.33   32.71
   4   2  -1  682.21   29.81
   4   2  -1  667.85   32.20
   4  -2  -1  714.78   31.97
  -4  -2   1  719.88   30.91
   2  -2  -1 1024.00   44.19
  -2  -2   1 1000.12   43.80
   2   2  -1 1030.38   43.92
   0  -2  -1 4957.43  206.58
   2  -2   1  208.28   11.20
  -2  -2  -1  205.25   11.11
   4  -2   1    5.37    2.81
  -4  -2  -1    6.35    2.64
  -4  -2  -1    0.08    2.16
  -6  -2  -1  397.07   21.33
   6  -2   1  394.99   22.78
  -6  -2  -1  381.60   22.05
  -8  -2  -1    8.29    4.43
  -8  -2  -1    6.47    3.92
   8  -2   1   16.41    5.37
  10  -2   1    9.47    4.80
 -10  -2  -1   13.49    5.18
 -10  -2  -1   12.74    5.06
 -12  -2  -1   64.68   11.22
 -12  -2  -1   69.21   12.08
  12  -2   1   74.65   12.74
 -14   2  -1  132.41   17.18
 -14   2  -1  130.87   17.88
 -14  -2  -1  141.62   17.16
 -14  -2  -1  152.14   18.52
 -16   2  -1  120.56   18.59
 -16  -2  -1  164.95   20.82
 -16  -2  -1  127.21   18.18
 -16   2  -1  117.95   19.28
 -18  -2  -1   55.40   14.01
 -18   2  -1   68.54   15.63
 -18   2  -1   91.03   17.41
 -20   2  -1   -2.71   12.01
 -20  -2  -1   -3.67    6.51
 -20   2  -1    4.45   12.26
 -21  -3   1   -7.34    5.81
 -21   3   1   -1.57    6.72
 -21   3   1    0.88    6.31
 -19  -3   1   68.33   13.77
 -19   3   1   34.83   11.71
 -19   3   1   72.47   16.07
 -17   3   1    5.53    6.83
 -17  -3   1   19.12    7.71
 -17   3   1   23.73    8.68
 -15  -3   1   22.28    7.65
  15  -3  -1   14.46    7.39
 -15  -3   1   10.70    6.31
  13  -3  -1    0.61    3.95
 -13  -3   1    4.94    3.95
  13   3  -1    7.15    4.92
  13  -3  -1    4.97    4.45
 -13  -3   1    6.29    4.81
  11  -3  -1   77.22   11.00
 -11  -3   1   79.09   11.18
 -11  -3   1   71.62   10.04
  11   3  -1   78.84   11.65
  11  -3  -1   84.67   12.32
   9  -3  -1   10.08    3.40
   9  -3  -1    5.46    4.19
  -9   3   1   11.40    1.98
  -9  -3   1   18.46    4.34
  -9  -3   1   11.01    4.33
   9   3  -1   17.38    5.28
   7   3  -1   34.17    6.20
  -7  -3   1   32.30    5.52
  -7  -3   1   38.52    6.40
   7  -3  -1   38.59    6.80
   7  -3  -1   44.24    6.30
   5  -3  -1  737.94   36.25
   5   3  -1  752.67   36.02
  -5  -3   1  752.32   35.80
   5  -3  -1  774.02   35.41
   3   3  -1  625.29   29.44
  -3   3   1  651.37   27.32
  -3  -3   1  656.37   29.40
   3  -3  -1  638.31   29.89
   1  -3  -1  470.31   21.63
  -1   3   1  489.56   21.12
  -1  -3   1  486.76   21.29
   1   3  -1  452.38   20.90
  -1  -3  -1   37.51    3.62
  -1   3  -1   41.00    3.24
   1  -3   1   35.78    3.37
   3  -3   1  105.85    7.80
  -3  -3  -1   99.11    7.52
   5  -3   1  106.72    9.07
  -5  -3  -1   92.90    8.36
  -7  -3  -1  112.37   10.88
  -7  -3  -1   98.41    9.96
   7  -3   1  111.72   11.42
  -9  -3  -1    1.30    3.24
   9  -3   1    1.83    3.66
  -9  -3  -1   -2.38    2.84
  11  -3   1    7.66    5.57
 -11  -3  -1   26.54    6.75
 -11  -3  -1   32.31    6.92
 -13  -3  -1   60.87   11.58
  13  -3   1   63.54   12.65
 -13  -3  -1   60.03   11.30
 -15  -3  -1   54.81   11.69
 -15   3  -1   69.34   13.84
 -15   3  -1   42.65   10.54
 -17   3  -1   44.09   13.09
 -17  -3  -1   33.59   10.12
 -17   3  -1    8.41    9.58
 -19   3  -1   -0.11   10.03
 -19   3  -1   -3.21   10.05
 -19  -3  -1  -15.94    4.80
 -20   4   1   -3.45    6.90
 -20   4   1   -2.28    7.05
 -20  -4   1    0.01    5.57
 -18  -4   1   24.70    8.77
 -18   4   1   13.65    9.47
 -18   4   1    0.65    7.45
 -16  -4   1   41.24   10.20
  16  -4  -1   40.97   11.35
  14  -4  -1   28.62    8.35
 -14  -4   1   36.91    8.66
  14  -4  -1   21.19    7.33
 -12  -4   1   11.70    4.78
  12  -4  -1   11.42    4.98
  12  -4  -1   18.32    6.23
  12   4  -1   18.04    6.52
 -10  -4   1  172.28   14.47
  10  -4  -1  180.77   14.53
  10  -4  -1  171.81   16.49
  10   4  -1  177.00   15.13
  -8   4   1    2.69    1.60
  -8  -4   1    6.07    3.14
   8  -4  -1    6.56    2.77
   8   4  -1    1.12    2.68
   8  -4  -1    2.20    2.74
  -6  -4   1   27.43    4.97
   6  -4  -1   38.16    6.30
  -6   4   1   32.01    2.90
   6   4  -1   32.36    5.61
   6  -4  -1   25.79    4.56
   4   4  -1 3139.36  137.73
   4  -4  -1 3288.13  138.58
  -4  -4   1 3245.18  137.84
  -4   4   1 3287.95  131.70
  -2   4   1  585.51   25.50
  -2  -4   1  560.76   26.16
   2   4  -1  553.18   25.86
   2   4  -1  585.79   25.92
   2  -4  -1  584.58   25.15
   2  -4  -1  591.02   26.73
   0  -4  -1 1195.94   52.75
   0   4  -1 1195.96   51.27
   0   4   1 1222.21   51.71
   0  -4   1 1256.80   52.62
  -2   4  -1 1107.90   46.93
   2  -4   1 1077.99   48.99
  -2  -4  -1 1135.78   49.10
   4  -4   1  169.97   11.64
  -4  -4  -1  172.38   11.46
  -4   4  -1  183.31    9.86
  -6  -4  -1  777.42   37.92
   6  -4   1  740.81   38.45
  -8  -4  -1  667.55   35.83
   8  -4   1  677.93   36.86
 -10  -4  -1  357.19   23.25
  10  -4   1  302.27   22.90
 -12  -4  -1   88.20   12.96
  12  -4   1   71.44   12.46
 -14  -4  -1   29.66    8.29
  14  -4   1   29.89    8.98
 -16  -4  -1   18.95    7.90
 -16   4  -1    8.87    8.79
 -16   4  -1    9.17    9.53
 -18  -4  -1   -4.73    5.21
 -18   4  -1    3.21    9.07
 -18   4  -1    5.78    9.72
 -20   4  -1   30.77   16.38
 -20  -4  -1    0.61    5.20
 -20   4  -1    9.58   13.49
 -19   5   1   14.81    7.95
 -19  -5   1   -0.04    6.41
 -19   5   1    7.37    8.64
  17  -5  -1    3.32    5.53
 -17  -5   1    1.59    6.27
 -15  -5   1   46.83   10.13
  15  -5  -1   57.21   12.53
  13  -5  -1  106.16   15.18
  13  -5  -1  117.92   15.17
 -13  -5   1  106.94   14.07
  11  -5  -1  399.59   25.57
  11   5  -1  353.21   26.07
 -11  -5   1  430.63   26.26
  11  -5  -1  424.20   27.49
  -9   5   1  322.97   15.31
   9   5  -1  340.56   21.83
  -9  -5   1  327.63   21.16
   9  -5  -1  344.32   22.28
   9  -5  -1  326.94   20.53
   7  -5  -1  408.63   22.98
   7   5  -1  410.13   24.03
  -7  -5   1  441.60   24.04
   7  -5  -1  409.43   24.28
  -7   5   1  443.12   19.41
  -5  -5   1  367.16   20.40
   5   5  -1  411.85   21.20
  -5   5   1  384.80   17.91
   5  -5  -1  390.69   21.32
   3   5  -1 1868.64   79.66
  -3   5   1 1873.40   76.90
   3  -5  -1 1902.77   78.43
  -3  -5   1 1803.37   79.77
   3   5  -1 1845.75   77.96
   3  -5  -1 1798.59   80.37
  -1   5   1  783.17   34.87
   1   5  -1  771.06   34.75
  -1  -5   1  784.23   35.24
   1  -5  -1  815.67   35.93
   1  -5   1  131.96    7.83
  -1  -5  -1  110.33    7.68
  -1   5  -1  114.47    7.35
   3  -5   1 1273.79   58.08
  -3   5  -1 1286.08   54.82
  -3  -5  -1 1322.16   57.79
  -5   5  -1  366.56   18.06
   5  -5   1  374.09   21.21
  -5  -5  -1  377.08   20.85
  -7  -5  -1  364.37   22.05
   7  -5   1  371.00   22.75
  -7   5  -1  366.10   18.19
  -9   5  -1   80.29    6.53
   9  -5   1   60.76   10.34
  -9  -5  -1   84.20   11.07
 -11  -5  -1  179.80   16.07
  11  -5   1  189.84   18.81
 -13  -5  -1   20.53    7.57
  13  -5   1   26.43    7.60
 -15  -5  -1   -0.37    4.81
  15  -5   1   10.31    6.00
 -17   5  -1    5.58    9.03
 -17   5  -1    4.19    9.07
 -17  -5  -1   15.35    7.51
 -19   5  -1    9.08   12.37
 -19  -5  -1   -5.04    5.68
 -19   5  -1   23.36   13.29
 -20  -6   1   16.21    6.29
 -20   6   1   -5.12    7.04
 -20   6   1   -3.59    6.99
  18  -6  -1    5.64    8.00
 -18  -6   1   14.60    7.92
  16  -6  -1    1.00    5.26
 -16  -6   1    4.69    4.71
  14  -6  -1   29.26    8.82
 -14  -6   1   42.78    9.34
  12  -6  -1  398.98   25.55
  12   6  -1  323.08   25.28
  12  -6  -1  346.69   25.53
 -12  -6   1  359.98   24.73
  10  -6  -1  111.91   11.99
  10  -6  -1  102.32   12.96
 -10  -6   1   91.66   11.83
  10   6  -1  108.40   13.22
   8  -6  -1   54.92    7.52
   8  -6  -1   55.87    8.82
  -8   6   1   59.86    4.93
  -8  -6   1   57.52    8.23
   8   6  -1   50.77    8.17
  -6  -6   1   31.89    5.69
   6  -6  -1   25.59    4.43
  -6   6   1   43.53    4.25
   6  -6  -1   37.41    6.35
   6   6  -1   54.33    7.12
  -4  -6   1  813.45   36.67
   4  -6  -1  752.08   37.09
   4   6  -1  767.68   35.82
   4   6  -1  759.79   36.31
   4  -6  -1  770.45   34.89
  -4   6   1  803.10   34.45
   2   6  -1    1.61    1.89
   2   6  -1    1.56    1.39
  -2   6   1    0.58    1.79
  -2  -6   1    2.05    1.72
   2  -6  -1    2.06    2.10
   0   6   1  120.68    8.50
   0  -6  -1  121.89    8.40
   0  -6   1  135.28    8.44
   0   6  -1  128.58    8.38
   2  -6   1   37.38    4.79
  -2   6  -1   45.18    4.70
  -2  -6  -1   41.62    5.18
  -4  -6  -1   98.95    8.08
   4  -6   1   93.33    8.79
  -4   6  -1   88.55    6.60
  -6   6  -1  259.93   14.11
  -6  -6  -1  278.41   17.27
   6  -6   1  268.27   17.45
   8  -6   1   65.47    9.79
  -8  -6  -1   52.65    8.30
  -8   6  -1   61.38    5.88
 -10  -6  -1   99.73   12.97
  10  -6   1  131.49   14.79
 -12  -6  -1   25.58    7.46
  12  -6   1   50.79   10.54
  14  -6   1    5.42    5.27
 -14  -6  -1    1.10    4.02
  16  -6   1    1.90    6.52
 -16  -6  -1    6.43    6.61
 -18  -6  -1   -2.44    6.32
 -18   6  -1    8.04   10.88
 -18   6  -1   16.38   10.83
 -20  -6  -1    5.43    5.31
 -20   6  -1    1.19   14.95
 -20   6  -1    8.43   17.27
  19  -7  -1   74.70   16.48
 -19  -7   1   77.70   14.29
  17  -7  -1   57.14   13.27
 -17  -7   1   67.67   12.91
 -15  -7   1   55.18   10.73
  15  -7  -1   74.72   14.09
  13  -7  -1   -2.95    3.70
 -13  -7   1    1.93    3.81
  13  -7  -1   -4.56    2.82
  11  -7  -1    5.36    3.34
  11  -7  -1    8.65    4.28
  11   7  -1    7.19    4.02
 -11  -7   1    4.34    3.89
   9  -7  -1   48.52    7.34
  -9   7   1   49.78    4.87
  -9  -7   1   38.34    7.06
   9  -7  -1   43.12    8.52
   9   7  -1   25.95    6.62
   7   7  -1   69.73    8.67
   7  -7  -1   43.77    7.61
  -7  -7   1   75.91    8.57
  -7   7   1   60.44    5.41
   7  -7  -1   47.37    6.53
   5   7  -1 1077.66   46.90
   5  -7  -1  973.04   48.28
  -5  -7   1 1030.45   47.80
   5  -7  -1 1012.35   46.00
  -5   7   1 1035.77   44.72
   5   7  -1 1017.99   47.77
   3   7  -1  860.84   39.15
   3  -7  -1  849.10   36.83
  -3  -7   1  863.93   39.27
   3  -7  -1  790.89   39.62
  -3   7   1  842.48   38.05
   3   7  -1  870.85   38.54
   1   7  -1 1054.32   45.66
  -1   7   1  987.22   45.61
   1  -7  -1 1000.50   46.76
  -1  -7   1 1039.19   46.27
   1   7  -1 1046.38   44.10
   1  -7   1    1.72    1.82
  -1   7  -1    3.92    2.22
   1   7   1    5.14    2.58
  -1  -7  -1    0.46    1.90
  -3  -7  -1    1.72    2.39
  -3   7  -1    1.47    1.85
   3  -7   1    6.91    2.86
   5  -7   1   36.51    6.30
  -5   7  -1   37.60    4.69
  -5  -7  -1   38.84    6.28
   7  -7   1    8.12    3.86
  -7   7  -1    3.96    2.47
  -7  -7  -1    8.31    3.63
   9  -7   1   73.97   10.92
  -9   7  -1   48.66    5.60
  -9  -7  -1   39.27    7.76
  11  -7   1   12.47    5.58
 -11  -7  -1   19.96    5.99
  13  -7   1  174.47   19.67
 -13  -7  -1  146.48   17.52
 -15  -7  -1   36.08    9.29
  15  -7   1   28.21    9.28
  17  -7   1   72.16   15.37
 -17  -7  -1  111.73   17.78
 -19   7  -1   79.08   22.61
 -19   7  -1   52.87   18.54
  20  -8  -1  -11.22    7.56
 -20  -8   1    1.14    4.70
 -18  -8   1    6.51    6.04
  18  -8  -1   18.15    9.70
  16  -8  -1    3.21    5.82
 -16  -8   1    6.95    5.55
 -14  -8   1   15.52    6.32
  14  -8  -1   26.80    9.23
  12  -8  -1   66.71   10.78
  12  -8  -1   71.26   12.24
 -12  -8   1   71.50   11.17
  10  -8  -1    7.50    3.38
  10   8  -1   23.11    6.65
 -10  -8   1   20.30    5.55
  10  -8  -1   16.03    5.91
  -8   8   1  244.54   13.38
   8  -8  -1  267.01   15.97
  -8  -8   1  246.49   16.77
   8   8  -1  229.31   17.09
   8  -8  -1  205.90   16.58
  -6  -8   1   72.88    8.35
   6  -8  -1   79.31    9.34
   6   8  -1   75.05    8.61
  -6   8   1   76.18    6.44
   6   8  -1   68.97    8.00
   6  -8  -1   85.13    6.86
  -4  -8   1   19.96    4.10
  -4   8   1   16.81    3.74
   4  -8  -1   19.47    4.38
   4   8  -1   19.47    3.91
   4   8  -1   18.19    4.13
   4  -8  -1   18.07    2.74
   2   8  -1   16.54    3.82
   2  -8  -1   17.24    3.87
  -2   8   1   17.93    3.92
  -2  -8   1   14.59    3.44
   2   8  -1   14.57    2.69
   0  -8   1   79.84    7.04
   0   8  -1   91.24    7.56
   0  -8  -1   87.73    7.44
   0   8   1   98.37    8.72
   2   8   1   21.59    4.63
   2  -8   1   11.62    3.29
  -2   8  -1   15.00    3.44
  -2  -8  -1   14.15    3.62
  -4   8  -1   59.90    6.32
  -4  -8  -1   78.11    7.93
   4  -8   1   50.85    7.02
  -6   8  -1   61.34    6.26
   6  -8   1   70.35    9.13
  -6  -8  -1   50.32    7.69
  -8   8  -1   22.18    4.24
  -8  -8  -1   19.60    5.26
   8  -8   1   13.30    5.19
  10  -8   1   67.43   11.36
 -10  -8  -1   62.17   10.06
 -12  -8  -1    6.95    4.53
  12  -8   1    0.66    3.80
  14  -8   1    1.70    5.09
 -14  -8  -1    0.25    3.98
  16  -8   1    2.57    5.88
 -16  -8  -1    2.77    6.01
 -18  -8  -1   13.39    6.87
  18  -8   1   -2.43    6.73
  19  -9  -1    9.48    8.68
 -19  -9   1   15.41    8.40
 -17  -9   1    6.12    6.07
  17  -9  -1    1.05    7.37
 -15  -9   1    3.58    5.15
  15  -9  -1    6.58    5.56
  13  -9  -1    0.48    4.09
 -13  -9   1    7.72    5.26
  11  -9  -1   57.29   10.72
 -11  -9   1   45.10    8.76
   9  -9  -1    3.32    2.54
   9   9  -1    8.23    4.28
   9  -9  -1    0.25    3.07
  -9   9   1    2.49    2.67
  -9  -9   1    0.51    2.67
  -7  -9   1   23.75    4.91
   7  -9  -1   14.31    3.78
   7   9  -1   18.72    5.20
   7  -9  -1   33.31    6.45
  -7   9   1   17.41    3.81
   5   9  -1   57.16    7.12
   5  -9  -1   60.45    5.01
   5  -9  -1   60.10    7.99
  -5   9   1   51.64    6.21
  -5  -9   1   60.89    7.53
   5   9  -1   66.61    8.05
   3  -9  -1  270.57   12.52
  -3  -9   1  272.29   15.64
   3  -9  -1  252.88   16.03
  -3   9   1  260.00   15.52
   3   9  -1  263.37   16.22
   3   9  -1  249.41   14.40
  -1   9   1  406.40   22.62
   1  -9  -1  420.27   22.87
  -1  -9   1  439.91   22.68
   1   9  -1  440.99   22.79
   1  -9  -1  432.74   19.17
  -1  -9  -1  212.52   13.36
   1  -9   1  212.07   13.30
  -1   9  -1  204.93   13.13
   1   9   1  221.29   14.17
  -3   9  -1  501.48   25.20
  -3  -9  -1  521.87   26.70
   3  -9   1  495.08   26.57
  -5   9  -1    4.57    2.59
  -5  -9  -1   15.02    4.03
   5  -9   1   14.38    4.31
   7  -9   1    7.30    4.02
  -7  -9  -1   12.40    4.42
  -7   9  -1   11.49    3.75
  -9  -9  -1   15.06    4.77
  -9   9  -1    6.92    3.37
   9  -9   1    2.22    3.87
  11  -9   1   45.33   10.05
 -11  -9  -1   29.05    8.03
 -13  -9  -1   14.39    6.17
  13  -9   1    8.87    5.97
 -15  -9  -1   10.89    6.36
  15  -9   1    0.97    5.68
  17  -9   1   -2.46    6.26
 -17  -9  -1    6.16    6.64
  19  -9   1   -3.43    4.92
 -19  -9  -1   -8.48    4.87
 -20 -10   1    1.29    4.82
  20 -10  -1   21.10    8.73
  18 -10  -1    4.47    7.08
 -18 -10   1   -2.84    5.43
  16 -10  -1   29.06    9.51
 -16 -10   1   20.09    8.49
  14 -10  -1   33.19    9.25
 -14 -10   1   39.72    9.28
 -12 -10   1  151.27   16.70
  12 -10  -1  163.95   18.04
  10 -10  -1  308.87   20.49
 -10 -10   1  305.69   21.84
  10 -10  -1  359.20   23.57
  -8  10   1  407.93   20.79
   8 -10  -1  401.46   24.96
   8 -10  -1  418.59   22.38
  -8 -10   1  336.55   22.97
   8  10  -1  375.14   24.17
   6 -10  -1  234.87   13.74
   6  10  -1  231.12   15.86
   6 -10  -1  230.65   16.58
   6  10  -1  240.00   16.15
  -6 -10   1  247.31   16.14
  -6  10   1  253.75   14.80
   4 -10  -1   21.37    2.78
   4  10  -1   20.19    4.76
   4  10  -1   26.99    4.81
  -4 -10   1   30.83    5.45
  -4  10   1   32.06    5.40
   4 -10  -1   23.67    5.07
  -2  10   1   14.65    4.08
  -2 -10   1   26.35    4.84
   2 -10  -1   21.17    4.50
   2  10  -1   20.20    4.70
   0 -10  -1  109.34    9.22
   0  10   1  105.57   10.22
   0  10  -1  115.35    9.33
   0 -10   1  103.50    8.92
  -2  10  -1   55.65    6.97
   2 -10   1   50.81    6.93
  -2 -10  -1   55.95    7.11
   2  10   1   52.54    7.43
   4 -10   1  360.36   21.75
  -4 -10  -1  386.92   21.64
  -4  10  -1  357.89   19.97
   6 -10   1 1081.66   54.82
  -6 -10  -1 1111.32   54.23
  -6  10  -1 1160.49   50.58
  -8  10  -1  379.06   20.02
  -8 -10  -1  350.07   23.27
   8 -10   1  365.50   24.15
  10 -10   1   67.54   11.25
 -10 -10  -1   57.51    9.90
  12 -10   1   15.73    6.47
 -12 -10  -1    6.54    5.03
 -14 -10  -1    1.73    4.30
  14 -10   1   -2.32    4.24
  16 -10   1    6.85    7.07
 -16 -10  -1    2.23    5.63
 -18 -10  -1   -4.91    5.49
  18 -10   1    7.45    6.62
  19 -11  -1   -6.78    4.43
 -19 -11   1   -2.45    5.82
 -17 -11   1   73.60   13.72
  17 -11  -1   55.30   12.36
 -15 -11   1    9.65    5.42
  15 -11  -1   13.42    7.36
  13 -11  -1   21.21    7.24
 -13 -11   1   11.02    5.29
  11 -11  -1   19.96    5.31
 -11 -11   1   16.45    5.85
  11 -11  -1   14.72    5.94
  -9  11   1   35.68    6.00
   9 -11  -1   31.04    6.01
   9 -11  -1   34.37    7.79
  -9 -11   1   35.96    7.08
   7 -11  -1   42.00    5.65
  -7  11   1   38.46    6.16
   7 -11  -1   43.20    8.15
  -7 -11   1   37.52    6.96
  -5 -11   1  293.28   17.86
   5 -11  -1  254.76   18.03
   5  11  -1  283.44   18.26
   5 -11  -1  276.21   14.43
  -5  11   1  279.91   16.95
  -3  11   1  238.56   15.76
   3  11  -1  283.35   17.07
   3 -11  -1  245.22   16.42
  -3 -11   1  243.28   15.53
   1 -11  -1    3.58    1.36
   1 -11  -1    4.03    2.52
  -1  11   1    3.60    3.00
  -1 -11   1    2.54    2.19
   1  11  -1    5.44    3.17
  -1  11  -1   21.67    5.06
   1 -11   1   30.46    5.57
   1  11   1   33.72    6.49
  -1 -11  -1   26.97    5.31
   3 -11   1   13.37    3.85
  -3  11  -1   11.32    3.75
  -3 -11  -1    8.40    3.52
   5 -11   1   43.40    7.39
  -5  11  -1   38.48    6.19
  -5 -11  -1   30.49    6.27
   7 -11   1   70.53   10.54
  -7  11  -1   74.78    7.97
  -7 -11  -1   64.21    9.49
   9 -11   1    2.11    3.21
  -9  11  -1    5.98    3.24
  -9 -11  -1    3.53    3.77
  11 -11   1    1.63    3.90
 -11 -11  -1    1.47    4.21
  13 -11   1    5.58    5.00
 -13 -11  -1   30.33    8.18
 -15 -11  -1   98.42   16.64
  15 -11   1  137.50   19.62
 -17 -11  -1   48.86   11.38
  17 -11   1   43.67   12.54
  19 -11   1    3.09    6.14
 -19 -11  -1   -3.88    6.02
  18 -12  -1   28.99    9.74
 -16 -12   1   15.94    7.16
  16 -12  -1   11.62    6.38
 -14 -12   1    9.28    5.48
  14 -12  -1   11.45    6.20
 -12 -12   1    5.46    4.77
  12 -12  -1    3.56    4.48
  10 -12  -1   42.98    6.93
  10 -12  -1   33.45    7.47
 -10 -12   1   33.77    7.58
  -8 -12   1   24.86    5.85
   8 -12  -1   28.83    5.47
   8 -12  -1   27.78    6.81
  -8  12   1   20.64    5.10
   6 -12  -1  233.36   17.64
  -6  12   1  259.09   16.08
   6 -12  -1  240.95   13.63
  -6 -12   1  260.51   17.10
   6  12  -1  227.24   16.86
   4  12  -1  493.56   28.29
  -4  12   1  530.14   27.53
   4 -12  -1  504.55   28.70
  -4 -12   1  537.56   28.17
   4 -12  -1  501.04   23.08
  -2 -12   1  223.14   14.23
   2 -12  -1  224.87   14.70
  -2  12   1  176.54   13.86
   2  12  -1  181.71   14.01
   0 -12   1  259.97   17.14
   0 -12  -1  287.99   17.47
   0  12   1  280.44   18.35
   0 -12  -1  290.63   14.03
   0  12  -1  266.22   17.46
   2  12   1    3.43    2.76
   2 -12   1    6.16    3.22
  -2 -12  -1    6.17    3.06
  -2  12  -1   11.59    3.93
   4 -12   1   -3.41    2.28
  -4  12  -1    2.49    2.84
  -4 -12  -1    1.26    2.34
  -6  12  -1   70.37    8.09
   6 -12   1   51.68    9.12
  -6 -12  -1   50.67    8.25
   8 -12   1   11.05    4.24
  -8 -12  -1    2.82    3.20
  -8  12  -1    6.13    3.75
 -10 -12  -1   22.34    6.39
  10 -12   1   12.54    5.67
 -12 -12  -1    2.15    4.66
  12 -12   1    1.57    4.39
  14 -12   1   59.85   12.24
 -14 -12  -1   87.07   14.56
  16 -12   1   27.70    9.46
 -16 -12  -1   30.66    9.85
  18 -12   1    2.30    5.10
 -18 -12  -1   11.83    5.19
  19 -13  -1   -0.64    5.07
 -19 -13   1    1.18    5.21
  17 -13  -1   21.11    9.40
 -17 -13   1    3.54    6.33
  15 -13  -1   48.00   11.85
 -15 -13   1   37.86    9.94
 -13 -13   1   13.60    6.09
  13 -13  -1    7.65    5.44
  11 -13  -1    9.27    5.74
 -11 -13   1   14.13    5.63
  -9  13   1   50.11    7.48
  -9 -13   1   45.62    8.69
   9 -13  -1   42.21    8.87
  -7 -13   1   35.11    7.05
  -7  13   1   42.32    7.12
   7 -13  -1   58.88    9.58
   5 -13  -1  210.10   15.78
   5  13  -1  213.09   15.88
   5 -13  -1  199.29   10.77
  -5 -13   1  201.63   14.72
  -5  13   1  188.67   14.09
   3 -13  -1  242.26   16.63
   3  13  -1  222.99   16.34
  -3  13   1  231.68   15.90
  -3 -13   1  223.60   15.49
  -1 -13   1   51.49    7.57
   1 -13  -1   62.01    3.92
   1 -13  -1   55.44    8.03
   1  13  -1   35.34    7.20
  -1  13   1   69.65    9.23
  -1 -13  -1  254.81   16.30
  -1  13  -1  215.83   15.50
   1 -13   1  211.67   15.26
   1  13   1  232.42   16.53
   3 -13   1  241.54   16.54
  -3  13  -1  201.58   14.88
  -3 -13  -1  233.79   15.91
   5 -13   1   14.75    5.18
  -5  13  -1   21.00    5.01
  -5 -13  -1   19.79    5.52
  -7  13  -1  177.83   12.89
  -7 -13  -1  170.50   14.29
   7 -13   1  136.89   15.18
  -9 -13  -1   24.74    6.79
   9 -13   1   23.51    6.72
 -11 -13  -1  109.18   14.95
  11 -13   1  119.96   16.18
  13 -13   1   36.40   10.22
 -13 -13  -1   35.39    9.24
 -15 -13  -1   53.55   11.98
  15 -13   1   41.08   11.60
 -17 -13  -1    5.55    6.14
  17 -13   1    2.75    7.38
 -18 -14   1    1.30    6.03
  18 -14  -1   -4.33    4.67
 -16 -14   1   10.31    6.58
  16 -14  -1    4.65    6.00
  14 -14  -1    4.05    6.40
 -14 -14   1    1.34    5.31
  12 -14  -1   11.06    5.72
 -12 -14   1    1.01    4.17
 -10 -14   1   65.56   11.09
  10 -14  -1   77.71   12.55
   8 -14  -1   17.53    5.89
  -8 -14   1   24.39    6.49
  -8  14   1   21.10    5.49
  -6 -14   1   10.12    4.35
   6 -14  -1   10.23    4.49
  -6  14   1   15.65    4.88
   6  14  -1    5.08    3.29
   4  14  -1    7.12    3.81
   4 -14  -1    9.85    3.96
  -4  14   1   10.51    4.32
  -4 -14   1    9.17    3.94
  -2  14   1   -0.27    2.97
   2  14  -1    6.17    3.25
   2 -14  -1    0.14    2.14
  -2 -14   1    4.81    3.12
   0  14  -1   -0.90    2.84
   0 -14   1    4.36    3.04
   0 -14  -1    3.30    1.99
   0  14   1    1.42    3.17
   0 -14  -1    2.99    2.81
   2  14   1  150.98   14.23
  -2 -14  -1  139.74   12.06
   2 -14   1  135.13   13.00
  -2  14  -1  128.97   12.49
  -4 -14  -1  270.90   19.03
  -4  14  -1  289.48   18.53
   4 -14   1  286.30   19.56
  -6 -14  -1   68.56   10.15
  -6  14  -1   65.59    8.85
   6 -14   1   52.09    9.26
  -8  14  -1  206.82   14.51
  -8 -14  -1  176.49   15.86
   8 -14   1  176.45   18.12
  10 -14   1   56.26   10.95
 -10 -14  -1   88.76   12.87
 -12 -14  -1    5.07    5.82
  12 -14   1    3.90    4.64
  14 -14   1   16.20    8.27
 -14 -14  -1   18.41    7.71
  16 -14   1   10.03    7.57
 -16 -14  -1    4.55    6.28
 -18 -14  -1   -2.38    5.12
  18 -14   1    7.06    6.98
 -17 -15   1   -0.79    5.58
  17 -15  -1   -0.74    5.28
  15 -15  -1    8.13    7.63
 -15 -15   1   11.50    7.58
 -13 -15   1  118.46   16.39
  13 -15  -1  145.22   19.36
  11 -15  -1   -2.22    3.75
 -11 -15   1   -0.78    4.40
   9 -15  -1   -3.59    3.31
  -9 -15   1    4.96    4.46
   7 -15  -1   92.88   12.80
  -7  15   1   86.13   10.44
  -7 -15   1   93.73   11.83
  -5  15   1   14.81    4.95
   5 -15  -1   20.67    5.94
  -5 -15   1   25.39    6.06
   5  15  -1   17.11    5.32
  -3  15   1  137.47   13.52
   3  15  -1  133.85   13.95
  -3 -15   1  137.32   12.05
   3 -15  -1  134.45   13.55
  -1 -15   1    2.46    2.68
   1  15  -1   -2.15    2.46
  -1  15   1   -0.92    3.43
   1 -15  -1    4.19    2.69
   1 -15   1    8.29    3.66
   1  15   1   14.02    4.79
  -1  15  -1   13.96    5.07
  -1 -15  -1   10.63    4.63
  -3 -15  -1   62.26    9.21
  -3  15  -1   71.24    9.69
   3 -15   1   43.20    7.91
   5 -15   1  177.24   15.05
  -5 -15  -1  145.33   14.56
  -5  15  -1  165.68   13.43
  -7  15  -1   62.19    9.36
  -7 -15  -1   97.31   12.81
   7 -15   1  117.46   14.25
  -9 -15  -1  149.56   16.63
   9 -15   1  142.53   17.21
 -11 -15  -1   13.68    6.00
  11 -15   1   15.00    6.01
  13 -15   1    2.83    5.79
 -13 -15  -1    0.31    5.71
 -15 -15  -1   26.28    9.07
  15 -15   1   56.11   13.08
  17 -15   1    0.18    5.39
 -17 -15  -1   -9.56    4.27
 -18 -16   1   -3.79    4.55
  18 -16  -1   -2.93    5.58
 -16 -16   1   74.25   14.64
  16 -16  -1   37.23   11.78
  14 -16  -1  -10.66    4.74
 -14 -16   1   -5.31    5.23
  12 -16  -1    0.77    4.63
 -12 -16   1    5.82    4.51
  10 -16  -1   18.32    6.78
 -10 -16   1   28.64    7.90
  -8  16   1    1.48    3.91
  -8 -16   1   -5.38    3.10
   8 -16  -1    1.23    3.79
   6 -16  -1   62.29   10.30
   6  16  -1   57.31    9.65
  -6  16   1   38.24    7.68
  -6 -16   1   52.22    8.80
  -4 -16   1  152.21   12.99
  -4  16   1  148.02   14.29
   4 -16  -1  141.59   14.61
   4  16  -1  134.77   14.68
  -2 -16   1  560.68   31.11
   2 -16  -1  536.50   31.49
   2  16  -1  555.55   32.22
  -2  16   1  547.68   31.77
   0 -16   1  292.11   19.43
   0  16   1  306.84   20.80
   0  16  -1  214.34   18.54
   0 -16  -1  334.27   20.74
  -2  16  -1  238.30   17.98
   2  16   1  247.03   18.86
   2 -16   1  247.90   18.36
  -2 -16  -1  258.66   18.20
   4 -16   1    6.53    4.07
  -4  16  -1    0.29    3.63
  -4 -16  -1    7.33    3.76
   6 -16   1    5.40    4.34
  -6  16  -1    3.24    3.42
  -6 -16  -1    3.77    3.69
  -8  16  -1    0.77    3.69
   8 -16   1    0.81    3.62
  -8 -16  -1    0.04    3.88
 -10 -16  -1   37.13    8.85
  10 -16   1   57.74   11.06
 -12 -16  -1   11.23    6.60
  12 -16   1   17.72    7.79
  14 -16   1   98.99   17.44
 -14 -16  -1  116.35   17.49
  16 -16   1   46.38   12.25
 -17 -17   1    8.01    6.94
  17 -17  -1   -3.82    4.61
  15 -17  -1    8.28    6.53
 -15 -17   1    3.69    6.50
 -13 -17   1    3.76    5.44
  13 -17  -1   11.66    6.56
 -11 -17   1    3.33    5.20
  11 -17  -1    1.23    4.57
  -9 -17   1   -2.77    3.93
   9 -17  -1    4.74    4.16
   7 -17  -1    2.71    3.56
  -7  17   1    8.06    4.88
  -7 -17   1    0.48    3.59
  -5 -17   1    6.57    4.24
  -5  17   1    8.29    4.90
   5  17  -1    0.86    2.95
   5 -17  -1    4.43    3.55
  -3 -17   1   13.54    4.72
   3 -17  -1   20.18    5.84
  -3  17   1    7.46    4.70
   3  17  -1   20.56    6.01
   1  17  -1    1.52    4.04
   1 -17  -1    4.92    3.45
  -1  17   1   -0.03    3.26
  -1 -17   1    2.29    3.11
  -1 -17  -1   25.38    6.17
  -1  17  -1   25.40    6.85
   1 -17   1   19.60    5.64
   1  17   1   17.25    5.89
   3 -17   1   21.56    6.13
  -3  17  -1   26.12    6.77
  -3 -17  -1   20.51    6.08
  -5  17  -1   -0.80    3.69
  -5 -17  -1    2.29    3.50
   5 -17   1    1.75    4.04
   7 -17   1   28.71    7.80
  -7  17  -1   17.36    5.90
  -7 -17  -1   29.77    7.50
   9 -17   1   -0.52    3.98
  -9 -17  -1    1.26    4.48
 -11 -17  -1   -2.78    4.34
  11 -17   1   -2.48    4.49
 -13 -17  -1   -3.45    5.23
  13 -17   1   -4.60    6.07
 -15 -17  -1    4.52    6.94
  15 -17   1   -3.60    6.06
 -17 -17  -1    2.32    5.17
  17 -17   1    5.59    6.93
  16 -18  -1    1.55    5.74
 -16 -18   1   25.95    8.36
 -14 -18   1    7.24    6.93
  14 -18  -1    2.73    6.69
 -12 -18   1   19.04    7.46
  12 -18  -1   16.16    7.84
 -10 -18   1   -2.34    4.17
  10 -18  -1    7.64    5.37
  -8 -18   1    1.25    4.23
   8 -18  -1    4.64    4.89
  -8  18   1    6.00    5.18
   6  18  -1   17.60    6.56
  -6  18   1   25.10    6.76
  -6 -18   1   19.67    5.95
   6 -18  -1   29.43    7.84
  -4  18   1   13.81    5.88
  -4 -18   1   19.62    5.47
   4 -18  -1   14.65    5.54
   4  18  -1   14.07    5.80
   2 -18  -1  161.33   14.64
  -2 -18   1  198.56   15.55
  -2  18   1  166.52   17.00
   2  18  -1  181.20   17.58
   0  18  -1   94.37   13.02
   0 -18  -1  112.91   13.08
   0 -18   1  110.36   12.60
   0  18   1  107.80   13.76
   2 -18   1   13.31    5.08
  -2 -18  -1    3.95    3.62
  -2  18  -1   10.76    5.81
   2  18   1   11.46    5.75
   4 -18   1    1.43    3.28
  -4  18  -1    7.99    4.53
  -4 -18  -1    8.20    4.50
  -6 -18  -1    2.81    3.79
  -6  18  -1   -0.64    4.01
   6 -18   1    9.92    5.80
  -8  18  -1   -0.04    4.28
  -8 -18  -1    0.35    3.88
   8 -18   1   -3.75    3.24
  10 -18   1   19.79    7.40
 -10 -18  -1   19.54    7.08
 -12 -18  -1   34.73    9.42
  12 -18   1   55.75   13.07
  14 -18   1    4.27    7.12
 -14 -18  -1    7.71    7.31
  16 -18   1   -4.51    5.27
 -16 -18  -1   -0.70    4.64
 -15 -19   1   18.43    9.06
  15 -19  -1   12.88    8.21
  13 -19  -1   26.41   10.21
 -13 -19   1   58.74   12.68
 -11 -19   1  237.10   22.81
  11 -19  -1  191.10   23.10
  -9 -19   1  203.37   19.89
   9 -19  -1  181.06   21.06
   7 -19  -1   14.17    6.28
  -7 -19   1    6.72    5.25
  -7  19   1   15.21    6.39
  -5 -19   1   11.61    5.35
   5  19  -1    4.28    4.74
   5 -19  -1    8.53    4.61
  -5  19   1    9.29    5.11
   3  19  -1   14.02    6.12
  -3 -19   1   11.92    4.89
   3 -19  -1    4.86    3.75
  -3  19   1    5.61    5.21
  -1 -19   1    0.36    3.04
   1  19  -1    6.50    4.76
   1 -19  -1   10.04    4.53
  -1  19   1    4.11    4.48
  -1 -19  -1   10.00    4.74
   1 -19   1    5.99    4.17
   1  19   1    4.43    5.14
  -1  19  -1    7.01    5.39
   3 -19   1  133.96   15.01
  -3  19  -1  128.88   15.03
  -3 -19  -1  101.76   13.60
  -5 -19  -1   15.09    5.74
   5 -19   1    5.20    4.37
  -5  19  -1   16.81    6.73
  -7 -19  -1   16.96    6.26
   7 -19   1   28.01    7.97
  -7  19  -1   10.01    5.72
   9 -19   1   83.63   14.16
  -9 -19  -1   43.06    9.73
 -11 -19  -1    1.85    5.92
  11 -19   1  -10.05    4.99
  13 -19   1    9.08    8.22
 -13 -19  -1   10.48    6.72
  15 -19   1   -0.54    6.29
 -15 -19  -1   -5.20    5.10
  16 -20  -1    1.43    4.85
 -16 -20   1   -1.51    5.17
  14 -20  -1   -0.56    6.85
 -14 -20   1    8.67    6.86
  12 -20  -1    8.84    7.21
 -12 -20   1   12.08    6.87
 -10 -20   1   38.63    9.34
  10 -20  -1   43.08   10.56
   8 -20  -1   15.11    6.53
  -8  20   1   25.18    7.99
  -8 -20   1   17.52    6.28
   6 -20  -1    6.09    4.50
   6  20  -1    4.21    4.17
  -6 -20   1    5.70    4.55
  -6  20   1   12.00    5.90
  -4 -20   1   12.23    5.44
   4 -20  -1   18.14    6.27
  -4  20   1   16.20    6.55
   4  20  -1    9.26    5.12
   2 -20  -1   97.82   13.17
  -2 -20   1   93.00   13.10
   2  20  -1   95.69   14.30
  -2  20   1  110.68   14.54
   0  20   1    1.36    4.49
   0 -20  -1    1.60    3.48
   0 -20   1    3.76    4.05
   0  20  -1    9.19    5.82
  -2 -20  -1   26.82    6.97
   2  20   1   46.83   10.28
   2 -20   1   39.84    9.04
  -2  20  -1   29.47    8.07
  -4 -20  -1    4.77    4.44
  -4  20  -1   -1.98    4.72
   4 -20   1   -1.68    3.19
  -6  20  -1    3.37    5.06
   6 -20   1    5.50    4.73
  -6 -20  -1   -0.09    4.20
  -8 -20  -1   34.27    9.10
   8 -20   1   29.73    8.83
  -8  20  -1   57.31   10.70
  10 -20   1    1.09    6.20
 -10 -20  -1   -1.13    4.66
 -12 -20  -1   -6.32    6.01
  12 -20   1   15.54    8.14
  14 -20   1   -2.13    6.24
 -14 -20  -1    7.61    6.66
 -15 -21   1   10.79    6.26
  15 -21  -1    2.84    4.93
  13 -21  -1   17.03    7.93
 -13 -21   1   24.39    8.47
 -11 -21   1    2.34    6.30
  11 -21  -1    1.70    7.00
  -9 -21   1    7.09    5.49
   9 -21  -1    8.36    6.57
  -7  21   1   35.32    8.83
   7 -21  -1   32.72    8.51
  -7 -21   1    9.02    5.94
   5  21  -1   75.72   13.10
  -5 -21   1   76.61   12.05
   5 -21  -1   80.32   13.33
  -5  21   1   84.86   13.38
   3  21  -1   71.20   12.95
   3 -21  -1   88.04   13.46
  -3  21   1   70.01   12.12
  -3 -21   1   71.81   11.86
  -1 -21   1   40.20    8.58
  -1  21   1   31.96    8.93
   1 -21  -1   43.53    9.21
   1  21  -1   37.79    9.33
   1  21   1  141.35   17.27
  -1  21  -1  137.08   16.92
   1 -21   1  119.86   14.84
  -1 -21  -1  130.86   15.69
  -3 -21  -1   61.27   10.84
   3 -21   1   70.02   12.01
  -3  21  -1   60.99   11.56
  -5 -21  -1    2.64    4.56
  -5  21  -1   12.96    6.37
   5 -21   1   16.91    6.59
  -7 -21  -1    9.05    5.55
  -7  21  -1    8.54    6.14
   7 -21   1   13.54    6.84
   9 -21   1   16.98    7.84
  -9 -21  -1   21.79    8.43
 -11 -21  -1   18.01    7.96
  11 -21   1   16.98    8.83
  13 -21   1   17.20    8.68
 -13 -21  -1    3.59    6.71
 -15 -21  -1   -4.09    5.16
 -14 -22   1    2.86    6.49
  14 -22  -1   -8.70    5.10
  12 -22  -1   -0.56    5.44
 -12 -22   1   -5.95    4.90
 -10 -22   1   -0.69    4.82
  10 -22  -1   13.07    7.56
  -8  22   1   10.28    6.59
  -8 -22   1   24.20    7.53
   8 -22  -1   25.43    8.73
   6 -22  -1   -0.18    3.92
  -6  22   1   -0.47    4.89
  -6 -22   1    1.20    4.20
  -4 -22   1   47.92    9.91
   4 -22  -1   63.60   11.49
  -4  22   1   45.01   10.44
   4  22  -1   69.66   12.56
  -2 -22   1   33.72    8.48
   2 -22  -1   26.53    7.89
  -2  22   1   29.51    8.93
   2  22  -1   30.79    8.72
   0 -22   1   45.34    9.48
   0 -22  -1   32.97    8.37
   0  22   1   46.04   10.76
   0  22  -1   35.39    9.40
  -2 -22  -1   30.34    8.34
  -2  22  -1   17.92    7.40
   2 -22   1   28.51    7.74
  -4 -22  -1   10.40    5.82
   4 -22   1    7.30    5.44
  -4  22  -1   24.06    8.05
  -6  22  -1    0.36    4.88
  -6 -22  -1    4.40    4.74
   6 -22   1    4.26    4.90
   8 -22   1    8.39    6.21
  -8 -22  -1    2.48    5.42
  10 -22   1    9.47    7.16
 -10 -22  -1    5.55    6.18
  12 -22   1    1.95    7.21
 -12 -22  -1    4.19    5.59
  14 -22   1   -4.92    5.43
 -14 -22  -1   -0.28    5.15
  13 -23  -1   -1.59    5.71
 -13 -23   1    6.92    6.68
  11 -23  -1   33.31   10.69
 -11 -23   1   30.62    8.64
  -9 -23   1   20.00    7.67
   9 -23  -1   15.02    7.59
   7 -23  -1   -0.24    4.64
  -7 -23   1    2.03    4.38
  -7  23   1   11.73    6.75
  -5  23   1   -3.60    4.69
   5  23  -1    0.61    4.85
  -5 -23   1    4.43    4.74
   5 -23  -1   -2.81    4.08
   3 -23  -1   13.52    5.42
  -3 -23   1   28.06    7.63
  -3  23   1   17.21    7.26
   3  23  -1   14.42    7.29
  -1 -23   1    4.36    4.28
   1 -23  -1   14.96    5.48
   1  23  -1   25.68    8.82
  -1  23   1    9.68    6.91
  -1 -23  -1    5.32    4.18
   1 -23   1    4.11    4.24
  -1  23  -1    0.87    4.14
  -3 -23  -1   -0.05    4.28
   3 -23   1    3.81    4.54
  -3  23  -1   -3.40    4.73
  -5  23  -1    8.52    6.65
  -5 -23  -1   26.20    7.82
   5 -23   1   17.15    6.80
  -7  23  -1   38.62    9.81
   7 -23   1   28.24    9.51
  -7 -23  -1   19.29    7.81
  -9 -23  -1   19.40    8.04
   9 -23   1   20.28    8.89
  11 -23   1    7.41    6.68
 -11 -23  -1   -0.48    5.72
  13 -23   1   -6.83    5.05
 -13 -23  -1   -1.32    5.22
 -12 -24   1   20.78    8.60
  12 -24  -1   10.91    7.98
  10 -24  -1    6.88    7.16
 -10 -24   1   19.11    8.04
  -8 -24   1   26.67    9.04
   8 -24  -1   14.97    7.91
  -6 -24   1   20.18    7.77
  -6  24   1   18.02    7.66
   6 -24  -1   20.29    7.85
   4 -24  -1   10.30    5.39
  -4 -24   1    7.56    4.98
  -4  24   1   11.92    7.29
   4  24  -1    0.43    5.07
   2 -24  -1    3.10    4.33
  -2  24   1    4.64    5.92
   2  24  -1    3.98    6.41
  -2 -24   1    9.36    5.62
   0 -24   1    6.24    4.75
   0  24  -1    6.25    6.14
   0 -24  -1    1.22    3.97
   0  24   1   -0.31    5.09
  -2  24  -1    5.85    5.54
  -2 -24  -1   -1.29    4.48
   2 -24   1    7.79    4.90
  -4  24  -1   37.78   10.29
   4 -24   1   31.13    8.99
  -4 -24  -1   25.03    8.06
  -6 -24  -1   27.37    8.59
  -6  24  -1   12.36    7.45
   6 -24   1   21.10    9.08
  -8 -24  -1   26.32    8.54
   8 -24   1   43.13   12.06
 -10 -24  -1   19.85    8.16
  10 -24   1   10.29    7.33
 -12 -24  -1   -7.03    5.02
  12 -24   1    5.40   10.74
  11 -25  -1    3.88    6.42
 -11 -25   1   -8.08    5.54
  -9 -25   1    2.17    5.96
   9 -25  -1   -6.46    5.60
  -7 -25   1   29.96    9.02
   7 -25  -1   44.57   11.48
  -7  25   1   22.64    8.98
   5 -25  -1    5.26    5.75
  -5 -25   1    9.51    6.19
  -5  25   1    5.87    6.83
  -3  25   1    7.32    7.28
   3 -25  -1   -0.50    4.47
   3  25  -1    9.27    6.79
  -3 -25   1   14.34    6.05
   1  25  -1   39.56   11.38
   1 -25  -1   28.99    9.02
  -1  25   1   37.03   10.53
  -1 -25   1   34.71    9.39
  -1  25  -1   13.16    8.28
  -1 -25  -1    6.70    5.35
   1 -25   1    0.14    4.35
  -3  25  -1    4.93    7.22
  -3 -25  -1    4.16    4.92
   3 -25   1    6.63    5.72
  -5 -25  -1    0.23    4.99
  -5  25  -1    0.08    6.42
   5 -25   1    4.97    6.40
  -7 -25  -1    8.12    5.51
  -7  25  -1    2.46    9.49
   7 -25   1   -4.21    4.61
   9 -25   1  -10.63    5.58
 -11 -25  -1   -4.62    4.26
  11 -25   1    5.08    6.99
  12 -26  -1   -4.09    6.10
 -12 -26   1   -0.42    5.36
 -10 -26   1   -2.16    5.97
  10 -26  -1    0.14    6.61
   8 -26  -1    6.50    7.97
  -8 -26   1    9.17    7.01
  -6  26   1   -1.56    7.40
   6 -26  -1   11.43    6.96
  -6 -26   1   -1.15    4.75
   4  26  -1    7.15    6.52
  -4 -26   1    6.11    6.02
  -4  26   1    7.43    7.56
   4 -26  -1    7.72    7.07
   2 -26  -1    3.45    5.18
  -2  26   1   -5.94    5.54
   2  26  -1    1.55    5.69
  -2 -26   1   -0.67    4.57
   0 -26  -1    2.40    5.10
   0 -26   1   -7.00    4.35
   0  26  -1    0.22    6.44
  -2 -26  -1    2.46    5.06
   2 -26   1   -4.42    4.57
  -2  26  -1    2.89    7.67
   4 -26   1    3.12    5.94
  -4  26  -1   -7.96    6.16
  -4 -26  -1    4.97    6.08
  -6  26  -1   11.97    8.22
   6 -26   1    8.26    7.16
  -6 -26  -1   13.80    7.91
   8 -26   1   -5.75    6.15
 -10 -26  -1   -2.19    5.47
  10 -26   1    8.64    6.91
   9 -27  -1    1.42    5.83
  -9 -27   1    3.50    6.50
  -7 -27   1    6.01    6.06
  -7  27   1    6.64    7.79
   7 -27  -1   11.44    6.77
  -5 -27   1   10.57    6.61
   5 -27  -1   22.33    9.03
  -5  27   1   26.77    9.80
  -3  27   1   22.46    9.07
   3  27  -1   27.70   10.20
  -3 -27   1    8.15    6.47
   3 -27  -1   36.26    9.59
  -1 -27   1    4.65    5.59
   1 -27  -1   15.27    7.10
   1  27  -1   10.44    7.20
  -1  27  -1   16.17    8.94
  -1 -27  -1   11.70    7.13
   1 -27   1   25.25    8.14
  -3 -27  -1   15.92    7.10
  -3  27  -1    7.83    8.28
   3 -27   1    5.27    6.08
  -5  27  -1    3.42    7.21
  -5 -27  -1   -7.89    4.95
   5 -27   1   -2.87    5.52
  -7 -27  -1   15.29    6.93
   7 -27   1    3.23    6.45
  -9 -27  -1  -12.54    4.37
   9 -27   1   10.04    6.49
  -8 -28   1   11.70    6.62
   8 -28  -1    3.03    5.25
   6 -28  -1    1.52    6.10
  -6 -28   1   -3.19    5.96
  -4 -28   1   -0.89    5.61
   4 -28  -1    1.43    5.01
   2 -28  -1    6.31    6.97
  -2 -28   1   -1.42    4.91
   2  28  -1   -7.48    5.86
   0 -28   1    4.08    5.83
   0  28  -1    1.71    7.19
   0 -28  -1    3.85    5.35
  -2  28  -1    3.54    7.16
   2 -28   1   -1.27    5.34
  -2 -28  -1    6.45    6.18
  -4  28  -1   16.71    9.38
   4 -28   1   13.26    7.24
  -4 -28  -1   18.05    6.71
   6 -28   1    3.48    5.89
  -6  28  -1   -3.01    7.48
  -6 -28  -1   16.69    7.04
  -8 -28  -1   -1.79    5.06
   8 -28   1   10.67    6.99
  -7 -29   1    4.92    6.79
   7 -29  -1   -4.35    5.69
   5 -29  -1    7.85    6.48
  -5 -29   1   12.73    6.61
   3 -29  -1    6.15    5.85
  -3 -29   1   -1.60    5.18
   1  29  -1    2.12    6.94
   1 -29  -1   -2.13    4.76
  -1 -29   1   -1.21    4.95
  -1  29  -1   -4.43    7.73
  -1 -29  -1   -0.48    5.20
   1 -29   1   -3.67    5.33
   3 -29   1   -0.75    5.77
  -3  29  -1    5.38    8.28
  -3 -29  -1    7.87    6.30
  -5 -29  -1    7.86    5.41
   5 -29   1    9.81    6.45
  -5  29  -1    6.15    8.57
  -7 -29  -1    2.09    4.67
   7 -29   1   15.38    7.15
  -6 -30   1    1.59    6.28
   6 -30  -1   -8.12    5.04
   4 -30  -1    1.81    5.44
  -4 -30   1    5.07    6.77
   2 -30  -1   -2.98    5.24
  -2 -30   1   14.29    7.01
   0  30  -1    1.62    8.64
   0 -30   1   18.15    8.30
   0 -30  -1   -0.51    5.24
  -2 -30  -1   10.77    5.79
  -2  30  -1   -2.54    7.98
   2 -30   1   -0.09    5.31
  -4 -30  -1    1.21    4.13
  -4  30  -1    6.05    9.02
   4 -30   1    2.26    5.50
  -3 -31   1   -0.86    4.57
   3 -31  -1    2.91    5.54
  -1 -31   1   -1.10    5.40
   1 -31  -1   -9.89    3.91
  -1  31  -1   18.64   11.39
   1 -31   1   19.88    6.72
 -20   0   2   98.08   17.31
 -20   0   2  125.08   19.27
 -18   0   2   37.68   10.74
 -18   0   2   21.04    9.43
  16   0  -2    7.38    6.09
 -16   0   2    2.31    5.73
 -16   0   2    3.69    5.02
 -14   0   2    0.59    3.56
  14   0  -2    2.07    3.90
 -14   0   2   -1.75    3.55
  12   0  -2   -0.44    2.40
  10   0  -2   81.04   10.56
  10   0  -2   72.04   10.65
   8   0  -2  621.72   34.11
   8   0  -2  689.28   34.21
   6   0  -2  539.89   27.42
   6   0  -2  525.30   26.92
   4   0  -2 1635.02   71.40
   4   0  -2 1654.65   71.06
   2   0  -2 1161.04   49.73
   0   0  -2 1150.00   49.92
  -8   0  -2   54.11    8.33
  -8   0  -2   52.92    8.65
 -10   0  -2  827.13   42.94
 -10   0  -2  813.19   44.56
 -12   0  -2  460.20   30.96
 -12   0  -2  478.93   30.06
 -14   0  -2  438.38   29.96
 -14   0  -2  405.03   30.48
 -16   0  -2  214.85   23.08
 -16   0  -2  208.15   24.28
 -18   0  -2   34.16   12.42
 -18   0  -2   47.88   14.94
 -21   1   2  -11.75    4.92
 -21  -1   2    4.05    5.38
 -21   1   2    2.73    5.71
 -19   1   2   13.38    7.63
 -19   1   2   11.75    8.36
 -19  -1   2   16.21    7.91
 -19  -1   2    8.97    6.94
 -17   1   2   -0.39    4.75
 -17  -1   2    5.44    5.70
 -17   1   2   -4.89    5.27
 -17  -1   2   -0.22    5.34
  15   1  -2   40.42   10.52
 -15   1   2   29.58    8.71
 -15   1   2   33.05    8.83
 -15  -1   2   22.46    7.61
 -15  -1   2   39.77    9.77
  15  -1  -2   25.44    8.20
 -13  -1   2  131.21   14.93
  13   1  -2  160.64   17.25
 -13  -1   2  137.58   15.50
  13  -1  -2  134.59   16.10
  13  -1  -2  133.64   16.73
 -11  -1   2  141.80   14.08
  11  -1  -2  145.99   14.74
  11  -1  -2  140.88   15.15
 -11  -1   2  129.07   13.12
  11   1  -2  171.71   14.16
   9  -1  -2    7.04    3.34
   9  -1  -2    8.25    3.28
   9   1  -2    7.90    2.96
   7   1  -2  115.51    9.73
   7  -1  -2  127.38   10.53
   7  -1  -2  137.56   10.19
   7   1  -2  124.30   10.34
   5   1  -2   40.86    5.36
   5  -1  -2   39.50    5.38
   5   1  -2   41.24    5.05
   5  -1  -2   48.52    5.19
   3  -1  -2  767.25   33.61
   3   1  -2  733.70   33.38
   3  -1  -2  740.59   33.18
   3   1  -2  766.15   33.56
   1  -1  -2   74.20    4.75
   1   1  -2   83.52    4.74
  -1  -1  -2 1447.91   61.90
  -3  -1  -2  709.70   32.13
  -3  -1  -2  748.14   33.78
   3  -1   2  702.10   33.82
   5  -1   2  310.14   18.83
  -5  -1  -2  357.56   19.15
  -5  -1  -2  296.27   17.59
  -7  -1  -2  427.43   23.40
   7  -1   2  395.71   24.49
  -7  -1  -2  405.57   24.01
  -9  -1  -2   77.54   10.38
  -9  -1  -2   86.61   11.45
 -11   1  -2    1.21    4.10
 -11  -1  -2    4.70    4.22
 -11   1  -2    2.19    4.52
 -11  -1  -2    8.50    5.21
 -13   1  -2   27.22    8.60
 -13  -1  -2   43.64   10.55
 -13   1  -2   63.42   12.19
 -13  -1  -2   34.24    9.08
 -15   1  -2    8.88    7.06
 -15   1  -2   12.73    7.62
 -15  -1  -2    2.41    6.69
 -15  -1  -2    0.61    5.99
 -17  -1  -2   -1.59    7.59
 -17   1  -2    6.73    7.61
 -17   1  -2   -1.07    7.31
 -19   1  -2   13.12   12.85
 -19  -1  -2    2.72   11.39
 -19   1  -2   19.00   12.01
 -20  -2   2   17.29    7.45
 -20   2   2   -3.00    6.14
 -20   2   2   10.57    7.78
 -18  -2   2   11.28    7.91
 -18   2   2   45.46   12.21
 -18   2   2   17.82    7.82
 -18  -2   2   16.33    7.75
 -16   2   2   67.12   12.43
 -16  -2   2   75.43   12.19
 -16  -2   2   73.07   12.79
 -16   2   2   50.08   10.82
  16  -2  -2   53.94   12.04
  16   2  -2   75.44   14.22
  14  -2  -2   59.01   12.16
 -14  -2   2   32.05    8.02
  14   2  -2   22.51    7.69
  14  -2  -2   34.42    9.06
 -14  -2   2   48.07    9.52
 -12  -2   2  100.28   11.86
  12  -2  -2  116.78   13.57
 -12  -2   2   92.27   12.26
  12  -2  -2   86.35   12.81
  12   2  -2   75.15   11.93
  10  -2  -2   13.54    5.26
 -10  -2   2   14.97    4.60
 -10  -2   2   20.47    5.01
  10  -2  -2   11.53    4.13
  10   2  -2   10.87    4.09
   8  -2  -2   37.43    6.21
   8   2  -2   39.06    6.69
  -8  -2   2   27.63    5.47
  -8  -2   2   21.33    4.72
   8  -2  -2   32.11    6.49
  -6  -2   2  245.29   15.42
  -6  -2   2  251.96   14.91
   6   2  -2  283.91   16.23
   6  -2  -2  272.48   16.49
   6  -2  -2  304.04   15.98
   4  -2  -2   20.59    3.08
   4   2  -2   19.26    2.38
  -4  -2   2   13.51    2.91
  -4  -2   2   19.84    3.38
   4  -2  -2   14.52    3.32
   4   2  -2   21.00    3.44
   2   2  -2  126.80    6.71
   2  -2  -2  113.98    6.69
   2   2  -2  128.83    6.59
   2  -2  -2  120.81    6.63
   0  -2  -2  859.63   37.94
   0   2  -2  894.25   37.81
   2  -2   2    2.47    1.78
  -2  -2  -2    1.49    1.91
   4  -2   2    1.39    2.41
  -4  -2  -2    1.82    2.43
  -4  -2  -2    0.06    2.14
   6  -2   2    4.56    3.15
  -6  -2  -2    1.24    2.55
  -6  -2  -2    3.85    2.99
   8  -2   2   17.91    5.79
  -8  -2  -2   22.94    5.57
  -8  -2  -2   25.29    6.11
 -10  -2  -2   33.41    8.08
  10  -2   2   28.77    7.49
 -10  -2  -2   23.29    6.42
 -12  -2  -2   -4.62    4.46
 -12   2  -2    6.08    5.38
 -12  -2  -2    5.60    5.46
 -12   2  -2    3.64    6.14
 -14  -2  -2    3.30    5.94
 -14   2  -2   10.72    6.53
 -14  -2  -2    8.83    6.80
 -14   2  -2   18.96    8.27
 -16   2  -2    6.37    8.14
 -16  -2  -2    4.55    7.89
 -16   2  -2    5.45    7.64
 -18   2  -2    6.31    9.61
 -18  -2  -2    7.74   10.04
 -18   2  -2  -12.24    7.08
 -21  -3   2   -6.52    5.00
 -21   3   2    2.71    6.23
 -21   3   2   -3.21    6.51
 -19   3   2   16.73    8.62
 -19  -3   2    7.91    7.40
 -19   3   2   22.01    9.54
 -17  -3   2   12.79    6.67
 -17   3   2   20.22    8.06
 -17   3   2   28.17    8.25
  15  -3  -2  173.73   21.13
 -15  -3   2  213.00   19.80
  15  -3  -2  224.40   22.39
  15   3  -2  174.58   21.05
 -15  -3   2  221.06   18.91
  13  -3  -2  410.60   28.29
 -13  -3   2  370.78   26.17
  13   3  -2  425.86   28.45
  13  -3  -2  414.52   27.73
 -13  -3   2  409.87   25.93
 -11  -3   2  163.77   14.30
 -11  -3   2  170.24   13.63
  11  -3  -2  170.07   16.65
  11  -3  -2  173.76   14.59
  11   3  -2  158.62   15.90
   9   3  -2  704.23   38.99
  -9  -3   2  759.53   37.15
  -9  -3   2  717.33   38.44
   9  -3  -2  774.77   38.95
   9  -3  -2  803.69   40.29
   7  -3  -2  140.38   11.30
  -7  -3   2  146.65   10.93
  -7  -3   2  153.36   10.46
   7  -3  -2  134.51   10.34
   7   3  -2  138.68   10.95
  -5  -3   2  170.35   10.93
   5   3  -2  156.21   10.88
   5   3  -2  170.90    9.62
   5  -3  -2  188.06   11.71
   5  -3  -2  194.92   10.92
   3   3  -2    1.43    1.31
  -3  -3   2    1.36    1.27
   3  -3  -2    3.70    1.93
   3   3  -2    1.05    0.95
   3  -3  -2    2.24    1.12
   1  -3  -2  570.67   25.90
   1   3  -2  567.82   25.32
   1   3  -2  587.49   25.14
  -1  -3  -2   23.54    3.19
   1  -3   2   19.24    2.79
   3  -3   2  268.68   15.35
  -3  -3  -2  273.99   15.23
  -5  -3  -2  166.85   12.06
   5  -3   2  181.68   12.82
   7  -3   2    1.82    2.74
  -7  -3  -2   -1.37    2.38
  -9  -3  -2    2.07    3.71
   9  -3   2   12.29    5.04
  -9  -3  -2    5.18    4.10
 -11  -3  -2    3.59    4.98
  11  -3   2    8.67    5.30
 -13  -3  -2   43.97   10.84
 -15   3  -2    3.16    6.65
 -15   3  -2    3.29    7.12
 -15  -3  -2   -0.33    7.40
 -17  -3  -2   24.95   11.44
 -17   3  -2    5.77    8.52
 -17   3  -2   35.56   12.17
 -19  -3  -2   48.16   15.58
 -19   3  -2   44.85   16.45
 -19   3  -2   45.70   17.11
 -20   4   2   20.39   10.31
 -20  -4   2   23.84    9.70
 -20   4   2   23.63    9.83
 -18   4   2   17.37    8.54
 -18  -4   2   27.13    9.37
 -18   4   2   23.90    9.95
 -16  -4   2   10.27    5.60
  16  -4  -2    3.03    6.22
  16  -4  -2    6.48    5.70
  14   4  -2   37.51    9.69
  14  -4  -2   34.65    8.92
 -14  -4   2   31.74    8.77
  14  -4  -2   44.02   10.42
  12   4  -2  100.46   13.85
 -12  -4   2  111.59   12.54
  12  -4  -2  112.99   13.51
  12  -4  -2  107.75   14.36
 -12  -4   2  119.59   13.78
 -10  -4   2   27.70    5.74
 -10  -4   2   17.91    5.40
  10  -4  -2   23.42    5.67
  10  -4  -2   16.41    5.47
  10   4  -2   20.70    6.03
   8  -4  -2   16.85    4.19
  -8  -4   2   12.13    3.98
   8  -4  -2    4.36    3.17
   8   4  -2   15.63    4.77
  -6   4   2  321.10   14.46
   6   4  -2  335.92   18.66
   6   4  -2  314.78   16.40
  -6  -4   2  318.75   18.04
   6  -4  -2  307.23   18.52
   6  -4  -2  328.76   17.63
   4   4  -2   49.17    5.19
  -4  -4   2   58.04    5.41
   4  -4  -2   58.77    5.86
   2  -4  -2  693.12   31.02
   2   4  -2  675.43   30.04
   2   4  -2  675.66   30.03
   0  -4  -2  361.58   17.53
   0   4  -2  354.75   17.12
  -2  -4  -2   85.05    6.81
  -2   4  -2   84.19    6.28
   2  -4   2   97.06    6.93
  -4  -4  -2   16.18    4.05
   4  -4   2   14.88    3.92
   6  -4   2  108.50   11.03
  -6  -4  -2  116.36   10.19
  -8  -4  -2  154.60   13.22
   8  -4   2  158.30   14.97
 -10  -4  -2   28.81    7.27
  10  -4   2   17.04    5.96
 -12  -4  -2  247.11   21.05
  12  -4   2  282.00   22.65
 -14  -4  -2   56.55   12.67
 -16  -4  -2   27.59   10.63
 -16   4  -2   32.47   11.20
 -16   4  -2   35.61   11.65
 -18  -4  -2    2.86    9.30
 -18   4  -2  -14.51    8.25
 -18   4  -2   -1.14   10.31
 -21   5   2   -8.24    6.87
 -21   5   2    7.17    7.38
 -21  -5   2    2.84    5.32
 -19   5   2   40.49   12.17
 -19  -5   2   31.62   10.25
 -19   5   2   45.41   13.46
  17  -5  -2   -1.54    6.03
 -17  -5   2   -0.69    5.41
  15   5  -2   33.28   10.33
 -15  -5   2   50.74    9.91
  15  -5  -2   47.21   11.29
  15  -5  -2   65.90   12.85
  13  -5  -2    2.24    3.58
  13  -5  -2    1.86    3.04
  13   5  -2   -6.02    3.09
 -13  -5   2    0.96    3.95
  11  -5  -2   48.19    8.52
  11  -5  -2   35.43    7.96
 -11  -5   2   30.26    7.11
  11   5  -2   44.77    9.07
   9  -5  -2  106.07   10.62
  -9  -5   2  102.65   11.01
   9  -5  -2   88.37   11.18
   9   5  -2  109.46   11.77
   7   5  -2  623.87   34.06
  -7  -5   2  693.63   34.15
  -7   5   2  678.91   29.07
   7   5  -2  684.78   31.52
   7  -5  -2  675.47   33.35
   7  -5  -2  680.33   34.75
  -5   5   2 1958.29   81.42
   5   5  -2 1936.98   86.23
  -5  -5   2 2032.07   86.22
   5  -5  -2 1960.06   87.04
   3   5  -2  568.78   26.12
  -3  -5   2  580.84   26.42
  -3   5   2  581.46   25.74
   3  -5  -2  551.07   25.38
   3   5  -2  560.93   26.22
   3  -5  -2  551.16   27.06
   1  -5  -2 1311.85   53.83
   1   5  -2 1238.19   53.13
   1   5  -2 1224.13   53.44
   1  -5  -2 1242.52   55.06
  -1  -5  -2  241.93   13.89
   1  -5   2  264.10   13.67
  -1   5  -2  267.95   13.70
  -3   5  -2    9.94    2.81
   3  -5   2   10.48    3.11
  -3  -5  -2    6.57    3.03
  -5  -5  -2   28.31    5.60
   5  -5   2   23.33    5.37
  -7  -5  -2   15.14    4.98
   7  -5   2   14.20    4.94
  -9  -5  -2   71.36   10.59
   9  -5   2   75.95   11.37
  11  -5   2  209.01   18.75
 -11  -5  -2  228.37   19.25
 -13  -5  -2  187.72   20.52
  13  -5   2  193.81   21.05
  15  -5   2   15.76    7.46
 -15  -5  -2    9.59    8.23
 -17   5  -2  121.05   20.89
 -17  -5  -2   99.86   18.79
 -17   5  -2  137.54   22.81
 -19   5  -2   -3.74   12.63
 -19   5  -2   -6.61   11.98
 -19  -5  -2    4.46   10.76
 -20  -6   2   20.29    7.94
 -20   6   2   -8.80    6.88
 -20   6   2    7.84    8.01
 -18  -6   2   95.60   16.54
  18  -6  -2   97.75   18.13
  16  -6  -2  120.77   18.20
  16  -6  -2  102.88   16.91
 -16  -6   2  100.81   15.31
 -14  -6   2   13.63    5.74
  14   6  -2    3.28    5.03
  14  -6  -2    6.49    5.48
  14  -6  -2    7.73    5.53
 -12  -6   2  142.92   15.71
  12  -6  -2  153.47   16.82
  12  -6  -2  172.53   14.99
  12   6  -2  192.03   18.43
  10  -6  -2  115.05   13.41
  10  -6  -2  132.25   11.52
 -10  -6   2  132.24   13.32
  10   6  -2  117.15   13.33
  -8   6   2  244.11   12.11
  -8  -6   2  216.30   15.55
   8  -6  -2  221.51   16.26
   8   6  -2  245.63   16.78
   8  -6  -2  263.76   16.03
  -6   6   2  203.57   11.07
   6   6  -2  207.57   13.70
   6  -6  -2  204.67   14.01
  -6  -6   2  206.80   13.37
   4  -6  -2   19.65    4.32
   4   6  -2   13.37    3.13
   4  -6  -2   22.57    3.07
  -4  -6   2   15.52    3.40
  -4   6   2   24.89    3.67
   4   6  -2   22.31    3.87
  -2  -6   2  843.72   39.17
   2   6  -2  924.95   38.46
   2  -6  -2  898.79   38.12
   2  -6  -2  857.55   40.11
   2   6  -2  844.01   38.89
   0  -6   2    2.99    1.79
   0  -6  -2    2.25    2.20
   0   6  -2    0.94    1.73
   2  -6   2  337.07   18.62
  -2  -6  -2  360.16   18.99
  -2   6  -2  370.06   18.08
  -4   6  -2   75.35    6.54
   4  -6   2   91.68    9.01
  -4  -6  -2  101.38    9.15
  -6  -6  -2  482.63   26.97
   6  -6   2  479.31   27.24
  -6   6  -2  484.18   23.74
   8  -6   2   83.67   11.24
  -8  -6  -2   70.59   10.06
  -8   6  -2   69.81    7.06
  10  -6   2   25.15    7.02
 -10  -6  -2   20.78    7.10
 -12  -6  -2   43.47   10.28
  12  -6   2   30.01    8.70
 -14  -6  -2   89.02   14.96
  14  -6   2   64.91   13.15
 -16  -6  -2    2.71    8.59
  16  -6   2    7.64    6.19
 -18   6  -2    3.13   10.52
 -18   6  -2    7.81   10.81
 -18  -6  -2    6.88    9.10
 -21   7   2   -9.58    8.80
 -21  -7   2   -1.34    5.07
 -21   7   2   11.18    8.57
  19  -7  -2   10.03    7.85
 -19  -7   2    1.94    6.10
 -17  -7   2   10.28    6.60
  17  -7  -2   11.86    7.09
  15  -7  -2   19.86    7.33
  15  -7  -2   11.55    7.12
 -15  -7   2   30.28    8.49
  13   7  -2   41.72   10.23
  13  -7  -2   43.74    9.78
 -13  -7   2   35.63    8.29
  13  -7  -2   54.59    9.84
 -11  -7   2   53.68    9.16
  11  -7  -2   71.04    9.88
  11  -7  -2   62.40   10.67
  11   7  -2   82.47   11.96
   9  -7  -2    5.69    3.90
   9  -7  -2    3.02    2.69
  -9   7   2    6.02    2.49
   9   7  -2    3.30    3.12
  -9  -7   2    3.64    3.04
  -7  -7   2    7.81    3.19
  -7   7   2   11.57    2.94
   7   7  -2   12.31    4.30
   7  -7  -2    8.06    2.83
   7  -7  -2   10.72    4.04
   7   7  -2    0.44    1.49
   5  -7  -2   65.25    7.74
   5  -7  -2   64.84    5.45
  -5  -7   2   63.74    6.83
   5   7  -2   62.09    6.94
  -5   7   2   64.79    5.96
   5   7  -2   60.97    6.84
   3   7  -2    0.96    1.89
  -3  -7   2    0.13    1.73
   3  -7  -2    0.44    1.12
   3  -7  -2    2.76    2.44
   3   7  -2    0.37    1.62
  -3   7   2    0.34    1.87
   1  -7  -2   10.44    3.16
   1   7  -2    9.09    2.83
   1  -7  -2   12.60    2.29
   1   7  -2   10.32    1.69
  -1  -7   2   13.14    3.06
  -1  -7  -2   79.82    7.13
   1  -7   2   83.13    6.74
  -1   7  -2   82.60    6.76
   3  -7   2   41.98    5.90
  -3   7  -2   31.90    4.79
  -3  -7  -2   50.83    6.52
  -5  -7  -2  100.37    9.84
  -5   7  -2   86.12    7.27
   5  -7   2   89.02    9.60
  -7   7  -2    2.89    2.38
   7  -7   2    8.41    4.10
  -7  -7  -2    2.07    3.60
  -9   7  -2   51.59    6.29
  -9  -7  -2   51.86    9.22
   9  -7   2   41.79    8.56
 -11  -7  -2   41.12    9.47
  11  -7   2   44.74    9.49
  13  -7   2    6.45    5.91
 -13  -7  -2   11.84    7.13
  15  -7   2   11.50    7.83
 -15  -7  -2   13.66    8.08
 -17  -7  -2   14.97    8.47
 -19   7  -2    2.03   14.97
 -19   7  -2   -6.06   12.93
 -19  -7  -2   -3.00    6.07
 -20  -8   2   -0.28    5.69
  20  -8  -2    8.36    9.93
 -18  -8   2   -0.48    5.28
  18  -8  -2   -0.42    6.63
  16  -8  -2   44.64   11.58
 -16  -8   2   39.46    9.59
 -14  -8   2   18.83    6.45
  14  -8  -2   21.86    7.59
  14   8  -2   11.51    6.55
  14  -8  -2   11.10    6.00
  12  -8  -2  181.13   15.82
  12   8  -2  217.27   20.12
 -12  -8   2  180.58   17.57
  12  -8  -2  205.88   19.53
  10  -8  -2   53.17    9.52
  10   8  -2   50.86    9.32
  10  -8  -2   47.97    7.88
 -10  -8   2   45.37    8.23
   8  -8  -2  183.13   12.86
   8   8  -2  187.62   14.21
   8  -8  -2  192.99   14.91
  -8  -8   2  166.09   13.20
  -8   8   2  186.76   11.04
   6  -8  -2   74.41    8.72
   6   8  -2   71.28    7.83
  -6   8   2   59.62    6.11
   6  -8  -2   61.57    6.18
  -6  -8   2   66.97    7.55
   6   8  -2   59.88    7.63
  -4   8   2   29.95    4.88
   4   8  -2   25.34    4.34
   4  -8  -2   39.43    6.01
  -4  -8   2   25.32    4.66
   4   8  -2   22.59    4.52
   4  -8  -2   31.44    3.44
   2   8  -2    1.06    1.41
  -2  -8   2    0.51    1.80
   2  -8  -2    4.24    2.60
   2   8  -2    1.27    1.92
   2  -8  -2    4.92    1.52
  -2   8   2    1.50    2.27
   0   8  -2    5.48    2.71
   0  -8   2    2.97    1.99
   0  -8  -2    3.76    2.91
  -2   8  -2  514.13   25.34
   2  -8   2  516.87   26.19
  -2  -8  -2  514.26   26.56
  -4  -8  -2  682.74   33.91
   4  -8   2  648.76   33.93
  -4   8  -2  666.99   31.49
  -6  -8  -2 1335.18   63.98
   6  -8   2 1382.90   64.62
  -6   8  -2 1354.57   59.45
  -8  -8  -2  362.26   23.40
  -8   8  -2  352.11   19.23
   8  -8   2  366.10   23.91
  10  -8   2   49.61    9.47
 -10  -8  -2   41.25    9.13
  12  -8   2   -2.78    3.67
 -12  -8  -2    3.18    5.27
  14  -8   2    9.08    5.59
 -14  -8  -2   14.24    6.86
 -16  -8  -2   -0.36    5.74
  16  -8   2    7.17    7.19
 -18  -8  -2  -11.51    5.06
  19  -9  -2   29.19   10.97
 -19  -9   2   27.24    9.14
  17  -9  -2   13.71    7.55
 -17  -9   2   22.99    8.44
 -15  -9   2    0.78    4.88
  15  -9  -2   -3.23    4.39
  15  -9  -2    2.17    5.29
  13   9  -2    4.31    4.50
 -13  -9   2    4.83    4.80
  13  -9  -2    8.84    5.10
  13  -9  -2    0.04    3.25
  11  -9  -2    1.15    2.61
  11  -9  -2   16.14    5.91
  11   9  -2   20.34    6.28
 -11  -9   2   16.85    5.16
   9  -9  -2  133.22   11.06
   9   9  -2  135.03   13.73
  -9   9   2  139.45    9.47
  -9  -9   2  144.00   12.36
   9  -9  -2  122.30   13.64
   7  -9  -2  648.89   36.25
   7   9  -2  702.86   35.53
  -7  -9   2  683.28   35.00
   7   9  -2  700.49   34.44
  -7   9   2  678.18   31.98
   7  -9  -2  680.62   33.39
  -5  -9   2 1706.50   75.55
   5  -9  -2 1657.71   76.84
   5   9  -2 1707.17   74.48
   5  -9  -2 1726.59   73.16
   5   9  -2 1643.90   75.09
  -5   9   2 1679.18   72.73
  -3  -9   2 1040.66   46.69
   3   9  -2  945.26   45.95
   3  -9  -2  984.45   43.57
  -3   9   2 1018.10   45.90
   3  -9  -2 1047.11   47.80
   3   9  -2 1006.54   45.04
  -1  -9   2  151.20   10.13
   1  -9  -2  140.77   10.59
   1   9  -2  137.58    7.42
   1  -9  -2  144.97    8.05
  -1   9   2  156.33   11.06
   1   9  -2  115.66    9.75
  -1  -9  -2   11.86    3.71
  -1   9  -2   16.92    3.88
   1  -9   2   17.97    4.13
  -3   9  -2   94.42    8.66
   3  -9   2  111.28    9.44
  -3  -9  -2  105.95    9.30
  -5  -9  -2   -0.11    3.06
  -5   9  -2    4.97    2.69
   5  -9   2    1.88    2.84
   7  -9   2  129.50   13.07
  -7   9  -2  118.13    9.38
  -7  -9  -2  126.61   12.97
  -9  -9  -2  260.75   19.05
  -9   9  -2  239.26   15.12
   9  -9   2  263.80   19.99
  11  -9   2  282.37   22.21
 -11  -9  -2  256.89   21.09
 -13  -9  -2  106.93   15.61
  13  -9   2  126.49   17.24
  15  -9   2  105.65   17.71
 -15  -9  -2  152.69   19.76
  17  -9   2   51.49   12.83
 -17  -9  -2   42.30   10.88
 -19  -9  -2   -9.57    4.40
  20 -10  -2   28.98   12.36
 -20 -10   2    2.07    5.65
  18 -10  -2   12.94    7.65
 -18 -10   2    9.38    6.39
  16 -10  -2   12.08    7.02
 -16 -10   2   -0.11    4.83
  14 -10  -2    2.53    5.18
 -14 -10   2   16.47    6.26
  14 -10  -2    4.89    5.31
 -12 -10   2   -2.70    3.53
  12 -10  -2    0.41    2.78
  12 -10  -2   -1.05    3.29
  12  10  -2    2.98    4.05
  10 -10  -2    5.08    2.89
  10  10  -2    2.87    3.65
  10 -10  -2    2.32    3.47
 -10 -10   2    4.82    3.71
  -8 -10   2   19.75    4.91
   8 -10  -2   20.72    6.22
   8 -10  -2   10.99    3.57
  -8  10   2   11.04    3.57
   8  10  -2    8.95    3.91
   8  10  -2    5.10    2.78
   6  10  -2  220.22   14.83
   6 -10  -2  172.26   14.73
  -6  10   2  214.96   13.42
  -6 -10   2  211.38   14.24
   6  10  -2  199.32   14.06
   6 -10  -2  217.64   12.44
  -4 -10   2   30.94    5.41
   4 -10  -2   32.50    3.48
   4 -10  -2   34.53    6.29
  -4  10   2   39.05    6.10
   4  10  -2   41.05    6.50
   4  10  -2   38.45    5.07
   2 -10  -2   84.72    8.79
  -2  10   2   91.81    9.09
   2 -10  -2   84.54    5.50
  -2 -10   2   94.81    7.96
   2  10  -2   88.11    6.09
   2  10  -2   99.53    9.10
   0 -10  -2   21.23    3.45
   0  10  -2   18.51    4.49
   0 -10  -2   17.27    4.52
   0 -10   2   17.65    4.05
   2 -10   2   52.76    6.91
  -2  10  -2   44.55    6.29
  -2 -10  -2   48.13    7.15
  -4  10  -2  232.65   14.14
   4 -10   2  186.45   14.27
  -4 -10  -2  213.05   14.99
  -6  10  -2   12.97    4.13
   6 -10   2   20.34    5.94
  -6 -10  -2   18.34    4.89
  -8  10  -2   24.70    5.22
   8 -10   2   31.64    7.03
  -8 -10  -2   39.01    7.27
  10 -10   2    0.44    3.50
 -10 -10  -2   -0.71    3.43
 -12 -10  -2    3.27    4.29
  12 -10   2   -0.15    4.29
 -14 -10  -2   37.68   10.14
  14 -10   2   20.80    8.58
  16 -10   2    1.16    6.43
 -16 -10  -2   11.65    8.00
  18 -10   2   -3.42    4.87
 -18 -10  -2    3.07    4.86
  19 -11  -2   11.83    9.20
 -19 -11   2   24.96    8.57
  17 -11  -2   23.08    9.98
 -17 -11   2   17.74    8.61
  15 -11  -2   64.47   13.00
 -15 -11   2   34.13    8.40
  13 -11  -2    7.96    4.96
 -13 -11   2    6.75    4.66
  13 -11  -2    3.48    3.73
 -11 -11   2    5.07    4.29
  11  11  -2    3.67    4.09
  11 -11  -2    8.21    3.38
  11 -11  -2    6.33    4.16
   9 -11  -2  120.51   14.07
   9 -11  -2  136.35   10.81
   9  11  -2  123.91   13.52
  -9  11   2  120.36    9.76
  -9 -11   2  115.33   12.55
  -7 -11   2   25.56    5.82
   7  11  -2   28.22    6.17
   7 -11  -2   17.61    3.90
   7  11  -2   25.85    5.64
  -7  11   2   13.81    4.38
   7 -11  -2   20.92    6.19
  -5  11   2  381.09   21.22
   5 -11  -2  351.02   22.51
  -5 -11   2  387.87   21.81
   5  11  -2  387.75   22.32
   5 -11  -2  376.66   18.73
   5  11  -2  378.75   20.99
  -3  11   2    2.54    2.92
   3  11  -2    2.62    2.19
   3 -11  -2    2.91    3.19
   3  11  -2    1.12    2.23
   3 -11  -2    2.20    1.16
  -3 -11   2    3.39    2.52
   1  11  -2    3.01    1.55
   1  11  -2    0.98    2.28
   1 -11  -2    0.44    2.52
  -1 -11   2    5.07    2.76
  -1  11   2    3.27    2.78
   1 -11  -2    3.06    1.87
  -1 -11  -2   97.41    9.78
   1 -11   2  101.70    9.60
  -1  11  -2  107.49    9.89
  -3  11  -2   22.14    4.75
   3 -11   2   19.46    4.80
  -3 -11  -2   35.99    6.29
  -5  11  -2  123.48    9.92
   5 -11   2  115.36   12.13
  -5 -11  -2  120.74   11.93
  -7  11  -2   40.21    6.74
   7 -11   2   38.64    8.22
  -7 -11  -2   52.21    8.63
  -9 -11  -2   16.80    5.89
   9 -11   2   51.26    9.72
  -9  11  -2   38.90    6.55
 -11 -11  -2    8.14    5.51
  11 -11   2   21.67    7.15
 -13 -11  -2   28.81    8.61
  13 -11   2   20.18    7.87
 -15 -11  -2    5.17    6.18
  15 -11   2   -3.92    5.88
 -17 -11  -2   10.97    7.42
  17 -11   2    6.72    6.65
 -20 -12   2   -3.95    5.47
  18 -12  -2    8.80    7.69
 -18 -12   2    7.10    7.05
  16 -12  -2   23.82    9.30
 -16 -12   2   32.49   10.06
 -14 -12   2  149.11   17.70
  14 -12  -2  110.89   16.83
 -12 -12   2   54.22   10.27
  12 -12  -2   74.43   12.72
  10 -12  -2  225.04   19.23
  10  12  -2  280.22   20.31
 -10 -12   2  252.37   18.74
  10 -12  -2  238.52   16.69
   8 -12  -2   72.80    7.85
   8  12  -2   58.74    9.46
   8 -12  -2   77.81   11.55
  -8 -12   2   69.26    9.59
  -8  12   2   75.40    8.22
   8  12  -2   59.35    9.26
  -6 -12   2  208.93   14.29
  -6  12   2  165.35   12.74
   6 -12  -2  167.71   10.84
   6  12  -2  202.67   13.82
   6 -12  -2  168.47   14.41
   6  12  -2  195.81   14.58
  -4  12   2   24.04    5.54
   4  12  -2   23.90    4.41
   4 -12  -2   31.47    6.41
   4  12  -2   14.86    4.50
   4 -12  -2   22.82    2.84
  -4 -12   2   20.01    4.51
   2  12  -2   94.80    9.77
  -2  12   2   72.09    9.23
   2 -12  -2   83.93    9.37
  -2 -12   2   89.73    9.05
   2 -12  -2   81.94    5.23
   0 -12   2   24.60    5.11
   0 -12  -2   19.34    4.82
   0  12  -2   24.94    5.18
   0  12   2   22.56    5.35
   0 -12  -2   22.16    3.69
  -2 -12  -2    5.41    2.83
   2 -12   2   -1.20    1.97
  -2  12  -2    0.34    2.35
  -4 -12  -2  303.11   19.82
   4 -12   2  308.56   20.13
  -4  12  -2  309.19   18.54
  -6 -12  -2  189.54   15.53
   6 -12   2  221.00   16.85
  -6  12  -2  220.28   14.45
  -8  12  -2   24.07    5.13
  -8 -12  -2   40.90    7.97
   8 -12   2   23.49    6.35
  10 -12   2   18.27    6.28
 -10 -12  -2    7.52    5.11
 -12 -12  -2    2.95    4.08
  12 -12   2   -5.21    3.81
  14 -12   2    2.49    5.94
 -14 -12  -2   -1.17    5.99
  16 -12   2   -4.42    5.51
 -16 -12  -2    9.25    6.71
 -18 -12  -2    3.36    5.05
  18 -12   2    8.29    5.68
 -19 -13   2    0.68    7.17
  19 -13  -2    6.59    8.89
 -17 -13   2   -3.04    5.70
  17 -13  -2   -0.57    6.20
 -15 -13   2   30.55    8.47
  15 -13  -2   24.37    8.77
  13 -13  -2   80.23   14.04
 -13 -13   2  100.45   14.28
 -11 -13   2    5.53    5.10
  11 -13  -2    3.52    3.93
  -9 -13   2    5.89    3.86
   9 -13  -2   17.21    5.55
  -9  13   2   16.53    5.03
  -7 -13   2   19.05    5.07
   7 -13  -2   10.28    3.17
   7 -13  -2   16.02    4.89
   7  13  -2   12.42    4.38
   7  13  -2   23.20    5.84
  -7  13   2   23.68    5.53
   5  13  -2    2.99    2.72
  -5  13   2   -2.07    2.61
   5 -13  -2   -2.31    2.22
  -5 -13   2    3.52    3.19
   5  13  -2    1.26    2.87
   5 -13  -2    2.52    1.57
  -3 -13   2  130.49   10.90
  -3  13   2  160.23   12.24
   3  13  -2  141.21   12.98
   3 -13  -2  130.93    7.36
   3 -13  -2  137.70   11.62
  -1  13   2   48.71    8.09
   1 -13  -2   49.95    4.53
   1  13  -2   48.61    7.86
   1 -13  -2   34.48    6.72
  -1 -13   2   54.20    7.62
  -1 -13  -2   11.03    3.76
  -1  13  -2   11.83    4.21
   1 -13   2   10.65    3.48
  -3  13  -2  371.25   21.05
  -3 -13  -2  321.14   21.18
   3 -13   2  330.35   21.27
   5 -13   2   44.87    8.25
  -5 -13  -2   52.40    8.54
  -5  13  -2   47.27    7.55
  -7  13  -2    9.48    3.94
  -7 -13  -2    8.56    4.62
   7 -13   2    4.48    4.01
  -9 -13  -2    1.41    3.96
   9 -13   2    7.94    5.03
 -11 -13  -2   -1.09    4.06
  11 -13   2   -2.53    3.79
  13 -13   2   23.40    8.05
 -13 -13  -2   20.90    8.65
  15 -13   2    6.36    6.19
 -15 -13  -2   11.88    7.41
  17 -13   2   -7.59    5.12
 -17 -13  -2    0.84    5.05
  18 -14  -2   25.21   11.24
 -18 -14   2   25.77   10.30
  16 -14  -2   12.88    8.28
 -16 -14   2   23.44    8.40
  14 -14  -2    1.61    4.93
 -14 -14   2    3.10    4.73
  12 -14  -2   20.46    6.88
 -12 -14   2   17.64    6.13
 -10 -14   2   25.50    7.20
  10 -14  -2   19.42    6.60
  -8  14   2   51.88    7.79
   8  14  -2   32.60    7.39
   8 -14  -2   34.82    7.68
  -8 -14   2   32.36    7.35
  -6 -14   2  191.98   14.08
   6  14  -2  166.83   14.26
  -6  14   2  153.32   12.89
   6 -14  -2  164.68   14.59
  -4  14   2  604.21   33.13
   4 -14  -2  621.55   34.51
  -4 -14   2  652.13   33.44
   4  14  -2  619.60   34.12
  -2 -14   2  202.81   15.06
   2 -14  -2  238.32   11.29
   2 -14  -2  217.45   16.04
  -2  14   2  208.43   16.14
   2  14  -2  257.92   17.20
   0 -14   2  186.81   14.04
   0  14   2  171.86   14.62
   0 -14  -2  201.39   11.34
   0  14  -2  189.92   14.56
   0 -14  -2  190.01   14.29
   2 -14   2   49.12    8.20
  -2  14  -2   68.79    9.14
  -2 -14  -2   67.33    9.34
  -4  14  -2   10.55    4.46
   4 -14   2    2.60    3.28
  -4 -14  -2    5.14    3.62
  -6  14  -2   36.92    7.24
   6 -14   2   41.22    8.54
  -6 -14  -2   41.55    8.20
   8 -14   2   40.52    9.06
  -8  14  -2   38.34    7.32
  -8 -14  -2   26.38    7.08
  10 -14   2   29.33    8.10
 -10 -14  -2   38.62    8.70
 -12 -14  -2   21.97    7.40
  12 -14   2   24.22    7.85
 -14 -14  -2   83.97   14.97
  14 -14   2   86.56   16.23
 -16 -14  -2   56.37   12.70
  19 -15  -2    5.28    7.07
 -19 -15   2    4.03    5.16
 -17 -15   2   20.42    8.81
  17 -15  -2   32.42    9.64
 -15 -15   2   26.04    9.15
  15 -15  -2    9.44    7.47
 -13 -15   2   53.44   10.95
  13 -15  -2   61.05   12.45
  11 -15  -2   10.16    5.68
 -11 -15   2    5.76    4.98
   9 -15  -2  105.25   14.81
  -9  15   2  109.02   11.30
  -9 -15   2   93.74   12.61
   7  15  -2   99.32   12.41
  -7  15   2  106.29   11.48
  -7 -15   2  113.32   12.36
   7 -15  -2   94.89   13.09
   5 -15  -2   73.09   10.46
  -5  15   2   56.31    9.03
  -5 -15   2   66.34    9.14
   5  15  -2   56.10    9.37
   3 -15  -2  127.11   13.26
  -3 -15   2  150.89   12.36
   3  15  -2  141.79   14.17
  -3  15   2  147.84   13.87
  -1 -15   2  274.07   18.19
   1 -15  -2  254.93   18.25
   1  15  -2  254.57   18.40
  -1  15   2  268.48   19.21
   1 -15   2   15.79    5.08
  -1 -15  -2   19.49    5.30
  -1  15  -2    7.29    4.21
   3 -15   2    7.94    3.69
  -3  15  -2    5.92    3.86
  -3 -15  -2    4.03    3.15
  -5  15  -2    2.83    3.36
  -5 -15  -2    7.44    3.93
   5 -15   2   -0.58    3.10
   7 -15   2    1.30    2.98
  -7 -15  -2   -0.30    4.06
  -7  15  -2    3.81    3.92
   9 -15   2   19.27    6.92
  -9 -15  -2   13.63    6.03
 -11 -15  -2   11.13    6.17
  11 -15   2   22.20    7.75
 -13 -15  -2    4.49    5.26
  13 -15   2   -6.11    4.98
 -15 -15  -2   15.65    7.24
  15 -15   2   13.86    7.51
 -17 -15  -2  -12.42    4.61
  17 -15   2    6.50    5.64
  18 -16  -2   -0.82    4.55
 -18 -16   2   -4.40    5.27
 -16 -16   2    7.49    6.52
  16 -16  -2    1.55    5.78
 -14 -16   2   25.41    8.70
  14 -16  -2   32.41   10.36
 -12 -16   2   -0.56    4.28
  12 -16  -2    1.56    4.54
 -10 -16   2    1.23    4.19
  10 -16  -2   -2.03    3.43
  -8 -16   2   37.94    7.93
   8  16  -2   21.24    6.47
  -8  16   2   30.58    6.97
   8 -16  -2   27.20    7.11
  -6  16   2   83.23   11.05
   6 -16  -2   97.48   12.75
  -6 -16   2   87.47   11.10
   6  16  -2   86.75   12.14
   4 -16  -2  121.22   13.64
  -4  16   2  131.54   13.50
  -4 -16   2  141.30   13.49
   4  16  -2  138.13   14.40
   2  16  -2   98.19   12.39
  -2  16   2   92.34   12.02
   2 -16  -2  107.42   12.20
  -2 -16   2  115.95   11.97
   0  16   2    2.67    3.28
   0  16  -2    6.03    4.22
   0 -16  -2    0.69    2.95
   0 -16   2   -1.94    2.53
  -2 -16  -2   22.56    5.73
  -2  16  -2   32.57    7.14
   2 -16   2   25.40    6.25
  -4 -16  -2   13.98    4.89
  -4  16  -2   27.00    6.30
   4 -16   2    9.78    4.84
   6 -16   2    8.29    4.78
  -6 -16  -2   12.93    5.15
  -6  16  -2   13.31    4.87
  -8  16  -2   12.02    5.35
  -8 -16  -2    5.51    4.95
   8 -16   2    5.07    4.38
  10 -16   2    5.11    6.25
 -10 -16  -2    2.19    4.34
  12 -16   2   -2.89    5.01
 -12 -16  -2    4.72    7.03
 -14 -16  -2   29.86    9.35
  14 -16   2   29.24   10.40
  16 -16   2   -4.94    5.82
 -16 -16  -2    5.30    5.35
 -17 -17   2   23.76    8.77
  17 -17  -2  -10.60    5.82
 -15 -17   2   73.24   14.48
  15 -17  -2   76.11   15.60
 -13 -17   2   88.18   14.13
  13 -17  -2   69.79   14.15
  11 -17  -2   55.31   11.24
 -11 -17   2   53.76   10.75
   9 -17  -2   39.68    9.34
  -9 -17   2   57.96   10.17
  -7 -17   2    4.26    3.75
   7  17  -2    2.04    3.73
   7 -17  -2    2.25    3.36
  -7  17   2    4.01    4.05
   5 -17  -2    3.31    3.38
  -5  17   2    4.77    4.28
   5  17  -2    2.72    3.87
  -5 -17   2   -0.32    2.91
  -3  17   2   -1.84    3.55
   3  17  -2    4.96    3.41
   3 -17  -2    2.63    3.21
  -3 -17   2    0.93    3.19
   1  17  -2   15.77    6.16
  -1 -17   2   33.12    7.05
  -1  17   2   36.73    8.25
   1 -17  -2   23.66    6.10
  -1  17  -2  163.39   15.96
  -1 -17  -2  178.45   14.92
   1 -17   2  175.80   14.81
  -3 -17  -2  310.98   22.96
   3 -17   2  396.26   24.65
  -3  17  -2  354.05   23.17
  -5  17  -2  191.25   15.68
   5 -17   2  198.27   18.78
  -5 -17  -2  195.84   16.77
  -7  17  -2  149.90   14.81
  -7 -17  -2  199.73   17.12
   7 -17   2  171.47   18.58
  -9 -17  -2   27.57    8.25
   9 -17   2   32.53    8.95
 -11 -17  -2   11.98    6.96
  11 -17   2   24.82    8.09
 -13 -17  -2   -1.44    5.64
  13 -17   2    2.44    5.91
 -15 -17  -2   -2.82    5.12
  15 -17   2   -6.70    5.40
 -16 -18   2   -1.10    5.74
  16 -18  -2   -1.89    5.80
  14 -18  -2    0.00    5.66
 -14 -18   2   -0.33    6.37
 -12 -18   2    5.83    5.25
  12 -18  -2   -4.41    5.32
 -10 -18   2   12.37    6.15
  10 -18  -2   -4.66    3.67
   8  18  -2   29.17    7.97
   8 -18  -2   26.73    7.88
  -8  18   2   42.93    8.45
  -8 -18   2   41.85    8.70
   6  18  -2   15.32    5.91
   6 -18  -2   24.79    7.43
  -6 -18   2   12.90    5.19
  -6  18   2   11.09    5.18
   4  18  -2   64.92   11.52
  -4 -18   2   77.28   11.02
   4 -18  -2   70.18   11.15
  -4  18   2  100.95   12.74
  -2 -18   2  211.80   17.10
   2  18  -2  239.07   18.93
  -2  18   2  228.03   18.54
   2 -18  -2  237.27   18.11
   0  18  -2   41.40    8.98
   0 -18  -2   64.03   10.33
   0 -18   2   37.15    7.55
  -2 -18  -2   14.10    5.35
  -2  18  -2   13.35    5.30
   2 -18   2   16.46    5.37
  -4 -18  -2   12.00    5.07
  -4  18  -2    6.41    4.63
   4 -18   2   10.09    4.93
  -6 -18  -2    2.64    4.31
  -6  18  -2   11.58    5.56
   6 -18   2    6.79    4.77
   8 -18   2    0.07    4.53
  -8 -18  -2    8.67    4.84
  -8  18  -2   -3.04    4.18
 -10 -18  -2   55.55   11.45
  10 -18   2   60.98   12.20
 -12 -18  -2   80.24   14.81
  12 -18   2   78.68   15.45
  14 -18   2   51.35   13.28
 -14 -18  -2   55.29   11.91
  16 -18   2    4.58    5.53
 -16 -18  -2   -9.98    4.94
  17 -19  -2    9.72    6.70
 -17 -19   2   25.07    8.75
 -15 -19   2    1.30    6.77
  15 -19  -2    5.65    6.57
  13 -19  -2    4.08    6.81
 -13 -19   2    1.88    5.56
 -11 -19   2    2.60    4.87
  11 -19  -2    0.42    5.32
   9 -19  -2   20.03    6.20
  -9 -19   2   21.60    7.08
   7 -19  -2    9.09    5.14
  -7 -19   2   12.01    4.82
  -7  19   2    4.56    5.01
   7  19  -2    3.05    4.75
  -5  19   2   35.30    8.01
   5 -19  -2   33.17    8.31
  -5 -19   2   45.53    8.78
   5  19  -2   42.59    9.81
  -3 -19   2    3.48    3.84
  -3  19   2    2.67    4.32
   3 -19  -2    4.92    3.57
   3  19  -2   -1.86    3.45
  -1 -19   2    0.95    3.32
   1 -19  -2    1.33    3.18
   1  19  -2    0.27    3.47
  -1  19   2    0.88    4.28
  -1 -19  -2   19.74    6.01
  -1  19  -2   14.82    6.48
   1 -19   2    7.44    4.31
  -3 -19  -2    1.62    3.77
   3 -19   2    8.85    4.24
  -3  19  -2   11.79    5.48
   5 -19   2    1.72    3.86
  -5  19  -2    3.54    4.94
  -5 -19  -2    2.67    4.10
  -7 -19  -2    6.31    4.66
  -7  19  -2    4.17    5.10
   7 -19   2   -2.37    4.06
  -9 -19  -2   26.25    7.30
   9 -19   2   20.52    7.14
 -11 -19  -2    3.21    5.78
  11 -19   2   10.77    7.59
 -13 -19  -2   20.62    7.92
  13 -19   2   -0.71    6.31
 -15 -19  -2    5.57    4.97
  15 -19   2   -9.44    5.40
 -16 -20   2    7.93    7.35
  16 -20  -2    9.80    6.22
  14 -20  -2    1.03    5.99
 -14 -20   2    1.09    6.18
 -12 -20   2  -12.23    5.11
  12 -20  -2    2.12    5.94
 -10 -20   2    9.83    5.30
  10 -20  -2    8.56    6.61
   8 -20  -2   21.83    7.15
  -8  20   2   13.72    6.53
  -8 -20   2    8.21    5.37
  -6  20   2    7.69    5.44
  -6 -20   2    2.04    3.85
   6  20  -2   16.57    6.64
   6 -20  -2   11.59    5.77
  -4 -20   2   15.97    5.89
  -4  20   2   36.49    8.93
   4  20  -2    7.12    5.24
   4 -20  -2   16.72    6.15
  -2  20   2  203.93   19.59
  -2 -20   2  223.39   17.85
   2 -20  -2  220.07   18.11
   2  20  -2  184.29   19.34
   0 -20  -2   63.06   10.68
   0 -20   2   66.31   10.71
   0  20  -2   71.17   12.15
  -2  20  -2   14.30    6.25
  -2 -20  -2   15.81    5.75
   2 -20   2    4.89    4.16
  -4 -20  -2   16.97    6.20
  -4  20  -2   17.30    7.00
   4 -20   2   20.20    6.67
  -6  20  -2   50.56   10.14
   6 -20   2   37.20    9.48
  -6 -20  -2   43.75    9.26
  -8 -20  -2   18.81    6.58
  -8  20  -2   19.45    7.23
   8 -20   2   18.43    7.58
  10 -20   2   10.91    8.09
 -10 -20  -2   19.11    7.64
  12 -20   2   48.29   12.70
 -12 -20  -2   62.77   12.94
  14 -20   2    1.54    6.79
 -14 -20  -2    3.79    5.54
 -15 -21   2   -2.75    5.81
  15 -21  -2   -2.91    5.65
 -13 -21   2   40.71   10.44
  13 -21  -2   46.99   12.33
 -11 -21   2   59.39   12.26
  11 -21  -2   65.07   13.73
   9 -21  -2    9.96    5.88
  -9 -21   2   17.70    6.46
   7  21  -2    2.84    5.04
   7 -21  -2    0.92    4.16
  -7 -21   2    7.88    5.27
  -7  21   2   -1.74    4.33
  -5 -21   2    8.78    4.86
   5  21  -2    8.88    5.06
  -5  21   2   -3.39    4.62
   5 -21  -2    1.16    3.83
  -3 -21   2   45.85    9.74
  -3  21   2   66.08   11.83
   3  21  -2   61.89   11.70
   3 -21  -2   70.35   11.95
  -1 -21   2    3.37    4.46
   1 -21  -2   16.06    5.68
   1  21  -2    3.03    5.11
  -1  21  -2   21.27    7.67
  -1 -21  -2   24.87    7.17
   1 -21   2   27.76    7.23
   3 -21   2   16.17    6.36
  -3 -21  -2    8.20    4.87
  -3  21  -2   23.29    7.71
   5 -21   2   21.91    7.70
  -5 -21  -2   26.84    7.63
  -5  21  -2   34.25    9.02
  -7 -21  -2   17.22    6.83
  -7  21  -2   18.26    7.49
   7 -21   2   16.78    7.38
   9 -21   2    6.29    6.49
  -9 -21  -2   11.75    6.92
 -11 -21  -2   -1.64    5.26
  11 -21   2    4.02    7.46
  13 -21   2    7.70    6.17
 -13 -21  -2  -11.22    5.27
  14 -22  -2    5.96    7.24
 -14 -22   2    5.19    6.51
  12 -22  -2   34.23   11.11
 -12 -22   2   45.88   11.06
  10 -22  -2   15.44    8.06
 -10 -22   2   18.24    7.68
  -8 -22   2   12.65    6.06
  -8  22   2    9.78    6.59
   8 -22  -2    0.92    5.57
   6  22  -2    1.17    4.32
  -6 -22   2    0.20    3.77
  -6  22   2   -0.34    4.66
   6 -22  -2    1.96    4.84
   4  22  -2   10.40    5.66
   4 -22  -2    1.79    3.88
  -4  22   2    3.53    4.94
  -4 -22   2    3.10    4.50
   2  22  -2    5.11    5.76
   2 -22  -2    1.09    4.58
  -2 -22   2   -0.76    3.13
   0 -22  -2    4.87    4.40
   0  22  -2    2.18    4.82
   0 -22   2    4.56    4.18
  -2  22  -2   15.48    7.29
  -2 -22  -2   14.08    5.95
   2 -22   2   16.64    5.89
  -4 -22  -2   14.83    6.25
  -4  22  -2   41.82   10.02
   4 -22   2   15.31    6.46
   6 -22   2   24.20    8.16
  -6 -22  -2   41.25    9.85
  -6  22  -2   34.66    9.19
   8 -22   2   17.50    8.12
  -8 -22  -2    8.40    6.34
 -10 -22  -2   -0.25    5.74
  10 -22   2    3.21    6.94
 -12 -22  -2    9.00    6.16
  12 -22   2    7.65    7.19
  13 -23  -2    7.19    6.92
 -13 -23   2   24.59    8.64
 -11 -23   2    4.33    6.15
  11 -23  -2    5.36    6.50
  -9 -23   2   19.50    7.77
   9 -23  -2   24.12    9.30
  -7 -23   2   38.37    9.02
   7  23  -2   36.69    9.82
   7 -23  -2   27.74    9.02
  -7  23   2   16.05    7.55
  -5  23   2   20.02    7.74
   5  23  -2   24.81    8.78
   5 -23  -2   17.53    7.52
  -5 -23   2   12.88    5.88
   3  23  -2  120.07   17.32
   3 -23  -2   83.58   13.65
  -3 -23   2  100.11   14.00
  -3  23   2   77.30   13.55
   1 -23  -2   14.84    6.23
  -1 -23   2   26.25    7.35
   1  23  -2   25.65    8.63
  -1 -23  -2   21.89    6.94
   1 -23   2   36.43    9.19
  -1  23  -2   36.03    9.34
  -3  23  -2    5.39    6.12
  -3 -23  -2    3.82    4.54
   3 -23   2    0.63    4.31
  -5  23  -2   18.62    7.50
   5 -23   2    9.86    6.02
  -5 -23  -2   21.71    7.15
   7 -23   2   -0.45    6.19
  -7 -23  -2   -0.39    5.21
  -7  23  -2   -1.85    5.72
  -9 -23  -2   25.24    8.86
   9 -23   2   44.58   11.81
  11 -23   2   13.84    8.45
 -11 -23  -2   20.71    8.08
 -13 -23  -2    3.79    5.67
  13 -23   2   -1.79    5.73
 -14 -24   2    0.89    7.01
  14 -24  -2   -3.16    6.11
  12 -24  -2   17.59    7.84
 -12 -24   2   -9.23    5.46
  10 -24  -2    0.52    5.46
 -10 -24   2    3.83    5.52
  -8 -24   2    2.66    5.48
   8 -24  -2   -0.55    5.64
   6 -24  -2   11.70    7.10
   6  24  -2   19.17    7.98
  -6 -24   2    6.43    5.68
  -6  24   2   21.11    7.66
   4  24  -2   12.28    6.76
  -4 -24   2   14.43    5.65
   4 -24  -2    6.39    5.15
   2 -24  -2    0.35    3.84
   2  24  -2    1.17    5.61
  -2 -24   2   -2.49    4.29
   0 -24   2    0.11    4.13
   0  24  -2    0.93    5.19
   0 -24  -2   -5.58    3.45
   2 -24   2    4.86    5.15
  -2  24  -2    6.24    6.41
  -2 -24  -2   10.21    5.78
  -4  24  -2    7.07    6.42
   4 -24   2    6.48    5.74
  -4 -24  -2    3.35    5.59
  -6  24  -2   -5.26    5.19
  -6 -24  -2    0.69    5.30
   6 -24   2    1.44    5.56
   8 -24   2    2.54    7.16
  -8 -24  -2    5.00    5.87
  10 -24   2    5.58    6.99
 -10 -24  -2    7.75    7.23
 -12 -24  -2   -5.43    4.22
  12 -24   2   -3.32    5.45
 -13 -25   2    3.34    6.68
  13 -25  -2    7.25    6.18
  11 -25  -2    0.63    6.60
 -11 -25   2   10.36    6.71
   9 -25  -2    4.99    6.44
  -9 -25   2    3.52    5.29
  -7 -25   2    3.88    5.77
   7 -25  -2   -6.02    4.09
   5  25  -2   24.06    8.38
  -5 -25   2   43.64   10.09
   5 -25  -2   35.76    9.58
   3  25  -2    8.95    6.92
  -3 -25   2   17.01    7.08
   3 -25  -2   11.76    6.93
  -1 -25   2   18.61    6.31
   1  25  -2   29.64   10.47
   1 -25  -2   14.08    6.89
  -1 -25  -2   -0.24    4.35
   1 -25   2   -1.05    4.31
  -1  25  -2    7.59    6.81
  -3 -25  -2   -3.17    4.12
   3 -25   2   -3.47    4.99
  -3  25  -2   -5.24    5.30
  -5 -25  -2    1.62    5.57
  -5  25  -2   -4.14    7.04
   5 -25   2    0.94    6.04
   7 -25   2    2.21    7.35
  -7  25  -2    2.27    7.39
  -7 -25  -2   -5.22    4.58
   9 -25   2    3.27    6.44
  -9 -25  -2   13.46    7.00
  11 -25   2   22.01    8.36
 -11 -25  -2   -2.35    4.27
 -12 -26   2   34.48   10.11
  12 -26  -2    2.85    5.91
 -10 -26   2   24.39    8.82
  10 -26  -2    8.31    6.70
  -8 -26   2   14.19    7.93
   8 -26  -2   16.23    8.46
   6 -26  -2   -1.06    5.58
   6  26  -2    3.34    5.74
  -6 -26   2    0.11    5.12
  -4 -26   2    0.00    4.91
   4  26  -2    7.95    6.17
   4 -26  -2    0.99    4.92
  -2 -26   2    2.08    5.45
   2  26  -2   -4.51    5.17
   2 -26  -2   -4.32    4.99
   0  26  -2   12.11    8.00
   0 -26  -2   12.78    6.15
   0 -26   2   17.61    6.85
   2 -26   2   17.52    7.73
  -2  26  -2   22.82    9.67
  -2 -26  -2   20.52    8.06
   4 -26   2   62.38   13.45
  -4  26  -2   60.90   13.84
  -4 -26  -2   90.23   14.94
  -6  26  -2   20.73    9.50
  -6 -26  -2   46.68   10.96
   6 -26   2   26.33   10.37
   8 -26   2   22.90   10.27
  -8 -26  -2   41.71   11.45
  10 -26   2   17.18    6.88
 -10 -26  -2   -3.36    4.71
  11 -27  -2    2.71    6.31
 -11 -27   2   -6.04    6.24
   9 -27  -2   -3.16    4.93
  -9 -27   2    5.01    6.34
   7 -27  -2   13.28    7.26
  -7 -27   2   14.11    7.32
   5 -27  -2    6.96    5.68
   5  27  -2    5.37    7.03
  -5 -27   2    7.03    7.13
  -3 -27   2   13.31    7.01
   3  27  -2   13.98    8.63
   3 -27  -2   15.09    6.68
   1 -27  -2   15.74    7.51
  -1 -27   2    7.60    6.49
   1  27  -2   12.54    7.82
   1 -27   2    2.93    6.35
  -1 -27  -2    9.21    6.35
  -1  27  -2    4.32    7.45
   3 -27   2    4.56    6.02
  -3  27  -2   15.33    8.91
  -3 -27  -2   -7.30    4.28
  -5  27  -2   10.40    7.77
   5 -27   2    9.20    7.06
  -5 -27  -2   -3.30    5.39
   7 -27   2    4.40    6.54
  -7 -27  -2   -4.15    5.64
   9 -27   2    2.64    6.46
  -9 -27  -2   -2.00    4.18
 -10 -28   2   15.77    7.07
  10 -28  -2    2.74    6.20
   8 -28  -2    0.24    5.78
  -8 -28   2    1.77    5.73
   6 -28  -2   25.04    8.14
  -6 -28   2    0.06    5.89
  -4 -28   2   -5.17    4.41
   4  28  -2    2.08    5.77
   4 -28  -2    6.05    6.20
   2  28  -2   19.25    8.73
  -2 -28   2    9.20    6.99
   2 -28  -2   -0.73    5.28
   0 -28  -2   15.12    6.92
   0  28  -2    6.44    8.49
   0 -28   2   -3.42    5.49
   2 -28   2   15.27    7.61
  -2  28  -2    1.17    7.89
  -2 -28  -2    8.67    6.06
   4 -28   2   -3.84    5.26
  -4  28  -2   -4.10    7.77
  -4 -28  -2   -5.55    4.54
  -6 -28  -2    3.86    5.66
   6 -28   2    8.87    7.35
  -6  28  -2   15.66    9.13
   8 -28   2    6.92    7.39
  -8 -28  -2    5.98    5.12
  -7 -29   2   12.56    7.25
   7 -29  -2   -0.32    4.64
   5 -29  -2   -0.86    5.14
  -5 -29   2   11.00    6.48
   3  29  -2   14.02    9.18
   3 -29  -2    3.20    5.60
  -3 -29   2    5.25    5.76
  -1 -29   2   11.58    6.45
   1  29  -2    5.81    7.28
   1 -29  -2   -1.42    5.41
  -1  29  -2    4.98    8.04
  -1 -29  -2    0.47    5.22
   1 -29   2    7.39    5.73
  -3 -29  -2    4.42    6.16
  -3  29  -2   -7.58    8.04
   3 -29   2   -2.10    6.29
  -5 -29  -2   -0.87    4.97
  -5  29  -2   -2.39    8.26
   5 -29   2   -7.66    5.49
  -6 -30   2    3.79    5.99
   6 -30  -2   -4.28    4.88
  -4 -30   2    6.45    6.61
   4 -30  -2    0.86    4.19
  -2 -30   2    2.04    5.81
   2  30  -2   14.51   10.36
   2 -30  -2    5.63    5.44
   0  30  -2   17.83   10.71
   0 -30  -2   -3.07    4.55
   0 -30   2   -1.65    6.15
  -2  30  -2   -1.86    7.88
  -2 -30  -2    3.72    4.60
   2 -30   2    7.53    5.93
  -4 -30  -2    3.45    5.04
  -4  30  -2   -2.72    9.20
   4 -30   2   -1.94    6.38
  -3 -31   2   -0.21    5.24
   3 -31  -2    2.42    4.80
  -1 -31   2  -13.82    5.03
   1  31  -2   13.61   11.54
   1 -31  -2    1.37    4.75
   1 -31   2   12.41    7.01
  -1 -31  -2    1.92    4.44
  -1  31  -2   36.38   13.73
 -20   0   3    7.50    7.25
 -20   0   3   -1.50    5.81
  18   0  -3   -0.20    5.98
 -18   0   3   -2.97    5.53
 -18   0   3   -4.87    4.85
 -16   0   3    3.65    5.11
 -16   0   3   -0.30    4.16
  16   0  -3    5.08    5.02
  14   0  -3   -1.73    2.95
 -14   0   3   -3.27    3.20
 -14   0   3   -2.62    3.83
  12   0  -3    1.87    2.83
  12   0  -3    2.18    4.04
  10   0  -3   -0.61    1.88
  10   0  -3   -4.08    2.60
   8   0  -3    1.44    1.77
   8   0  -3   -1.76    2.45
   6   0  -3   -3.20    1.10
   6   0  -3   -4.83    1.81
   4   0  -3   -0.10    1.27
   4   0  -3   -2.40    1.55
   2   0  -3   -0.14    0.92
   0   0  -3   -2.62    0.92
   0   0  -3    0.44    1.09
  -2   0  -3   -0.67    1.92
  -2   0  -3   -0.65    1.95
  -4   0  -3    1.80    2.45
  -4   0  -3    3.79    2.46
  -6   0  -3   -0.27    2.60
  -6   0  -3    3.84    2.81
  -8   0  -3   -1.07    2.97
  -8   0  -3    1.32    3.23
 -10   0  -3    0.53    4.33
 -10   0  -3    4.12    5.00
 -12   0  -3    1.47    4.63
 -12   0  -3    0.89    5.22
 -14   0  -3   -4.63    6.50
 -14   0  -3   -0.97    6.33
 -16   0  -3    4.50    8.80
 -16   0  -3    2.74    8.18
 -18   0  -3   -4.16    8.87
 -21   1   3    0.62    6.12
 -21  -1   3   -6.60    5.88
 -21   1   3    3.95    5.95
 -19   1   3    3.96    6.75
 -19  -1   3   12.02    7.33
 -19   1   3    6.94    6.66
 -19  -1   3   18.10    8.75
  17   1  -3   96.54   16.68
  17  -1  -3  110.83   17.88
 -17   1   3  108.96   16.18
 -17  -1   3   94.01   14.79
 -17  -1   3  110.19   15.86
 -17   1   3   80.69   14.32
  15  -1  -3   40.43    9.92
  15   1  -3   39.37   10.14
 -15   1   3   32.52    8.23
 -15  -1   3   38.63    8.73
 -15  -1   3   23.62    7.09
 -15   1   3   28.49    8.29
  13  -1  -3  268.79   21.39
  13   1  -3  271.17   21.38
 -13  -1   3  298.74   21.42
  13  -1  -3  325.60   23.70
 -13  -1   3  292.20   20.59
  11   1  -3   88.30   11.22
 -11  -1   3   57.79    9.04
  11  -1  -3   79.06   11.28
  11  -1  -3   57.28    9.37
 -11  -1   3   50.79    8.21
   9   1  -3  295.35   19.29
   9  -1  -3  294.13   18.67
   9   1  -3  309.27   19.20
   9  -1  -3  271.54   18.94
   7   1  -3   95.77    8.21
   7  -1  -3   99.22    9.35
   7   1  -3   98.68    9.24
   7   1  -3   89.22    5.24
   7  -1  -3   92.72    8.04
   5   1  -3   49.91    3.34
   5  -1  -3   42.51    4.95
   5   1  -3   55.86    5.55
   5   1  -3   50.54    5.47
   5  -1  -3   55.72    5.75
   3   1  -3  240.99   11.72
   3  -1  -3  225.47   12.15
   3   1  -3  235.79   12.25
   3  -1  -3  251.16   12.04
   1  -1  -3  494.81   22.74
   1   1  -3  492.48   22.56
   3  -1   3    2.53    2.40
  -3  -1  -3    1.40    2.15
  -3  -1  -3    4.62    2.38
  -5  -1  -3  149.78   11.47
  -5  -1  -3  144.46   10.80
   5  -1   3  158.72   11.97
  -7  -1  -3    7.74    3.88
   7  -1   3    8.68    4.27
  -7  -1  -3    7.85    4.11
  -9  -1  -3    2.67    3.37
  -9   1  -3   -4.74    3.40
  -9   1  -3    0.91    2.98
  -9  -1  -3    8.46    4.82
 -11  -1  -3    8.39    5.99
 -11  -1  -3    6.95    5.10
 -11   1  -3    7.25    5.37
 -11   1  -3   10.03    6.02
 -13  -1  -3   -2.31    4.75
 -13   1  -3    9.37    5.96
 -13   1  -3   -2.19    5.08
 -13  -1  -3    3.32    5.43
 -15   1  -3    2.88    7.49
 -15   1  -3   10.45    8.47
 -15  -1  -3    7.52    8.17
 -15  -1  -3    7.40    7.31
 -17   1  -3    7.17    8.69
 -17  -1  -3    6.48   10.04
 -17   1  -3   -0.15    8.34
 -19  -1  -3   71.20   19.31
 -19   1  -3   57.56   17.99
 -20   2   3   69.52   15.23
 -20   2   3   74.51   15.94
 -18   2   3   26.49    9.89
  18  -2  -3   12.36    7.61
 -18  -2   3    3.92    6.69
  18   2  -3   10.07    7.54
 -18   2   3   15.92    7.76
 -18  -2   3   20.85    8.14
  16   2  -3    6.99    4.99
 -16  -2   3    5.41    5.61
  16  -2  -3    5.54    5.39
 -16  -2   3    3.75    4.87
 -14  -2   3    6.82    4.12
  14  -2  -3    1.27    4.07
  14  -2  -3    5.59    5.23
  14   2  -3    1.24    3.90
 -14  -2   3    3.62    4.27
  12   2  -3   72.93   11.16
 -12  -2   3   70.41    9.85
 -12  -2   3   61.38    9.69
  12  -2  -3   47.97    9.93
  12  -2  -3   49.84    9.20
  10   2  -3  391.20   24.68
 -10  -2   3  406.81   23.56
  10  -2  -3  412.73   25.52
  10  -2  -3  417.77   24.76
 -10  -2   3  410.04   24.42
   8  -2  -3  247.55   17.02
   8  -2  -3  257.49   16.38
   8   2  -3  264.55   16.90
  -8  -2   3  300.62   16.53
  -8  -2   3  241.23   16.24
   6  -2  -3 2583.63  110.36
  -6  -2   3 2578.11  109.60
  -6  -2   3 2559.12  105.09
   6   2  -3 2533.31  103.78
   6  -2  -3 2459.20  109.17
   6   2  -3 2508.54  109.77
   4  -2  -3 1127.20   50.14
   4  -2  -3 1153.74   50.52
   4   2  -3 1150.66   47.79
   4   2  -3 1134.75   50.43
   2  -2  -3  833.58   36.29
   2  -2  -3  834.04   36.81
   2   2  -3  835.26   36.60
   0  -2   3   14.18    2.03
   0   2  -3   17.65    2.69
   0  -2  -3   10.04    2.20
   0  -2  -3    8.58    2.31
   2  -2   3    3.43    1.98
  -2  -2  -3    4.77    2.37
  -4  -2  -3   21.31    4.75
   4  -2   3   22.50    5.02
   6  -2   3   21.75    5.22
  -6  -2  -3   15.59    4.28
  -6  -2  -3   13.76    4.54
   8  -2   3  185.97   15.94
  -8  -2  -3  208.86   15.16
  -8  -2  -3  204.34   15.70
 -10  -2  -3  329.40   24.07
 -10  -2  -3  394.52   24.33
 -12   2  -3  254.10   20.84
 -12  -2  -3  232.39   20.62
 -12  -2  -3  245.44   20.19
 -12   2  -3  253.89   21.49
 -14   2  -3  103.41   16.12
 -14  -2  -3   86.37   15.56
 -14   2  -3   82.59   15.37
 -16   2  -3   29.41   11.22
 -16  -2  -3   39.84   12.38
 -16   2  -3   26.83   10.22
 -18   2  -3   13.14   12.26
 -18   2  -3   11.59   10.98
 -18  -2  -3    4.63   10.21
 -21   3   3   -3.57    6.73
 -21  -3   3   -6.67    5.39
 -21   3   3    2.66    6.79
 -19   3   3   -0.73    7.11
 -19  -3   3   -0.08    6.10
 -19   3   3   -0.69    5.58
 -17  -3   3   33.51    9.36
 -17  -3   3   62.34   12.13
  17   3  -3   30.52    9.18
  17  -3  -3   35.62   10.23
  15   3  -3   60.87   12.12
  15  -3  -3   70.61   13.03
 -15  -3   3   64.50   11.34
 -15  -3   3   65.22   10.99
  15  -3  -3   53.06   11.20
  13   3  -3   26.98    7.48
 -13  -3   3   37.15    7.84
 -13  -3   3   32.01    7.37
  13  -3  -3   38.16    8.35
  13  -3  -3   31.42    7.73
  11  -3  -3   11.65    6.14
 -11  -3   3    7.07    4.04
 -11  -3   3   18.00    4.81
  11   3  -3   11.31    4.63
  11  -3  -3   10.06    4.30
  -9  -3   3  156.89   11.99
   9  -3  -3  178.91   13.04
   9  -3  -3  178.09   13.88
   9   3  -3  162.66   13.21
  -9  -3   3  173.08   12.99
   7   3  -3  254.24   13.20
   7   3  -3  276.70   16.29
   7  -3  -3  253.72   16.22
   7  -3  -3  240.91   15.23
  -7  -3   3  256.76   14.81
  -7  -3   3  257.42   15.56
   5   3  -3  134.01    7.40
   5   3  -3  121.78    8.60
  -5  -3   3  126.86    8.40
   5  -3  -3  112.73    8.63
   5  -3  -3  118.21    8.23
   3  -3  -3  165.63    9.30
  -3  -3   3  165.39    8.48
   3   3  -3  162.88    9.09
   3   3  -3  154.66    8.84
   3  -3  -3  150.55    8.87
   1  -3  -3  517.55   23.66
   1   3  -3  515.28   23.25
   1  -3  -3  508.41   23.81
  -3  -3  -3  214.20   12.89
   3  -3   3  202.95   12.89
   5  -3   3    1.74    2.82
  -5  -3  -3    2.06    2.73
  -7  -3  -3    8.50    4.15
   7  -3   3   19.17    5.74
  -9  -3  -3   71.83   11.23
   9  -3   3   91.93   12.46
 -11  -3  -3  215.46   20.20
  11  -3   3  203.53   20.55
 -13   3  -3   30.64    9.00
 -13   3  -3   29.25    8.99
 -13  -3  -3   25.62    9.21
 -15  -3  -3    0.85    6.87
 -15   3  -3    0.44    7.22
 -15   3  -3   -0.81    6.72
 -17   3  -3    6.36   10.97
 -17   3  -3   -5.66    9.85
 -17  -3  -3    3.54    8.67
 -19   3  -3   27.79   13.64
 -19  -3  -3   36.80   15.00
 -19   3  -3   13.29   13.08
 -20  -4   3    0.77    6.20
 -20   4   3    0.95    7.22
 -20   4   3   18.04    9.77
  18  -4  -3   47.71   12.58
 -18  -4   3   65.03   13.37
  16   4  -3   57.22   12.16
  16  -4  -3   71.15   13.33
  16  -4  -3   63.34   12.83
 -16  -4   3   44.76   10.52
 -14  -4   3   59.73   10.36
  14  -4  -3   43.36   10.22
 -14  -4   3   38.95    8.22
  14  -4  -3   26.87    7.79
  14   4  -3   48.05   10.25
 -12  -4   3  203.72   15.57
  12  -4  -3  206.52   17.75
  12  -4  -3  203.47   16.66
  12   4  -3  232.25   18.13
 -12  -4   3  186.90   15.99
  10  -4  -3   40.71    7.70
 -10  -4   3   44.44    7.09
 -10  -4   3   44.58    7.71
  10   4  -3   38.69    7.90
  10  -4  -3   46.66    7.77
  -8  -4   3   34.38    6.01
   8  -4  -3   33.59    6.34
   8   4  -3   43.35    7.04
   8  -4  -3   41.84    6.26
   8   4  -3   42.60    4.78
   6  -4  -3   63.22    6.18
   6   4  -3   57.16    5.24
   6  -4  -3   47.95    6.69
  -6  -4   3   60.47    6.49
   6   4  -3   57.63    6.57
   4   4  -3   63.20    5.07
   4  -4  -3   61.39    5.03
   4  -4  -3   69.39    6.00
   4   4  -3   61.55    5.27
   2   4  -3  297.71   15.00
   2   4  -3  299.74   14.35
   2  -4  -3  257.48   14.47
   2  -4  -3  310.62   15.21
  -2  -4   3  316.70   14.13
   0   4  -3 1209.73   53.58
   0  -4   3 1312.60   54.09
   0  -4  -3 1230.80   54.71
   2  -4   3  167.36   10.53
  -2  -4  -3  168.95   10.70
  -4  -4  -3  483.02   25.59
   4  -4   3  499.02   26.25
  -6  -4  -3  354.25   21.37
   6  -4   3  351.18   21.89
   8  -4   3  376.30   24.16
  -8  -4  -3  335.36   22.74
  10  -4   3   53.49   10.24
 -10  -4  -3   55.21   10.27
  12  -4   3  137.99   17.98
 -12  -4  -3  144.78   17.51
 -14  -4  -3  255.47   25.16
 -14   4  -3  255.72   25.84
 -14   4  -3  271.61   25.15
 -16   4  -3    9.57    9.78
 -16  -4  -3    8.79    9.21
 -16   4  -3   18.95   11.18
 -18   4  -3   20.10   12.41
 -18  -4  -3    8.66   11.22
 -18   4  -3   39.20   14.93
 -21   5   3    1.15    6.18
 -21   5   3    4.80    7.76
 -21  -5   3    3.82    6.07
 -19  -5   3   -6.13    5.75
 -17  -5   3   11.57    6.68
  17   5  -3   -2.10    5.83
  17  -5  -3    7.68    6.03
  17  -5  -3   -9.69    5.10
  15  -5  -3   74.28   13.29
  15  -5  -3   99.13   15.50
 -15  -5   3   97.93   14.01
  15   5  -3   97.57   15.67
  13  -5  -3    9.30    5.43
  13  -5  -3   12.03    4.74
 -13  -5   3    4.91    3.84
  13   5  -3    3.14    4.56
  11  -5  -3   17.42    5.85
  11  -5  -3   29.74    6.54
  11   5  -3   31.07    7.36
 -11  -5   3   13.03    5.25
   9   5  -3   22.76    5.69
  -9  -5   3   23.03    5.12
   9  -5  -3   20.72    5.49
   9  -5  -3   19.65    4.92
   7   5  -3   85.71    8.86
   7   5  -3   80.93    6.72
  -7  -5   3   77.28    8.18
   7  -5  -3   84.61    8.00
   7  -5  -3   83.14    9.08
   5   5  -3   37.90    5.01
   5  -5  -3   26.61    4.96
  -5  -5   3   33.10    4.54
   3   5  -3  118.54    7.27
   3   5  -3  113.30    7.57
   3  -5  -3  105.52    7.91
   1   5  -3 1876.10   76.92
   1   5  -3 1765.95   76.51
  -1  -5   3 1790.90   77.49
   1  -5  -3 1834.05   78.66
  -1   5  -3   59.56    4.54
  -1  -5  -3   56.49    5.79
  -1   5  -3   47.50    5.48
  -3  -5  -3  247.39   14.46
   3  -5   3  212.49   13.89
   5  -5   3  367.91   22.02
  -5  -5  -3  378.55   21.63
  -7  -5  -3  112.26   11.98
   7  -5   3  115.65   12.56
  -9  -5  -3   20.35    7.00
   9  -5   3   44.87    8.89
 -11  -5  -3    4.89    5.77
  11  -5   3   26.09    7.82
 -13  -5  -3   -2.43    6.21
  13  -5   3   -3.02    4.02
 -15  -5  -3    6.72    8.83
 -15   5  -3    4.15    8.14
 -15   5  -3   14.38    8.43
 -17  -5  -3   65.48   14.82
 -17   5  -3   59.13   15.47
 -17   5  -3   44.64   14.83
 -19   5  -3   25.13   15.74
 -19  -5  -3   10.14   12.75
 -19   5  -3   26.00   15.57
 -20  -6   3   -6.60    4.85
  18  -6  -3   16.94    8.03
 -18  -6   3   16.86    7.68
  18  -6  -3   12.58    8.60
  16  -6  -3   44.42   11.53
 -16  -6   3   37.71    9.13
  16   6  -3   68.85   13.72
  16  -6  -3   41.84   10.72
  14  -6  -3   12.59    6.07
  14  -6  -3    8.87    4.88
 -14  -6   3   24.14    7.26
  14   6  -3   12.70    6.46
  12  -6  -3   86.12   11.92
  12   6  -3  112.25   13.76
 -12  -6   3   89.38   12.30
  12  -6  -3  105.60   13.75
 -10  -6   3    9.71    4.46
  10   6  -3   11.89    4.65
  10  -6  -3   21.01    5.46
  10  -6  -3   10.68    4.76
   8  -6  -3  135.76   10.25
   8   6  -3  117.80   10.58
   8  -6  -3  110.93   11.52
  -8  -6   3  130.71   10.52
   8   6  -3  126.21    9.40
   4   6  -3  418.35   20.86
  -4  -6   3  385.20   20.46
   4  -6  -3  431.94   21.91
   4  -6  -3  441.09   20.34
   4   6  -3  415.63   20.79
   2  -6  -3   27.88    3.49
   2   6  -3   38.77    3.49
   2  -6  -3   25.93    4.41
   2   6  -3   34.43    4.54
   0   6  -3  245.10   14.44
   0   6  -3  269.51   12.88
   0  -6  -3  289.43   15.10
   2  -6   3  410.79   21.73
  -2   6  -3  433.49   21.42
  -2  -6  -3  414.25   21.97
  -4  -6  -3    9.33    3.92
  -4   6  -3    6.82    3.02
   4  -6   3    9.42    3.63
   6  -6   3    6.85    3.39
  -6  -6  -3   -1.04    3.17
  -8  -6  -3   15.88    5.66
   8  -6   3   18.82    5.81
  10  -6   3   73.22   11.86
 -10  -6  -3   45.48    9.64
 -12  -6  -3  184.58   19.87
  12  -6   3  172.24   19.68
 -14  -6  -3   23.24    9.41
  14  -6   3   23.43    8.79
 -16   6  -3   -0.48    8.26
 -16   6  -3   20.43    9.97
 -16  -6  -3    2.97    7.83
 -18   6  -3   -4.82   11.75
 -18   6  -3   -4.28   11.69
 -18  -6  -3    5.52    9.92
 -21  -7   3   -1.93    4.69
 -19  -7   3   27.97    8.98
  19  -7  -3   24.28   10.07
 -17  -7   3    2.88    5.29
  17  -7  -3   -2.92    5.28
  17  -7  -3    4.79    6.69
  15  -7  -3   38.83   10.18
  15   7  -3   39.57   10.77
  15  -7  -3   42.34   10.40
 -15  -7   3   36.53    8.85
  13  -7  -3   62.48   11.34
  13  -7  -3   47.23    8.89
 -13  -7   3   61.78   10.43
  13   7  -3   41.87    9.77
 -11  -7   3  148.86   13.23
  11   7  -3  177.02   16.28
  11  -7  -3  133.47   15.05
  11  -7  -3  145.59   12.91
   9  -7  -3  728.41   38.23
  -9  -7   3  714.98   36.88
   9  -7  -3  682.14   35.99
   9   7  -3  707.17   37.72
   9   7  -3  711.62   34.51
   5  -7  -3 2779.47  118.73
   5  -7  -3 2646.12  115.91
   5   7  -3 2707.74  114.12
  -5  -7   3 2752.95  117.12
   5   7  -3 2745.26  117.38
   3  -7  -3  736.15   33.36
   3  -7  -3  701.40   30.86
   3   7  -3  731.77   31.33
   3   7  -3  687.64   31.90
  -3  -7   3  570.18   31.26
   1  -7  -3    4.60    2.11
   1   7  -3    1.91    2.16
   1   7  -3    4.92    1.44
  -1  -7   3   -1.25    0.93
   1  -7  -3    2.24    2.53
  -1   7  -3   40.67    3.56
   1  -7   3   43.04    5.07
  -1   7  -3   47.11    5.71
  -1  -7  -3   38.33    5.73
  -3  -7  -3    0.02    2.57
  -3   7  -3    3.67    2.39
   3  -7   3    2.50    2.21
  -5  -7  -3    0.87    2.80
   5  -7   3    2.74    2.68
  -5   7  -3    1.94    2.44
   7  -7   3  180.15   14.97
  -7  -7  -3  184.39   14.95
  -7   7  -3  189.52   12.62
  -9  -7  -3  271.55   20.06
  -9   7  -3  274.99   16.40
   9  -7   3  238.47   19.80
 -11  -7  -3  252.43   21.12
  11  -7   3  259.84   21.53
  13  -7   3  162.54   19.86
 -13  -7  -3  183.59   20.41
  15  -7   3   22.19    8.97
 -15  -7  -3   11.80    9.16
 -17  -7  -3   23.95   11.21
 -17   7  -3   35.81   14.64
 -17   7  -3   36.72   14.55
  20  -8  -3   -2.60    8.10
 -20  -8   3    4.82    6.22
 -18  -8   3   53.11   12.13
  18  -8  -3   20.19    9.09
  16  -8  -3   12.04    6.99
  16  -8  -3    7.66    6.70
  16   8  -3   10.31    6.85
 -16  -8   3   19.26    6.85
 -14  -8   3   26.08    6.73
  14  -8  -3   42.24    9.74
  14  -8  -3   20.68    6.76
  14   8  -3   17.49    7.56
  12  -8  -3   18.05    6.01
  12   8  -3   21.95    6.81
 -12  -8   3   21.80    6.06
  12  -8  -3   24.57    6.98
  10  -8  -3   50.13    7.73
  10  -8  -3   46.37    8.76
 -10  -8   3   42.04    7.67
  10   8  -3   38.55    8.00
   8   8  -3   59.89    8.44
   8  -8  -3   38.03    6.10
  -8  -8   3   59.01    7.83
   8  -8  -3   41.60    7.92
   6  -8  -3    1.27    2.58
   6   8  -3    0.31    2.10
   6  -8  -3    0.70    1.38
   6   8  -3   -2.59    1.55
  -6  -8   3   -1.23    2.03
   4  -8  -3    8.24    3.49
   4   8  -3    6.41    2.43
   4  -8  -3    6.90    2.09
  -4  -8   3    7.46    2.66
   4   8  -3    9.10    2.95
  -2  -8   3   13.75    3.22
   2   8  -3   20.17    3.89
   2  -8  -3   20.48    3.13
   2   8  -3   28.24    3.03
   2  -8  -3   14.69    3.94
   0  -8  -3    2.15    2.59
   0  -8   3   -0.33    1.69
   0  -8  -3   -0.98    1.77
   0   8  -3    3.39    1.19
   0   8  -3    2.58    2.12
  -2   8  -3   28.98    5.06
  -2  -8  -3   25.21    5.18
  -2   8  -3   28.23    3.27
   2  -8   3   22.26    4.61
  -4   8  -3   48.39    6.28
  -4  -8  -3   47.73    7.16
   4  -8   3   26.85    5.54
  -6   8  -3   62.58    7.19
   6  -8   3   86.75   10.32
  -6  -8  -3   51.90    8.59
   8  -8   3   10.73    4.70
  -8  -8  -3   10.40    5.23
  -8   8  -3   12.09    3.98
 -10  -8  -3   -1.54    4.73
  10  -8   3    4.04    4.06
 -12  -8  -3   11.34    7.07
  12  -8   3    5.66    4.80
  14  -8   3    4.09    6.13
 -14  -8  -3    1.76    6.69
 -16  -8  -3    0.30    8.49
  16  -8   3   10.63    6.89
 -18  -8  -3   -5.72   10.93
 -18   8  -3    1.43   13.29
 -18   8  -3   -1.29   12.66
  21  -9  -3   -2.02   11.01
 -21  -9   3   -3.98    5.39
 -19  -9   3  -12.39    4.73
  19  -9  -3    0.50    7.14
  17  -9  -3   -7.52    4.68
 -17  -9   3    7.89    5.86
  17  -9  -3    1.41    5.57
 -15  -9   3   20.18    7.11
  15   9  -3    8.11    6.22
  15  -9  -3   12.18    6.13
  15  -9  -3   12.28    5.76
  13  -9  -3    4.62    3.69
 -13  -9   3    4.77    4.31
  13  -9  -3    0.87    4.35
  13   9  -3    6.90    5.14
  11  -9  -3    2.79    2.56
  11   9  -3    9.30    5.07
 -11  -9   3   14.69    4.76
  11  -9  -3   17.33    6.18
  -9  -9   3  180.68   14.30
   9  -9  -3  184.43   15.63
   9   9  -3  204.94   15.74
   9  -9  -3  218.45   14.38
   7  -9  -3  380.41   21.06
  -7  -9   3  409.87   22.48
  -7   9   3  399.95   20.42
   7   9  -3  399.74   23.01
   7  -9  -3  368.41   23.43
   7   9  -3  411.33   22.41
   5   9  -3  181.29   12.09
  -5  -9   3  181.69   12.10
   5  -9  -3  183.23   10.74
   5   9  -3  200.00   12.93
   5  -9  -3  178.73   13.30
   3  -9  -3   42.34    4.04
   3   9  -3   44.71    4.60
   3  -9  -3   40.92    6.22
   3   9  -3   45.38    6.23
  -3  -9   3   34.21    5.02
   1  -9  -3  316.60   15.64
   1   9  -3  292.15   14.02
   1   9  -3  273.61   16.78
  -1  -9   3  299.50   16.70
   1  -9  -3  296.88   17.60
  -1   9  -3   29.30    5.23
   1  -9   3   24.98    4.64
  -1   9  -3   26.80    2.60
  -1  -9  -3   25.86    5.31
  -3  -9  -3   30.66    6.15
   3  -9   3   50.01    6.87
  -3   9  -3   46.51    6.33
  -5   9  -3    3.34    2.82
  -5  -9  -3    9.49    4.50
   5  -9   3   -2.23    2.21
   7  -9   3  101.46   12.18
  -7   9  -3  107.23    9.38
  -7  -9  -3   75.95   11.00
  -9   9  -3   31.66    5.77
  -9  -9  -3   25.38    7.70
   9  -9   3   26.89    7.17
 -11  -9  -3    6.13    5.83
  11  -9   3    3.76    4.25
  13  -9   3   29.45    8.59
 -13  -9  -3   25.98    8.75
 -15  -9  -3   -4.52    6.24
  15  -9   3   11.61    6.82
  17  -9   3    5.59    6.89
 -17  -9  -3   -1.19    9.43
 -20 -10   3   39.05   10.98
  20 -10  -3   27.24   11.54
  18 -10  -3   24.35   10.03
 -18 -10   3   48.01   11.92
 -16 -10   3   74.03   12.96
  16 -10  -3   55.35   13.12
  16 -10  -3   66.59   12.69
  14 -10  -3   72.33   11.83
  14 -10  -3   54.45   11.69
 -14 -10   3   79.75   12.93
  14  10  -3   78.42   13.86
  12 -10  -3  110.05   14.72
 -12 -10   3  100.26   13.19
  12  10  -3  122.21   14.95
  10  10  -3  130.14   13.93
  10 -10  -3  108.40   13.67
  10 -10  -3  120.28   11.56
 -10 -10   3  125.53   12.93
  -8 -10   3  110.54   10.81
   8  10  -3   91.74   10.33
   8  10  -3  100.89   11.08
   8 -10  -3   89.53   11.72
  -8  10   3  113.86    8.71
   8 -10  -3  104.38    8.86
   6 -10  -3   11.84    4.74
   6  10  -3   18.01    4.64
   6  10  -3   21.79    4.92
  -6 -10   3   20.49    4.59
  -6  10   3   10.67    3.74
   6 -10  -3   17.32    3.36
  -4 -10   3   45.49    6.21
   4 -10  -3   49.32    4.64
   4 -10  -3   61.40    7.93
   4  10  -3   57.87    7.28
   4  10  -3   47.72    5.62
   2 -10  -3  173.11    9.76
  -2 -10   3  187.68   11.89
   2 -10  -3  166.57   12.30
   2  10  -3  128.96   10.99
   2  10  -3  178.26    9.47
   0 -10   3    9.12    3.04
   0 -10  -3    7.97    2.77
   0  10  -3    6.86    3.23
   0  10  -3    9.18    1.48
   0 -10  -3   12.83    4.06
  -2  10  -3  303.41   17.54
  -2  10  -3  298.38   14.04
   2 -10   3  269.52   17.43
  -2 -10  -3  297.45   18.25
  -4  10  -3  471.92   24.69
  -4 -10  -3  476.79   26.76
   4 -10   3  457.45   26.54
  -6 -10  -3  259.05   18.21
  -6  10  -3  246.33   15.71
   6 -10   3  267.31   18.55
  -8 -10  -3   20.59    6.59
   8 -10   3   31.85    7.62
  -8  10  -3   19.52    5.13
  10 -10   3   -6.99    3.72
 -10 -10  -3    3.71    5.51
  12 -10   3    1.43    4.87
 -12 -10  -3    0.07    5.32
 -14 -10  -3    6.61    7.90
  14 -10   3   14.33    7.32
 -16 -10  -3   17.86   10.32
  16 -10   3    9.56    7.94
 -18 -10  -3   29.83   13.09
  18 -10   3   -0.19    6.14
 -19 -11   3   11.04    8.01
  19 -11  -3   20.37    9.48
  17 -11  -3   -3.57    5.40
 -17 -11   3    1.45    5.36
  15 -11  -3   58.79   11.70
  15 -11  -3   75.50   14.53
 -15 -11   3   58.97   11.54
 -13 -11   3    8.05    4.52
  13 -11  -3    1.37    3.13
  13 -11  -3    6.33    5.23
  13  11  -3   -1.88    4.27
 -11 -11   3   31.60    7.16
  11 -11  -3   38.48    7.21
  11  11  -3   28.27    7.55
  11 -11  -3   47.93    9.58
  -9  11   3  269.76   15.77
   9 -11  -3  266.44   19.69
  -9 -11   3  266.10   18.24
   9  11  -3  242.46   18.34
   9 -11  -3  284.82   17.33
   9  11  -3  242.86   17.48
   7 -11  -3  430.97   26.60
  -7 -11   3  433.60   24.88
   7  11  -3  432.69   25.14
   7 -11  -3  447.97   23.14
   7  11  -3  462.50   25.68
  -7  11   3  456.80   23.71
   5 -11  -3  779.84   40.71
   5 -11  -3  784.17   36.52
  -5 -11   3  815.86   39.28
   5  11  -3  830.05   39.77
  -5  11   3  784.68   38.44
   5  11  -3  819.97   38.63
  -3 -11   3  614.57   31.16
   3  11  -3  617.35   31.46
   3 -11  -3  635.05   28.23
   3 -11  -3  611.99   32.33
   3  11  -3  601.00   28.90
   1  11  -3   29.96    5.67
   1 -11  -3   23.65    3.86
   1 -11  -3   24.81    5.53
   1  11  -3   30.60    2.94
  -1 -11   3   25.99    5.25
  -1 -11  -3   94.67    9.75
  -1  11  -3   97.18    9.41
   1 -11   3   85.68    8.90
  -3  11  -3   86.19    6.11
   3 -11   3  102.47   10.37
  -3  11  -3  107.56    9.93
  -3 -11  -3  118.88   11.40
   5 -11   3    5.89    3.37
  -5  11  -3   -0.14    2.28
  -5 -11  -3    4.43    4.39
  -7 -11  -3   26.65    7.14
  -7  11  -3   29.44    5.55
   7 -11   3   23.22    6.50
  -9  11  -3  205.51   14.57
   9 -11   3  195.22   18.99
  -9 -11  -3  227.88   18.64
 -11 -11  -3   74.16   13.33
  11 -11   3   76.27   13.07
 -13 -11  -3   17.76    9.10
  13 -11   3   31.09    9.31
  15 -11   3    9.43    8.02
 -15 -11  -3   16.55    9.77
  17 -11   3   -0.60    5.36
 -17 -11  -3    5.01   10.33
 -20 -12   3    1.81    5.33
  20 -12  -3   23.09   12.00
  18 -12  -3   13.80    8.50
 -18 -12   3    5.73    6.23
 -16 -12   3    0.75    5.87
  16 -12  -3    4.57    6.18
  14 -12  -3   18.22    7.92
  14  12  -3   37.55    9.95
 -14 -12   3   12.56    6.57
  12 -12  -3   81.18   13.06
 -12 -12   3   47.72    9.65
  12  12  -3   47.10   10.09
  12 -12  -3   58.18    9.29
  10 -12  -3   37.43    6.36
  10 -12  -3   56.30   10.02
 -10 -12   3   43.74    8.22
  10  12  -3   56.89    9.63
   8  12  -3  244.66   17.46
  -8 -12   3  269.14   17.65
   8  12  -3  278.24   18.35
   8 -12  -3  235.02   18.53
   8 -12  -3  245.96   15.48
  -8  12   3  237.92   15.58
  -6  12   3   77.95    8.92
   6  12  -3   86.99   10.27
   6 -12  -3   85.85    6.65
   6 -12  -3   98.05   11.31
   6  12  -3   84.44    8.94
  -6 -12   3   79.35    9.34
  -4  12   3  150.24   11.98
   4 -12  -3  162.43    9.05
  -4 -12   3  136.19   10.93
   4  12  -3  168.31   10.65
   4  12  -3  134.90   11.62
   4 -12  -3  143.36   12.62
   2 -12  -3  653.54   34.36
   2  12  -3  606.21   33.37
   2 -12  -3  711.77   30.42
  -2 -12   3  644.59   33.14
   2  12  -3  654.28   29.88
   0  12  -3   73.77    8.94
   0 -12  -3   73.72    9.24
   0 -12  -3   74.75    7.00
   0 -12   3   87.69    8.92
   2 -12   3   41.83    6.82
  -2  12  -3   45.92    7.06
  -2 -12  -3   42.70    7.32
  -4  12  -3   12.62    4.13
  -4 -12  -3   14.32    5.54
   4 -12   3   13.25    4.68
   6 -12   3   55.85    9.11
  -6 -12  -3   35.94    8.12
  -6  12  -3   45.11    7.53
  -8  12  -3  127.89   11.23
   8 -12   3   73.89   11.84
  -8 -12  -3  116.21   14.07
  10 -12   3  196.91   19.84
 -10 -12  -3  192.48   19.54
  12 -12   3   44.46   10.37
 -12 -12  -3   34.00    9.91
  14 -12   3   56.70   12.85
 -14 -12  -3   42.21   12.01
  16 -12   3   21.60    9.54
 -16 -12  -3   10.64    9.35
 -19 -13   3   11.68    7.62
  19 -13  -3    2.47    9.00
  17 -13  -3   14.03    7.88
 -17 -13   3   -3.58    5.24
  15 -13  -3    9.83    6.72
 -15 -13   3   -0.28    4.64
  13  13  -3    7.22    5.93
 -13 -13   3    9.99    5.88
  13 -13  -3    6.26    5.59
 -11 -13   3    3.16    3.59
  11  13  -3    1.07    3.80
  11 -13  -3    1.50    4.27
  -9 -13   3   34.47    7.13
   9 -13  -3   30.90    7.56
   9  13  -3   37.90    7.28
   9  13  -3   22.85    6.22
  -9  13   3   26.04    5.74
  -7 -13   3   76.35    9.65
   7  13  -3   70.85    9.11
   7 -13  -3   69.28   10.87
  -7  13   3   63.21    8.42
   7 -13  -3   74.82    7.00
   7  13  -3   70.99   10.01
   5 -13  -3  109.28   12.05
   5 -13  -3  112.42    7.32
  -5 -13   3  104.27   10.41
   5  13  -3   97.23   11.31
  -5  13   3  122.57   11.33
   5  13  -3   88.33    8.83
   3  13  -3   29.57    4.31
   3 -13  -3   35.77    3.76
   3  13  -3   19.88    5.26
  -3 -13   3   26.15    5.11
   3 -13  -3   26.93    6.47
   1  13  -3    4.23    3.10
  -1 -13   3   10.79    3.63
   1 -13  -3    9.31    2.87
   1 -13  -3   11.08    4.50
  -1 -13  -3   20.45    5.75
  -1  13  -3   23.39    5.51
   1 -13   3   24.76    5.11
   3 -13   3   90.57   10.98
  -3 -13  -3  137.08   13.27
  -3  13  -3  131.52   11.08
   5 -13   3   48.68    9.02
  -5  13  -3   82.81    9.46
  -5 -13  -3   67.56   10.45
   7 -13   3   66.65   11.10
  -7  13  -3   69.19    9.09
  -7 -13  -3   56.19   10.33
  -9 -13  -3   -6.24    4.78
   9 -13   3    2.63    4.21
  11 -13   3  127.72   17.06
 -11 -13  -3  119.34   16.58
 -13 -13  -3   21.01    9.14
  13 -13   3   14.25    6.98
  15 -13   3    3.33    6.48
 -15 -13  -3   16.73    9.15
 -17 -13  -3   -1.74    5.23
  17 -13   3   -0.97    5.43
 -18 -14   3  -10.58    5.33
  18 -14  -3    3.83    7.86
  16 -14  -3   38.64   11.53
 -16 -14   3   51.49   11.32
  14 -14  -3   42.37   10.60
 -14 -14   3   59.37   11.14
  12 -14  -3   21.95    7.46
 -12 -14   3   20.48    6.58
  10  14  -3   17.31    6.03
 -10 -14   3    7.96    4.63
  10  14  -3   15.79    5.44
  10 -14  -3   13.98    5.95
   8  14  -3   55.95    9.42
   8  14  -3   37.50    7.29
  -8  14   3   35.16    6.67
  -8 -14   3   29.12    6.18
   8 -14  -3   66.96   10.44
  -6 -14   3   -0.34    2.51
   6  14  -3    9.23    3.44
   6 -14  -3    2.32    4.09
  -6  14   3    5.08    3.48
   6  14  -3   -0.28    2.62
   4 -14  -3   18.54    6.28
   4  14  -3   16.32    4.81
  -4 -14   3   22.67    5.56
  -4  14   3   14.77    5.13
   4 -14  -3   21.62    3.05
   4  14  -3   19.97    4.32
   2 -14  -3    5.59    2.46
  -2 -14   3   11.46    3.88
   2  14  -3    6.84    3.68
   2 -14  -3   14.98    5.08
   2  14  -3   11.02    2.77
   0 -14   3  111.89   11.61
   0  14  -3  167.38   12.99
   0 -14  -3  135.03    9.60
   0 -14  -3  139.55   13.56
  -2 -14  -3  119.25   12.45
  -2  14  -3   93.17   11.09
   2 -14   3  134.76   12.58
  -4 -14  -3  137.77   14.30
   4 -14   3  140.62   14.00
  -4  14  -3  149.95   12.38
  -6  14  -3   24.39    5.84
  -6 -14  -3   14.95    5.81
   6 -14   3   26.39    6.68
   8 -14   3   75.57   12.37
  -8  14  -3  100.63   10.88
  -8 -14  -3   93.26   13.48
  10 -14   3    0.32    4.29
 -10 -14  -3   12.88    6.03
 -12 -14  -3    3.44    5.69
  12 -14   3    1.51    4.56
  14 -14   3   13.36    7.44
 -14 -14  -3   17.61    7.50
 -16 -14  -3   10.08    6.25
  16 -14   3    2.78    6.28
 -19 -15   3    8.07    6.75
  19 -15  -3    1.00   10.31
 -17 -15   3   37.11    9.93
  17 -15  -3   37.92   11.56
  15 -15  -3  143.68   20.10
 -15 -15   3   81.28   13.94
  13 -15  -3  115.57   17.03
 -13 -15   3  107.26   15.18
 -11 -15   3    8.24    4.98
  11 -15  -3    8.28    4.18
   9 -15  -3   22.53    6.86
   9  15  -3   31.56    7.07
  -9 -15   3   25.32    6.42
   9  15  -3   23.01    6.10
  -9  15   3   22.91    5.50
   7 -15  -3   74.48   11.39
   7  15  -3   47.24    8.01
  -7 -15   3   56.69    9.04
  -7  15   3   69.47    9.32
   7  15  -3   48.49    9.20
   5 -15  -3   20.52    6.59
   5  15  -3   44.55    8.15
  -5  15   3   45.23    7.93
   5  15  -3   27.35    5.54
  -5 -15   3   31.64    6.15
   3  15  -3   46.46    8.16
  -3 -15   3   59.45    8.72
   3 -15  -3   42.20    8.44
  -1 -15   3   19.86    5.04
   1  15  -3    8.85    4.41
   1 -15  -3   10.34    3.24
   1 -15  -3   17.25    5.77
  -1  15  -3  538.52   30.15
   1 -15   3  525.51   30.11
  -1 -15  -3  544.41   27.13
  -1 -15  -3  495.85   30.18
  -3 -15  -3  364.61   24.12
  -3  15  -3  381.32   23.65
   3 -15   3  398.91   24.68
  -5  15  -3   39.40    7.45
   5 -15   3   43.36    8.50
  -5 -15  -3   26.76    7.17
   7 -15   3    5.73    4.29
  -7 -15  -3   -2.89    3.47
  -7  15  -3    0.75    3.30
   9 -15   3    1.44    4.49
  -9 -15  -3   11.11    5.38
  11 -15   3    8.35    5.96
 -11 -15  -3    8.12    5.93
 -13 -15  -3   11.92    6.57
  13 -15   3    6.69    6.93
 -15 -15  -3    5.68    5.91
  15 -15   3    3.77    7.37
 -18 -16   3    4.70    6.46
  18 -16  -3   18.83   10.99
  16 -16  -3    3.83    5.89
 -16 -16   3    5.30    6.38
  14 -16  -3    0.74    5.47
 -14 -16   3   -4.65    5.13
  12 -16  -3   61.27   12.86
 -12 -16   3   52.01   10.28
  10 -16  -3   16.87    6.75
 -10 -16   3   17.67    5.73
   8 -16  -3   10.37    5.70
  -8 -16   3   11.43    4.63
   8  16  -3   15.35    5.44
  -8  16   3    9.78    4.71
  -6 -16   3  352.89   22.37
   6 -16  -3  378.71   24.58
  -6  16   3  334.73   22.06
   6  16  -3  330.45   23.18
   4 -16  -3  297.00   20.55
   4  16  -3  226.83   18.40
  -4 -16   3  295.03   18.95
  -4  16   3  246.36   18.67
   2 -16  -3   60.04    9.76
  -2 -16   3   57.96    8.95
   2  16  -3   59.92    9.71
   0  16  -3   14.53    4.92
   0 -16   3   12.70    4.44
   0 -16  -3   15.22    5.20
  -2 -16  -3   28.37    6.93
   2 -16   3   12.92    5.31
  -2  16  -3   20.47    5.68
  -4  16  -3    9.15    4.38
  -4 -16  -3    3.36    3.21
   4 -16   3    3.68    3.79
  -6 -16  -3   48.43    9.11
   6 -16   3   50.58    9.87
  -6  16  -3   43.47    8.26
   8 -16   3   69.62   12.48
  -8 -16  -3   48.97   10.01
  -8  16  -3   46.99    8.66
  10 -16   3   23.50    7.76
 -10 -16  -3    9.58    5.94
  12 -16   3   44.91   11.30
 -12 -16  -3   33.64    9.57
 -14 -16  -3   39.18   10.64
  14 -16   3   25.18    9.14
 -16 -16  -3   -4.21    4.43
  16 -16   3    0.75    5.58
 -17 -17   3    0.89    6.70
  17 -17  -3    4.00    7.72
 -15 -17   3   12.71    7.09
  15 -17  -3    2.72    6.24
 -13 -17   3   -1.64    4.43
  13 -17  -3   -2.67    5.26
 -11 -17   3   27.60    7.86
  11 -17  -3   10.78    6.71
   9  17  -3    1.00    3.58
  -9 -17   3    4.04    4.45
   9 -17  -3    1.10    3.43
   7 -17  -3    6.11    4.51
  -7  17   3    1.89    4.17
   7  17  -3    3.18    3.74
  -7 -17   3    2.26    3.62
   5  17  -3   -0.41    3.20
  -5 -17   3    5.73    3.28
  -5  17   3    1.51    3.78
   5 -17  -3   -0.10    2.92
   3  17  -3   38.85    8.19
  -3 -17   3   34.86    7.14
   3 -17  -3   33.74    6.40
   1  17  -3   16.23    6.00
  -1 -17   3   18.43    5.23
   1 -17  -3   18.34    4.92
  -1 -17  -3   10.17    4.10
  -1  17  -3    1.69    3.49
   1 -17   3    0.40    3.19
   3 -17   3   13.24    5.24
  -3  17  -3   22.65    6.16
  -3 -17  -3    7.72    4.31
   5 -17   3   52.09    9.97
  -5  17  -3   49.09    8.85
  -5 -17  -3   60.57   10.40
  -7 -17  -3    0.02    3.56
  -7  17  -3    5.31    4.98
   7 -17   3    5.86    4.41
   9 -17   3    6.16    5.42
  -9 -17  -3    9.28    4.61
  11 -17   3   22.13    8.71
 -11 -17  -3   11.20    7.12
  13 -17   3   -6.85    6.00
 -13 -17  -3    8.41    6.58
 -15 -17  -3   -2.71    5.34
  15 -17   3    9.03    6.85
  18 -18  -3   -0.75    9.18
 -18 -18   3   -8.45    5.85
  16 -18  -3   -2.94    7.14
 -16 -18   3    4.74    6.52
 -14 -18   3   -8.60    5.46
  14 -18  -3   13.80    8.43
  12 -18  -3    4.81    6.61
 -12 -18   3   14.66    6.17
 -10 -18   3   39.48    9.35
  10 -18  -3   29.77    8.67
   8  18  -3   18.11    6.54
  -8  18   3   28.20    7.29
   8 -18  -3   15.47    6.07
  -8 -18   3   24.00    6.43
   6 -18  -3   40.94    9.08
   6  18  -3   63.44   10.99
  -6  18   3   52.70    9.43
  -6 -18   3   51.97    9.12
   4  18  -3   22.80    6.81
   4 -18  -3   28.32    6.93
  -4 -18   3   45.54    8.57
   2  18  -3  190.86   18.25
  -2 -18   3  197.62   16.03
   2 -18  -3  220.70   17.14
   0 -18  -3    6.92    3.58
   0 -18   3   -0.89    3.23
   0  18  -3    2.58    3.72
   2 -18   3   27.80    7.11
  -2 -18  -3   37.94    8.20
  -2  18  -3   41.08    8.63
  -4 -18  -3    2.35    3.34
  -4  18  -3   10.13    5.08
   4 -18   3   -3.13    3.16
  -6  18  -3    8.16    4.68
  -6 -18  -3    7.04    4.59
   6 -18   3   -1.97    3.95
   8 -18   3   83.74   13.94
  -8 -18  -3   51.29   10.53
  -8  18  -3   61.60   10.72
  10 -18   3   11.10    6.79
 -10 -18  -3   10.95    6.63
  12 -18   3   13.70    8.16
 -12 -18  -3    4.54    5.94
 -14 -18  -3   12.58    7.22
  14 -18   3   34.52   11.84
  17 -19  -3    4.63    8.54
 -17 -19   3   30.20    9.75
 -15 -19   3   29.11    8.85
  15 -19  -3   18.71    9.60
  13 -19  -3  105.84   18.06
 -13 -19   3   79.44   14.17
 -11 -19   3   45.03    9.26
  11 -19  -3   54.72   12.26
   9 -19  -3    4.68    4.44
   9  19  -3   -1.58    3.74
  -9 -19   3    3.32    4.20
   7  19  -3    9.28    5.68
   7 -19  -3   17.01    6.63
  -7 -19   3   19.05    6.10
  -7  19   3   27.83    7.59
   5  19  -3   62.16   11.53
   5 -19  -3   74.97   11.97
  -5 -19   3   80.48   11.22
  -3 -19   3    6.89    4.31
   3  19  -3   10.03    4.97
   3 -19  -3   10.08    4.83
   1 -19  -3   74.81   11.63
   1  19  -3   98.22   13.76
  -1 -19   3  105.61   12.62
  -1 -19  -3  144.00   15.48
  -1  19  -3  127.87   15.12
   1 -19   3  139.72   15.17
   3 -19   3  182.02   17.79
  -3 -19  -3  177.35   17.76
  -3  19  -3  166.25   16.88
  -5 -19  -3   45.13    9.53
   5 -19   3   84.26   13.25
  -5  19  -3   87.07   12.33
  -7 -19  -3   33.19    8.45
   7 -19   3   28.10    8.13
  -7  19  -3   32.63    8.17
  -9 -19  -3    5.42    6.06
   9 -19   3   -2.62    4.70
  11 -19   3    8.99    7.68
 -11 -19  -3   -0.77    7.01
 -13 -19  -3   -6.97    4.99
  13 -19   3    3.48    6.34
  15 -19   3    6.68    5.84
 -15 -19  -3   -3.97    5.10
  16 -20  -3   -3.93    4.74
 -16 -20   3   12.90    8.36
 -14 -20   3    9.92    6.77
  14 -20  -3    6.89    6.56
  12 -20  -3    5.11    6.50
 -12 -20   3   17.89    7.47
 -10 -20   3    5.64    4.72
  10 -20  -3    3.02    5.68
   8 -20  -3   64.32   12.50
  -8 -20   3   78.90   12.17
   8  20  -3   70.12   12.29
   6 -20  -3    2.03    3.49
   6  20  -3    3.27    4.62
  -6 -20   3    3.18    3.47
  -4 -20   3   10.60    4.67
   4 -20  -3   24.90    8.50
   4  20  -3   14.14    6.28
   2  20  -3   16.22    6.86
   2 -20  -3    4.03    3.81
  -2 -20   3    7.19    4.27
   0  20  -3    3.19    4.63
   0 -20  -3    7.88    4.57
   0 -20   3   -1.78    3.11
   2 -20   3   19.37    6.29
  -2 -20  -3   10.36    5.55
  -2  20  -3   12.35    6.04
  -4  20  -3  128.86   15.50
  -4 -20  -3  122.25   16.23
   4 -20   3  169.65   17.86
   6 -20   3    2.05    4.31
  -6 -20  -3    3.64    3.79
  -6  20  -3   -6.52    4.34
  -8  20  -3   -3.52    5.06
  -8 -20  -3    7.03    5.95
   8 -20   3    3.14    5.62
  10 -20   3   32.63   10.39
 -10 -20  -3   22.97    8.22
 -12 -20  -3   13.96    8.31
  12 -20   3   16.86    8.22
  14 -20   3   10.66    7.53
 -14 -20  -3    3.40    5.05
  15 -21  -3    4.04    5.81
 -15 -21   3   -0.17    5.88
  13 -21  -3   17.42    7.54
 -13 -21   3    9.06    6.45
 -11 -21   3    7.64    6.10
  11 -21  -3   18.10    7.81
  -9 -21   3   27.60    7.78
   9 -21  -3   16.49    6.90
   9  21  -3   20.86    7.81
   7  21  -3   34.86    9.51
  -7 -21   3   41.64    9.21
   7 -21  -3   25.00    7.00
   5 -21  -3   29.39    8.10
  -5 -21   3   21.76    6.40
   5  21  -3   26.11    7.68
   3 -21  -3   18.45    6.59
   3  21  -3   23.94    7.73
  -3 -21   3   65.40   10.62
   1 -21  -3    1.42    3.72
  -1 -21   3    7.64    4.73
   1  21  -3    5.47    5.61
   1 -21   3   39.71    8.68
  -1 -21  -3   26.35    7.46
  -1  21  -3   33.19    8.83
  -3  21  -3    8.10    5.63
  -3 -21  -3    5.10    4.78
   3 -21   3   -1.36    3.98
  -5  21  -3   10.16    5.49
   5 -21   3    6.79    5.26
  -5 -21  -3    5.47    4.24
  -7  21  -3   17.26    7.17
  -7 -21  -3   11.98    6.00
   7 -21   3   28.15    8.61
  -9 -21  -3   38.28    9.99
   9 -21   3   36.42   10.52
 -11 -21  -3   28.34    9.49
  11 -21   3   20.19    7.70
  13 -21   3    9.09    8.40
 -13 -21  -3    0.88    5.81
 -14 -22   3    4.94    6.53
  14 -22  -3    7.44    7.48
  12 -22  -3    9.48    7.72
 -12 -22   3    5.92    5.62
  10 -22  -3    4.31    5.31
 -10 -22   3    7.56    5.79
   8 -22  -3   18.92    7.32
  -8 -22   3   36.19    8.63
   8  22  -3   39.68    9.86
  -6 -22   3   24.20    7.19
   6  22  -3   22.67    7.87
   6 -22  -3   20.32    7.02
   4 -22  -3   34.86    8.60
   4  22  -3   14.79    6.66
  -4 -22   3   33.19    7.99
   2  22  -3   12.54    6.22
   2 -22  -3   16.33    6.32
  -2 -22   3    4.49    4.56
   0  22  -3   -0.55    3.99
   0 -22  -3    1.35    3.70
   0 -22   3    1.42    3.75
  -2 -22  -3    3.04    3.68
  -2  22  -3   -3.22    4.21
   2 -22   3   -6.09    3.25
  -4  22  -3    2.39    5.39
  -4 -22  -3   -0.46    3.71
   4 -22   3    6.50    5.81
  -6  22  -3   10.65    6.38
  -6 -22  -3   19.91    7.84
   6 -22   3   14.56    6.91
   8 -22   3   19.30    8.31
  -8 -22  -3   23.81    8.58
 -10 -22  -3   45.54   11.18
  10 -22   3   32.58   10.42
  12 -22   3   41.03   11.73
 -15 -23   3    4.23    6.15
  15 -23  -3   -2.23    5.89
 -13 -23   3    9.48    6.55
  13 -23  -3    8.62    8.01
 -11 -23   3    2.01    5.97
  11 -23  -3   -6.80    4.94
   9 -23  -3    2.23    5.26
  -9 -23   3   14.40    7.07
   7 -23  -3    4.69    5.94
  -7 -23   3   -0.97    4.37
   7  23  -3    7.82    5.69
   5  23  -3    4.26    5.52
   5 -23  -3   36.68    9.03
  -5 -23   3   18.23    6.48
   3 -23  -3   -2.46    3.71
  -3 -23   3   12.33    5.41
   3  23  -3    1.41    5.24
   1 -23  -3   12.75    5.57
   1  23  -3   12.76    7.00
  -1 -23   3    9.52    5.41
  -1 -23  -3   -0.79    3.85
   1 -23   3    0.76    4.22
  -1  23  -3    4.73    6.13
  -3 -23  -3   30.15    8.23
  -3  23  -3   22.83    8.25
   3 -23   3   11.86    5.94
   5 -23   3    3.57    5.44
  -5  23  -3    4.24    6.01
  -5 -23  -3    4.78    5.39
   7 -23   3   10.80    7.64
  -7  23  -3   -2.00    6.19
  -7 -23  -3    4.50    6.31
   9 -23   3    3.93    6.31
  -9 -23  -3    6.66    6.66
 -11 -23  -3    7.49    6.39
  11 -23   3   13.98    8.55
 -14 -24   3   26.92   10.35
  14 -24  -3   -0.23    5.57
  12 -24  -3   17.98    9.04
 -12 -24   3   41.21   10.12
  10 -24  -3    1.46    6.27
 -10 -24   3   17.28    7.81
   8 -24  -3    5.09    5.60
   8  24  -3    1.92    6.05
  -8 -24   3   13.13    6.35
   6 -24  -3    4.16    5.41
  -6 -24   3   13.61    6.43
   6  24  -3    9.79    6.68
   4  24  -3    4.05    5.62
   4 -24  -3    3.70    5.06
  -4 -24   3    4.45    4.48
   2 -24  -3   -7.11    3.34
   2  24  -3    0.22    5.30
  -2 -24   3   -0.05    4.08
   0  24  -3   32.37    9.85
   0 -24   3   30.62    8.42
   0 -24  -3   38.68    9.40
  -2 -24  -3   63.18   11.81
  -2  24  -3   61.50   12.55
   2 -24   3   60.31   11.56
  -4  24  -3   12.88    7.35
   4 -24   3   14.05    6.97
  -4 -24  -3   12.80    7.33
  -6  24  -3   10.81    7.99
   6 -24   3   29.44    9.75
  -6 -24  -3   26.00    9.44
   8 -24   3    0.36    6.14
  -8 -24  -3   -1.93    5.29
  10 -24   3   -3.88    6.93
 -10 -24  -3    1.03    5.63
 -13 -25   3    3.93    6.96
  13 -25  -3   -2.92    5.58
 -11 -25   3    0.98    6.57
  11 -25  -3  -10.04    4.70
   9 -25  -3   12.32    7.54
  -9 -25   3   21.10    8.78
   7  25  -3   13.49    8.44
   7 -25  -3   13.02    7.00
  -7 -25   3   12.74    6.71
   5  25  -3   33.13   10.00
   5 -25  -3   24.31    8.25
  -5 -25   3   37.05    9.71
  -3 -25   3   39.16    9.49
   3 -25  -3   40.67   10.10
   3  25  -3   58.07   13.52
   1 -25  -3    6.48    6.20
  -1 -25   3    1.58    4.72
   1  25  -3    7.06    6.72
  -1  25  -3    3.80    6.72
   1 -25   3    2.89    4.57
  -1 -25  -3    3.67    5.55
  -3  25  -3    2.17    6.76
  -3 -25  -3    1.62    5.45
   3 -25   3    9.64    6.16
  -5 -25  -3    7.97    6.11
  -5  25  -3   22.04    9.60
   5 -25   3   13.95    7.20
  -7  25  -3   -7.69    7.18
  -7 -25  -3    9.26    7.09
   7 -25   3    3.93    6.85
   9 -25   3   17.82    8.03
  -9 -25  -3    1.27    5.96
 -11 -25  -3    5.29    5.91
 -12 -26   3    6.83    6.74
  12 -26  -3   -1.81    5.17
  10 -26  -3    2.56    5.32
 -10 -26   3    3.95    5.76
   8 -26  -3    7.70    6.49
  -8 -26   3   -2.31    5.67
  -6 -26   3    0.27    4.64
   6 -26  -3    5.80    5.44
   6  26  -3   -1.15    5.31
   4  26  -3    0.64    5.30
  -4 -26   3   -2.14    5.56
   4 -26  -3    3.19    4.96
   2  26  -3    2.43    5.68
  -2 -26   3    2.22    4.96
   2 -26  -3    6.51    5.40
   0 -26   3    3.03    6.02
   0  26  -3   19.59    9.04
   0 -26  -3    3.98    5.67
  -2  26  -3    0.57    6.40
  -2 -26  -3    3.11    5.50
   2 -26   3    7.46    5.54
  -4 -26  -3   18.02    7.45
   4 -26   3   19.96    8.60
  -4  26  -3   15.54    8.66
  -6  26  -3   -0.62    7.22
   6 -26   3   -2.42    5.59
  -6 -26  -3   -2.52    5.06
  -8 -26  -3    4.74    6.45
   8 -26   3    0.61    6.62
 -10 -26  -3    3.34    5.87
  10 -26   3   -5.78    7.21
  11 -27  -3   -0.77    5.50
 -11 -27   3   10.87    7.03
   9 -27  -3    7.12    6.61
  -9 -27   3   15.15    7.71
  -7 -27   3   27.80    8.90
   7 -27  -3   17.37    7.47
   7  27  -3   19.77    8.39
   5  27  -3   22.12    9.90
  -5 -27   3    9.34    6.75
   5 -27  -3   19.37    8.39
   3  27  -3    8.52    7.70
   3 -27  -3    0.82    4.52
  -3 -27   3    7.12    5.95
   1  27  -3   -0.43    6.94
  -1 -27   3    7.67    6.10
   1 -27  -3    0.10    4.93
   1 -27   3   -1.22    5.45
  -1  27  -3    6.79    8.55
  -1 -27  -3    4.83    6.31
  -3  27  -3   10.51    7.64
   3 -27   3    2.47    4.68
  -3 -27  -3    5.28    5.52
   5 -27   3    5.67    6.26
  -5 -27  -3    8.32    6.25
  -5  27  -3    9.10    8.26
  -7 -27  -3    0.62    4.58
   7 -27   3    8.21    6.97
 -10 -28   3   -0.05    6.38
  10 -28  -3    1.71    5.48
   8 -28  -3   -1.76    4.89
  -8 -28   3   -1.13    5.61
  -6 -28   3    1.47    6.38
   6  28  -3    3.62    5.97
   6 -28  -3   -2.69    5.57
  -4 -28   3   -5.24    4.91
   4  28  -3    9.81    6.58
   4 -28  -3   -1.54    5.04
   2 -28  -3    0.46    4.93
  -2 -28   3   -3.35    5.23
   2  28  -3    6.98    7.83
   0 -28   3   26.41    9.05
   0 -28  -3   16.01    7.86
   0  28  -3   22.24   10.68
   2 -28   3   16.95    8.85
  -2  28  -3   22.44   10.71
  -2 -28  -3   20.54    8.26
   4 -28   3   33.21    9.84
  -4  28  -3   31.04   11.54
  -4 -28  -3   33.61    9.70
  -6 -28  -3    5.41    4.95
  -6  28  -3   -2.74    8.25
   6 -28   3    3.60    7.11
   7 -29  -3    0.69    4.84
  -7 -29   3   -1.59    6.14
   5  29  -3   -3.75    5.20
  -5 -29   3    3.82    5.92
   5 -29  -3    0.34    5.20
  -3 -29   3    2.27    5.61
   3 -29  -3    4.11    5.17
   3  29  -3    5.35    7.37
   1  29  -3    8.40    8.34
  -1 -29   3    1.05    5.54
   1 -29  -3   -0.07    5.30
  -1 -29  -3    8.91    5.88
   1 -29   3    3.58    6.40
  -1  29  -3    8.66    9.22
   3 -29   3   -4.10    6.02
  -3  29  -3   18.97   10.63
  -3 -29  -3    0.98    5.43
  -5 -29  -3   -0.71    4.84
  -5  29  -3    5.65    9.04
   5 -29   3    5.02    7.70
   6 -30  -3   -4.17    5.00
  -6 -30   3    9.41    6.29
   4  30  -3    1.08    7.79
   4 -30  -3    6.21    4.55
  -4 -30   3    2.73    5.79
  -2 -30   3   19.94    7.79
   2  30  -3   22.59   11.72
   2 -30  -3   -4.58    4.06
   0 -30   3    4.21    6.47
   0 -30  -3    7.18    4.28
   0  30  -3    5.63    8.89
  -2  30  -3   -5.32    8.45
   2 -30   3    8.74    6.64
  -2 -30  -3    4.88    4.62
  -4  30  -3   16.03   11.20
   4 -30   3    3.33    7.01
  -4 -30  -3   -5.40    4.91
   3  31  -3    5.41   10.23
   1  31  -3   -2.60    9.80
  -1 -31   3   -7.77    5.05
   1 -31  -3    9.87    5.42
  -1  31  -3    3.98   10.01
 -22   0   4    4.26    5.65
 -22   0   4    6.61    5.68
  20   0  -4    9.48    7.15
 -20   0   4   14.23    7.33
 -20   0   4   14.09    7.23
 -18   0   4    0.10    5.96
  18   0  -4    2.26    5.04
 -18   0   4   -7.13    4.70
  16   0  -4   68.76   12.75
 -16   0   4   95.16   13.50
 -16   0   4   47.76   10.34
 -14   0   4   47.08    9.03
 -14   0   4   62.91   10.13
  14   0  -4   52.58   10.64
  12   0  -4  242.75   17.85
  12   0  -4  201.21   17.51
  10   0  -4  358.12   22.16
  10   0  -4  347.36   22.24
   8   0  -4   37.36    6.06
   8   0  -4   36.74    6.27
   6   0  -4   48.95    5.76
   6   0  -4   48.23    5.83
   6   0  -4   52.94    3.53
   4   0  -4 2452.69  100.79
   4   0  -4 2290.76  101.26
   2   0  -4   93.23    6.50
   0   0  -4 9798.36  411.97
   0   0  -4 9994.98  411.37
  -2   0  -4   83.85    6.32
  -2   0  -4   74.49    6.43
  -4   0  -4  364.06   20.43
  -4   0  -4  363.69   19.68
  -6   0  -4   43.91    7.49
  -6   0  -4   51.92    7.79
  -8   0  -4  297.19   20.23
  -8   0  -4  329.28   21.69
 -10   0  -4  498.31   30.66
 -10   0  -4  541.11   32.85
 -12   0  -4  385.40   27.41
 -12   0  -4  414.70   29.20
 -14   0  -4   85.75   14.83
 -14   0  -4  109.67   17.49
 -16   0  -4   14.53    9.37
 -16   0  -4   -0.40    6.62
 -18   0  -4   -2.82    9.47
 -21  -1   4    9.52    6.92
 -21  -1   4    3.36    7.13
 -21   1   4    3.69    7.71
 -21   1   4    1.45    6.17
 -19  -1   4    7.45    6.34
 -19   1   4   21.98    8.85
  19  -1  -4    9.07    7.91
  19   1  -4    5.28    6.82
 -19   1   4   13.79    7.27
 -19  -1   4   29.43    9.82
 -17  -1   4   63.79   11.73
  17  -1  -4   76.37   14.42
 -17   1   4   59.94   11.46
 -17  -1   4   43.21    9.77
 -17   1   4   66.99   12.26
  17   1  -4   47.56   11.55
  15  -1  -4   -0.32    3.54
  15   1  -4    0.50    3.96
 -15  -1   4   -3.15    3.36
 -15  -1   4    1.64    4.55
 -13  -1   4    7.55    4.21
  13  -1  -4   -0.43    4.17
  13   1  -4    4.06    3.07
  13  -1  -4    2.08    2.59
 -13  -1   4   -1.37    3.14
  11  -1  -4    5.84    2.96
  11   1  -4    8.61    3.83
  11  -1  -4    0.10    3.25
   9   1  -4   56.53    7.75
   9  -1  -4   60.53    8.55
   9   1  -4   54.53    8.15
   9  -1  -4   54.73    7.68
   7   1  -4  297.74   17.15
   7   1  -4  291.64   13.29
   7  -1  -4  274.63   16.45
   7  -1  -4  282.00   17.07
   7   1  -4  290.95   16.87
   5  -1  -4   49.54    5.18
   5   1  -4   39.46    4.72
   5  -1  -4   54.93    5.42
   5   1  -4   49.67    5.19
   3  -1  -4  224.07   12.00
   3  -1  -4  241.36   11.06
   3   1  -4  190.83   11.55
   1  -1  -4 5661.25  240.37
   1   1  -4 5801.43  241.26
   1  -1  -4 5864.36  241.44
  -1  -1  -4 2202.53   94.03
  -3  -1  -4  261.86   14.99
  -3  -1  -4  263.81   14.38
   3  -1   4  242.82   15.08
  -5  -1  -4   59.32    7.27
  -5  -1  -4   48.24    7.23
  -7  -1  -4   36.82    7.32
  -7   1  -4   17.14    4.93
  -7  -1  -4   28.25    6.10
  -7   1  -4   30.29    6.98
  -9   1  -4    4.52    4.50
  -9  -1  -4    1.62    4.19
  -9   1  -4   -0.88    3.65
  -9  -1  -4    2.15    4.11
 -11   1  -4   45.52   10.05
 -11   1  -4   39.87    9.69
 -11  -1  -4   53.61   10.89
 -11  -1  -4   58.91   10.87
 -13   1  -4    9.83    7.04
 -13   1  -4   11.10    7.33
 -13  -1  -4    1.71    6.68
 -13  -1  -4    6.84    6.66
 -15  -1  -4   20.44   10.69
 -15   1  -4   19.16    9.67
 -15   1  -4   28.30   11.29
 -17  -1  -4   38.39   12.97
 -17   1  -4   34.65   11.93
 -17   1  -4   38.45   13.53
 -22   2   4    9.37    6.09
 -22  -2   4    0.26    5.13
 -22   2   4   -1.13    5.92
 -20  -2   4    5.01    7.04
 -20   2   4   -0.28    5.95
  20  -2  -4    1.82    6.95
 -20   2   4    4.12    6.86
 -18   2   4   27.62    9.32
 -18   2   4   43.16   11.28
  18   2  -4   38.39   10.79
 -18  -2   4   42.08   10.19
  18  -2  -4   25.75    9.47
 -18  -2   4   26.73    9.01
 -16  -2   4   44.16    9.95
  16  -2  -4   48.97   10.87
  16  -2  -4   35.79    9.90
 -16  -2   4   29.82    7.93
  16   2  -4   32.71    9.53
  14   2  -4  118.75   15.63
  14  -2  -4  126.82   15.63
  14  -2  -4  118.58   15.65
 -14  -2   4  127.86   14.79
 -14  -2   4  110.64   13.50
  12  -2  -4  267.81   19.43
 -12  -2   4  253.92   17.88
  12  -2  -4  261.17   19.89
 -12  -2   4  262.89   18.78
  12   2  -4  256.95   19.35
  10  -2  -4  182.40   14.18
  10   2  -4  154.57   12.99
 -10  -2   4  135.64   11.57
 -10  -2   4  165.80   12.91
  10  -2  -4  182.49   13.54
   8   2  -4   79.28    8.68
  -8  -2   4   76.15    7.73
   8  -2  -4   70.61    8.57
   8  -2  -4   71.92    8.01
   8   2  -4   75.27    5.23
  -8  -2   4   73.70    8.02
   6   2  -4    3.36    2.31
  -6  -2   4    3.75    1.85
   6   2  -4    4.70    1.45
  -6  -2   4   -0.85    1.46
   6  -2  -4    5.10    2.53
   6  -2  -4    4.95    2.06
  -4  -2   4   84.67    5.27
   4   2  -4   88.06    6.43
   4  -2  -4   85.87    6.36
  -4  -2   4   95.02    5.73
   4  -2  -4   80.13    6.32
   2  -2  -4 1403.05   59.43
   2  -2  -4 1332.15   60.33
   2   2  -4 1427.76   60.21
   0  -2   4    7.17    1.90
   0   2  -4   10.77    2.84
   0  -2  -4   11.62    2.56
   0  -2  -4   18.89    3.54
  -2  -2  -4  194.64   11.77
   4  -2   4  194.17   13.35
  -4  -2  -4  192.64   13.03
   6  -2   4   68.98    9.48
  -6  -2  -4   70.27    9.13
  -6  -2  -4   91.90    9.40
  -8  -2  -4   31.64    6.88
   8  -2   4   23.38    6.57
  -8  -2  -4   15.05    5.55
 -10   2  -4   16.86    5.75
 -10  -2  -4    4.54    5.13
 -10  -2  -4    8.99    5.29
 -10   2  -4    9.67    5.49
 -12   2  -4   27.64    8.82
 -12   2  -4   41.52    9.77
 -12  -2  -4   22.52    8.52
 -14  -2  -4    5.17    8.12
 -14   2  -4   14.83    8.68
 -14   2  -4   13.32    8.72
 -16  -2  -4   29.37   11.33
 -16   2  -4   14.91    9.50
 -16   2  -4    2.05    7.29
 -18  -2  -4   -1.78    9.91
 -18   2  -4    8.30   12.03
 -18   2  -4    6.08   11.15
 -21   3   4   23.74    9.48
 -21   3   4   24.02   10.82
 -21  -3   4   31.38    9.08
 -19  -3   4   19.12    8.11
  19   3  -4   16.72    8.34
 -19   3   4   26.95   10.21
 -19   3   4   28.41   10.71
  19  -3  -4   35.98   11.33
 -17  -3   4  103.67   14.89
  17  -3  -4  150.63   19.48
 -17  -3   4   94.37   14.42
  17   3  -4  109.65   17.32
  17  -3  -4  146.04   19.75
 -15  -3   4  237.46   18.87
 -15  -3   4  219.21   18.88
  15  -3  -4  212.88   21.53
  15  -3  -4  262.98   21.72
  15   3  -4  219.45   21.81
  13  -3  -4  163.67   17.61
  13  -3  -4  205.08   16.79
 -13  -3   4  172.82   15.86
  13   3  -4  197.38   18.52
 -13  -3   4  181.45   15.74
  11   3  -4    0.54    2.83
  11  -3  -4    6.25    3.00
  11  -3  -4    4.50    3.80
 -11  -3   4    1.78    2.98
 -11  -3   4    1.28    2.72
   9  -3  -4  324.94   19.93
  -9  -3   4  353.02   19.34
   9   3  -4  342.44   20.76
  -9  -3   4  318.54   19.72
   9  -3  -4  326.23   20.79
   9   3  -4  329.92   16.53
  -7  -3   4   41.24    5.79
  -7  -3   4   46.27    5.59
   7   3  -4   41.79    6.06
   7  -3  -4   53.10    6.23
   7  -3  -4   53.86    6.93
   5   3  -4    5.92    1.91
  -5  -3   4    9.64    2.60
   5   3  -4    9.63    2.85
   5  -3  -4    8.59    2.90
   5  -3  -4    6.14    2.39
   3   3  -4 1643.09   70.31
   3   3  -4 1625.34   68.84
   3  -3  -4 1646.39   70.18
  -3  -3   4 1606.20   68.82
   3  -3  -4 1634.33   70.51
   1  -3  -4   27.80    3.43
   1   3  -4   27.29    3.55
   1  -3  -4   27.52    4.10
   1  -3   4 2703.32  114.99
  -1  -3  -4 2699.25  115.11
   3  -3   4   36.09    5.66
  -3  -3  -4   48.48    5.99
  -5  -3  -4  130.21   10.80
   5  -3   4  125.59   11.74
   7  -3   4    8.07    4.32
  -7  -3  -4    9.96    4.67
  -9  -3  -4  100.76   12.82
   9  -3   4   79.42   12.39
 -11  -3  -4    1.17    5.66
 -13  -3  -4   17.86    8.04
 -13   3  -4    8.57    6.94
 -13   3  -4   15.42    8.11
 -15  -3  -4   -0.33    8.06
 -15   3  -4    7.22    8.20
 -15   3  -4    8.40    7.61
 -17   3  -4   67.25   15.83
 -17   3  -4  101.32   20.01
 -17  -3  -4   64.91   16.60
 -22   4   4    4.65    8.29
 -22   4   4    5.61    6.89
 -22  -4   4    7.84    5.70
  20  -4  -4    8.20    8.45
 -20   4   4   -1.53    7.92
 -20  -4   4    0.64    6.33
 -20   4   4   -0.45    6.45
 -18  -4   4   26.17    8.84
  18  -4  -4   21.03    8.58
  18  -4  -4    1.62    7.03
  18   4  -4   13.06    7.57
  16   4  -4   57.59   12.58
  16  -4  -4   62.53   12.20
  16  -4  -4   86.68   14.52
 -16  -4   4   71.93   12.42
  14  -4  -4    1.17    3.68
 -14  -4   4    2.37    4.43
 -14  -4   4    0.68    3.78
  14   4  -4    1.50    3.89
  14  -4  -4   10.70    5.93
  12  -4  -4   38.60    8.64
 -12  -4   4   40.94    7.15
  12   4  -4   29.87    7.44
  12  -4  -4   43.57    8.04
 -12  -4   4   37.83    7.64
  10  -4  -4  306.55   19.35
  10  -4  -4  300.42   20.17
  10   4  -4  286.44   19.68
 -10  -4   4  286.53   18.90
 -10  -4   4  292.28   18.13
   8  -4  -4  459.30   25.26
   8   4  -4  466.95   21.82
   8  -4  -4  434.81   24.08
  -8  -4   4  438.20   24.22
   8   4  -4  430.73   24.55
   6  -4  -4  305.16   17.58
   6   4  -4  285.58   15.30
   6   4  -4  309.95   17.31
   6  -4  -4  334.74   17.14
   4   4  -4   56.71    5.27
  -4  -4   4   50.57    4.29
   4  -4  -4   60.62    5.08
   4   4  -4   64.07    5.24
   4  -4  -4   61.63    5.76
   2   4  -4   73.41    5.96
   2  -4  -4   58.84    5.36
   2  -4  -4   61.19    5.71
   2   4  -4   63.99    4.91
  -2  -4   4   66.51    4.22
   0   4  -4  199.73   11.02
   0  -4  -4  187.63   11.30
   0  -4   4  207.55   10.76
   0  -4  -4  201.83   12.09
  -2  -4  -4   71.26    6.98
  -4  -4  -4   46.94    6.83
   4  -4   4   54.24    7.37
   6  -4   4   22.09    5.50
  -6  -4  -4   24.32    5.91
   8  -4   4  143.68   15.00
  -8  -4  -4  125.42   13.75
  10  -4   4  196.00   19.69
 -10  -4  -4  223.31   18.74
 -12  -4  -4   39.69   10.68
 -14   4  -4    1.75    6.74
 -14   4  -4   -0.60    7.09
 -14  -4  -4    3.90    7.90
 -16  -4  -4   -8.54    8.11
 -16   4  -4    4.88    8.35
 -16   4  -4   15.27    9.60
 -18   4  -4   20.27   13.51
 -18   4  -4   22.16   14.03
 -18  -4  -4   22.55   11.92
 -21   5   4   -9.85    7.38
 -21  -5   4   14.55    8.54
 -21   5   4    7.57    8.36
  19  -5  -4    0.06    6.04
  19  -5  -4    7.79    7.60
  19   5  -4    2.80    5.48
 -19  -5   4   -4.73    6.24
  17   5  -4    5.50    6.07
 -17  -5   4    2.85    5.53
  17  -5  -4    6.24    7.59
  17  -5  -4    4.76    5.61
  15   5  -4   19.30    7.51
 -15  -5   4   11.98    5.91
  15  -5  -4   21.58    7.33
  15  -5  -4   17.54    6.73
 -13  -5   4   10.33    5.07
  13   5  -4    7.85    5.05
  13  -5  -4    2.10    4.14
  13  -5  -4    7.90    3.82
  11   5  -4  397.77   25.29
 -11  -5   4  407.14   24.54
  11  -5  -4  370.06   25.02
  11  -5  -4  392.29   24.30
   9   5  -4  886.40   39.76
   9  -5  -4  831.41   43.83
   9   5  -4  909.39   44.21
  -9  -5   4  872.21   43.02
   9  -5  -4  855.77   42.83
   7   5  -4  622.14   30.50
  -7  -5   4  602.53   29.65
   7  -5  -4  586.12   29.47
   7   5  -4  572.28   27.61
   7  -5  -4  573.86   30.51
   5  -5  -4  424.42   21.79
   5   5  -4  387.16   20.08
   5   5  -4  407.88   21.01
   5  -5  -4  424.95   20.72
   3   5  -4  333.64   16.70
   3  -5  -4  292.83   16.11
   3   5  -4  326.41   16.03
  -3  -5   4  340.29   15.48
   3  -5  -4  291.53   16.47
   1   5  -4  193.08   12.01
   1  -5  -4  202.03   11.70
  -1  -5   4  199.42   10.42
   1  -5  -4  202.56   11.83
   1   5  -4  197.65   10.72
   1  -5   4   11.79    2.71
  -1  -5  -4   11.49    3.34
  -1   5  -4   12.12    2.84
  -3  -5  -4   47.47    6.64
   3  -5   4   45.27    6.30
   5  -5   4   91.66    9.87
  -5  -5  -4   63.74    8.49
  -7  -5  -4  224.35   16.73
   7  -5   4  226.86   17.47
   9  -5   4  198.93   18.81
  -9  -5  -4  196.42   16.86
 -11  -5  -4  228.81   20.29
  11  -5   4  242.66   20.89
  13  -5   4    3.96    4.35
 -13  -5  -4    6.20    6.95
 -15  -5  -4    4.57    7.92
 -15   5  -4   -4.57    7.34
 -15   5  -4   -4.21    7.46
 -17   5  -4  -10.20    8.18
 -17   5  -4   -5.15    8.97
 -17  -5  -4   10.15    9.83
 -20  -6   4   25.83   10.01
  20  -6  -4   18.62    9.88
  18   6  -4   62.93   14.42
  18  -6  -4   63.39   13.63
 -18  -6   4   47.79   11.29
  18  -6  -4   67.14   13.98
  16  -6  -4   17.80    7.40
  16  -6  -4   10.34    6.03
 -16  -6   4   16.51    6.45
  16   6  -4    8.28    5.83
 -14  -6   4  271.22   20.77
  14  -6  -4  269.60   21.26
  14   6  -4  279.82   22.10
  14  -6  -4  236.32   21.04
  12   6  -4   27.41    6.98
 -12  -6   4   22.06    6.30
  12  -6  -4   36.76    7.33
  12  -6  -4   29.30    7.53
  10   6  -4  183.88   12.01
 -10  -6   4  142.91   12.95
  10  -6  -4  177.06   14.59
  10   6  -4  200.42   15.07
  10  -6  -4  182.79   13.65
  -8  -6   4  124.28   10.04
   8   6  -4  119.85   10.54
   8  -6  -4  132.12   11.16
   8   6  -4  108.04    8.79
   8  -6  -4  139.03   10.12
   6  -6  -4  354.28   18.72
  -6  -6   4  265.53   16.41
   6   6  -4  293.36   17.31
   6  -6  -4  325.18   16.90
   4  -6  -4  118.86    9.06
   4   6  -4  126.26    8.67
  -4  -6   4  133.07    8.12
   4   6  -4  124.15    8.38
   2   6  -4   90.23    5.94
   2   6  -4   94.70    7.29
   2  -6  -4   89.93    7.38
  -2  -6   4   81.54    6.01
   0  -6  -4  180.32   11.51
   0   6  -4  189.03   11.80
   0   6  -4  186.89   10.07
   0  -6  -4  163.47   11.13
   0  -6   4  184.93   10.51
   2  -6   4  286.58   16.35
  -2  -6  -4  284.35   16.71
  -2   6  -4  293.39   16.68
   4  -6   4  356.58   20.11
  -4  -6  -4  303.30   19.28
   6  -6   4  148.29   12.96
  -6  -6  -4  163.82   13.37
  -8  -6  -4  106.02   12.70
   8  -6   4  109.48   13.36
 -10  -6  -4   35.28    8.70
  10  -6   4   20.28    7.00
  12  -6   4   29.03    8.43
 -12  -6  -4   34.98    9.79
  14  -6   4   30.93   10.27
 -14  -6  -4   19.97    9.77
 -16   6  -4   14.25   10.01
 -16  -6  -4   29.46   10.77
 -16   6  -4    5.18    8.26
 -18  -6  -4   13.15   11.69
 -18   6  -4   16.38   13.95
 -18   6  -4   25.03   13.91
  21  -7  -4    5.25   10.10
 -21  -7   4    7.34    6.01
  19  -7  -4    2.57    7.49
  19  -7  -4    3.72    6.37
 -19  -7   4    5.94    6.00
  17   7  -4   28.63    9.84
  17  -7  -4   26.21    9.33
 -17  -7   4   52.18   10.85
  17  -7  -4   45.41   10.80
  15  -7  -4    1.34    4.81
 -15  -7   4   -0.30    4.35
  15   7  -4    1.17    4.92
  15  -7  -4    0.22    4.31
  13  -7  -4   18.53    5.52
 -13  -7   4   18.39    6.29
  13   7  -4   15.00    6.10
  13  -7  -4   14.77    6.29
  11  -7  -4   10.02    4.84
  11  -7  -4    7.96    3.48
  11   7  -4   11.65    4.92
 -11  -7   4   10.17    4.22
  -9  -7   4   95.53    9.63
   9  -7  -4   64.85    8.24
   9   7  -4   79.71    8.19
   9  -7  -4   64.24    9.57
   9   7  -4   70.62    9.51
  -7  -7   4   10.24    3.48
   7  -7  -4    5.34    3.52
   7   7  -4    2.05    1.83
   7  -7  -4    1.20    1.26
   7   7  -4   14.79    4.07
   5  -7  -4    7.59    2.32
   5  -7  -4    9.55    3.71
   5   7  -4   10.13    2.82
   5   7  -4    9.00    2.88
  -3  -7   4  494.05   23.64
   3  -7  -4  499.80   25.17
   3   7  -4  504.90   23.38
   3   7  -4  470.91   24.37
   1   7  -4    6.19    2.85
   1   7  -4    8.24    2.06
   1  -7  -4    6.75    2.93
  -1  -7   4    9.01    2.48
   1  -7  -4    2.80    1.98
  -1   7  -4  137.16    9.70
  -1  -7  -4   95.34    8.81
  -1   7  -4  122.62    7.62
  -3  -7  -4   32.89    5.87
  -3   7  -4   27.25    5.15
   3  -7   4   20.26    4.88
  -5  -7  -4    5.57    3.85
   5  -7   4    7.34    3.61
  -5   7  -4    5.29    3.15
  -7   7  -4   29.63    5.82
  -7  -7  -4   19.36    6.33
   7  -7   4   26.43    6.87
   9  -7   4   19.58    6.36
  -9   7  -4   15.92    4.83
  -9  -7  -4   12.82    6.14
 -11  -7  -4   16.52    7.67
  11  -7   4   22.30    7.46
 -13  -7  -4   28.51    9.89
  13  -7   4   19.90    8.11
  15  -7   4    6.38    7.48
 -15  -7  -4   -0.86    7.87
 -17   7  -4   -8.65    9.85
 -17  -7  -4    2.45    8.69
 -17   7  -4   25.28   13.36
  20  -8  -4   36.09   12.19
 -20  -8   4   48.30   11.35
  18   8  -4   76.79   16.70
 -18  -8   4   66.76   13.01
  18  -8  -4   63.01   13.73
  18  -8  -4   74.86   14.75
  16   8  -4   46.67   11.63
  16  -8  -4   47.16   11.01
  16  -8  -4   44.78   11.35
 -16  -8   4   67.13   11.62
  14   8  -4    4.66    4.51
  14  -8  -4   -1.97    3.88
 -14  -8   4    4.50    4.72
  14  -8  -4    3.56    4.83
  12  -8  -4    2.65    3.69
 -12  -8   4    7.85    4.46
  12  -8  -4    9.32    4.44
  12   8  -4    9.67    5.01
  10  -8  -4   11.59    4.61
  10   8  -4   13.05    4.85
  10   8  -4   16.72    4.13
  10  -8  -4   11.62    4.05
 -10  -8   4    4.96    3.91
  -8  -8   4   35.41    6.10
   8   8  -4   31.97    6.15
   8  -8  -4   36.51    7.19
   6  -8  -4    3.97    2.03
   6   8  -4    6.62    2.82
   6   8  -4    3.49    2.32
  -6  -8   4    4.83    2.53
   6  -8  -4    7.51    3.65
   4   8  -4  116.67    7.78
   4   8  -4  109.84    8.55
   4  -8  -4  101.51    9.55
   4  -8  -4   95.98    7.08
   2   8  -4  415.76   22.19
   2   8  -4  443.66   20.14
   2  -8  -4  421.44   21.13
   2  -8  -4  412.70   22.71
   0   8  -4  405.26   18.57
   0   8  -4  404.48   21.16
   0  -8  -4  362.40   21.00
   2  -8   4  128.02   10.20
  -2  -8  -4  145.05   11.08
  -2   8  -4  145.13   10.62
  -2   8  -4  154.09    9.10
   4  -8   4  299.83   18.40
  -4  -8  -4  284.45   18.20
  -4   8  -4  276.39   17.14
  -6   8  -4   15.66    4.39
   6  -8   4   16.35    5.18
  -6  -8  -4   12.32    5.15
   8  -8   4   13.30    5.22
  -8   8  -4    5.40    3.43
  -8  -8  -4   19.96    6.40
 -10  -8  -4    8.00    6.50
  10  -8   4   16.27    6.67
 -12  -8  -4    1.30    6.57
  12  -8   4    7.78    5.68
 -14  -8  -4   43.28   12.54
  14  -8   4   24.04    8.94
 -16  -8  -4   30.04   11.74
 -18  -8  -4   32.77   14.13
 -18   8  -4   43.83   18.87
 -18   8  -4   64.94   20.84
 -21  -9   4    6.49    6.43
  21  -9  -4   12.97   11.85
  19  -9  -4   -0.24    6.76
 -19  -9   4    0.73    5.72
  19  -9  -4    3.16    7.08
  17  -9  -4    8.33    5.79
 -17  -9   4    2.39    5.34
  17  -9  -4    2.87    6.24
  17   9  -4   -1.53    5.56
  15  -9  -4    7.71    5.09
  15   9  -4   -1.05    4.17
 -15  -9   4   10.67    5.30
  15  -9  -4   -0.12    3.95
  13   9  -4    5.74    4.56
  13  -9  -4    4.14    3.51
 -13  -9   4    0.72    4.25
  13  -9  -4    4.90    4.31
 -11  -9   4  328.73   21.17
  11  -9  -4  310.77   22.06
  11   9  -4  304.05   21.74
  11  -9  -4  266.39   19.40
  11   9  -4  314.40   19.20
   9  -9  -4  121.85   12.57
   9  -9  -4   54.83    7.84
   9   9  -4  124.17   11.92
   7  -9  -4  882.17   43.02
  -7  -9   4  947.67   44.21
   7  -9  -4  933.43   46.13
   7   9  -4  988.06   45.23
   7   9  -4  872.45   43.30
  -5  -9   4  656.33   31.47
   5  -9  -4  659.65   33.28
   5   9  -4  631.63   31.19
   5   9  -4  642.10   31.76
   5  -9  -4  624.73   30.25
   3   9  -4   93.16    9.03
   3  -9  -4  109.39    9.39
   3  -9  -4  125.26    7.97
   3   9  -4  114.76    7.57
   1   9  -4   89.30    8.64
   1  -9  -4   79.14    8.54
   1  -9  -4   67.27    6.98
   1   9  -4   91.31    5.53
   1  -9   4    3.55    2.25
  -1   9  -4    2.15    1.65
  -1   9  -4    2.42    2.63
  -1  -9  -4    5.82    3.38
  -3  -9  -4   33.18    6.41
   3  -9   4   25.61    5.38
  -3   9  -4   31.50    5.78
  -5   9  -4  192.34   13.66
  -5  -9  -4  217.29   15.80
   5  -9   4  231.66   16.10
  -7   9  -4  580.28   30.30
  -7  -9  -4  600.57   33.86
   7  -9   4  590.05   34.03
  -9   9  -4  353.51   21.06
  -9  -9  -4  370.69   25.57
   9  -9   4  353.08   25.07
  11  -9   4  242.73   21.81
 -11  -9  -4  289.44   23.24
 -13  -9  -4  105.57   16.99
  13  -9   4   86.23   14.87
  15  -9   4   -2.32    6.41
 -15  -9  -4    4.36    7.75
 -17  -9  -4    2.21   10.28
 -20 -10   4   -8.04    6.39
  20 -10  -4  -12.94    6.86
 -18 -10   4    3.24    6.02
  18 -10  -4    1.70    6.64
  18 -10  -4    2.60    7.04
  16 -10  -4   15.85    7.12
 -16 -10   4    1.71    5.56
  16 -10  -4   11.27    6.59
  16  10  -4   16.65    8.50
 -14 -10   4   19.53    7.05
  14 -10  -4   32.56    8.30
  14  10  -4   24.08    8.20
  14 -10  -4   24.31    7.47
  12 -10  -4   57.57   10.45
  12  10  -4   46.48    9.71
 -12 -10   4   41.42    8.02
 -10 -10   4  117.84   12.00
  10  10  -4  120.25   13.01
  10 -10  -4  106.30   13.20
  10  10  -4   79.66    9.77
  10 -10  -4  106.33   10.87
  -8 -10   4   81.23    8.92
   8  10  -4   73.44    8.86
   8 -10  -4   76.31   10.34
   8 -10  -4   60.75    7.38
   8  10  -4   67.43    8.87
   6  10  -4  124.73    9.83
   6 -10  -4  113.77    8.38
   6 -10  -4  124.74   11.86
   6  10  -4  112.01    9.65
  -6 -10   4  121.67    9.63
   4  10  -4   17.80    3.59
   4  10  -4   30.95    5.51
   4 -10  -4   18.58    3.28
   4 -10  -4   21.93    5.12
  -4 -10   4   17.42    3.82
  -2 -10   4   83.54    7.69
   2 -10  -4  101.69    7.46
   2  10  -4  115.64    6.86
   2  10  -4   94.93    9.27
   2 -10  -4   95.08    9.70
   0  10  -4   33.84    5.86
   0 -10  -4   29.11    4.90
   0  10  -4   30.81    3.05
   0 -10  -4   21.85    5.32
   0 -10   4   23.34    4.72
  -2  10  -4   50.35    7.24
   2 -10   4   73.15    8.25
  -2 -10  -4   46.07    7.55
  -2  10  -4   66.81    5.08
  -4  10  -4   16.43    4.38
  -4 -10  -4    7.79    4.30
   4 -10   4    6.00    3.45
  -6 -10  -4    9.81    4.85
  -6  10  -4   18.07    4.69
   6 -10   4    8.24    4.44
  -8  10  -4   10.44    4.44
   8 -10   4   18.30    6.13
  -8 -10  -4   25.77    7.23
  10 -10   4   67.31   12.10
 -10 -10  -4   67.46   12.09
 -12 -10  -4    6.53    6.76
  12 -10   4   12.38    6.32
  14 -10   4    0.44    5.93
 -14 -10  -4   -3.58    6.92
  16 -10   4   11.26    7.86
 -16 -10  -4   11.26    9.87
 -19 -11   4    7.47    7.44
  19 -11  -4    2.73    7.98
 -17 -11   4    8.71    6.53
  17  11  -4   14.93    8.97
  17 -11  -4   12.22    7.20
  15  11  -4   11.15    6.52
  15 -11  -4    8.62    6.17
  15 -11  -4    2.82    5.35
 -15 -11   4    7.14    5.68
  13 -11  -4   63.41   11.77
 -13 -11   4   38.90    8.74
  13  11  -4   50.04   10.66
 -11 -11   4   -0.39    3.50
  11 -11  -4    3.62    3.08
  11 -11  -4    4.39    3.52
  11  11  -4    1.12    2.88
  11  11  -4    4.02    3.92
   9 -11  -4  209.97   14.06
   9  11  -4  189.20   15.40
   9 -11  -4  213.89   17.07
   9  11  -4  194.65   14.88
  -9 -11   4  199.33   14.74
   7 -11  -4  328.11   22.16
   7 -11  -4  359.16   19.06
   7  11  -4  327.00   20.56
  -7 -11   4  331.82   20.21
   7  11  -4  375.62   21.13
   5 -11  -4  259.90   18.15
   5  11  -4  305.60   18.02
   5 -11  -4  269.42   15.10
   5  11  -4  287.66   16.53
  -5 -11   4  293.83   17.14
   3 -11  -4    8.49    3.66
   3  11  -4   10.98    2.77
   3  11  -4    8.72    2.91
   3 -11  -4    4.88    2.33
  -3 -11   4   11.28    3.60
   1  11  -4   41.82    6.89
   1 -11  -4   55.09    6.13
   1 -11  -4   70.62    8.75
   1  11  -4   56.45    4.23
  -1 -11   4   56.60    6.92
  -1  11  -4    4.81    1.69
  -1  11  -4    4.63    2.97
   1 -11   4    3.20    2.59
  -1 -11  -4   -0.44    2.66
  -3  11  -4   23.47    3.63
  -3 -11  -4   19.68    5.75
   3 -11   4   27.42    5.52
  -3  11  -4   15.63    4.24
   5 -11   4   11.23    4.68
  -5 -11  -4   11.13    5.18
  -5  11  -4   17.47    4.81
  -7 -11  -4  176.09   14.99
   7 -11   4  138.87   15.02
  -7  11  -4  149.12   12.20
   9 -11   4   16.91    6.46
  -9  11  -4   19.09    5.81
  -9 -11  -4   22.92    7.53
 -11 -11  -4    4.40    5.51
  11 -11   4   11.78    6.37
  13 -11   4    0.68    5.55
 -13 -11  -4   -6.83    6.20
 -15 -11  -4   -3.19    7.91
  15 -11   4   19.60    8.37
 -17 -11  -4  -17.22    8.38
  17 -11   4    1.73    5.87
 -20 -12   4   20.15    9.45
  20 -12  -4   15.30   10.79
  18 -12  -4  128.16   20.05
 -18 -12   4  119.99   17.84
 -16 -12   4  192.63   20.46
  16  12  -4  165.48   21.58
  16 -12  -4  123.66   19.34
 -14 -12   4  206.88   18.37
  14  12  -4  221.52   22.37
  14 -12  -4  203.50   21.80
  12 -12  -4   32.30    6.88
 -12 -12   4   27.01    6.91
  12  12  -4   41.42    9.61
  12 -12  -4   48.17    9.47
  10 -12  -4    9.45    3.66
  10  12  -4    3.53    3.07
  10  12  -4   -0.04    2.97
 -10 -12   4    0.77    2.73
  10 -12  -4    4.02    3.76
   8 -12  -4    5.21    4.01
   8  12  -4    4.66    3.17
   8 -12  -4    6.44    2.77
  -8 -12   4   -1.56    2.60
   8  12  -4    1.52    2.63
   6 -12  -4   70.54    9.76
   6  12  -4   60.04    7.55
   6 -12  -4   68.74    6.38
  -6 -12   4   49.87    7.17
   6  12  -4   67.99    8.87
   4 -12  -4  217.82   16.12
   4  12  -4  241.98   13.58
   4 -12  -4  205.42   12.23
   4  12  -4  208.21   15.29
  -4 -12   4  246.90   15.08
  -2 -12   4  321.50   18.69
   2  12  -4  338.74   15.67
   2  12  -4  278.66   18.62
   2 -12  -4  304.20   16.45
   2 -12  -4  263.60   18.93
   0 -12   4   68.83    8.22
   0 -12  -4   69.28    9.15
   0  12  -4   70.38    4.52
   0  12  -4   77.00    9.24
   0 -12  -4   66.30    7.42
  -2  12  -4  275.08   13.18
  -2 -12  -4  230.78   17.58
   2 -12   4  269.32   17.50
  -2  12  -4  278.35   17.58
  -4  12  -4  194.99   14.50
   4 -12   4  216.25   16.08
  -4 -12  -4  223.36   16.58
  -4  12  -4  197.09   11.84
   6 -12   4   82.28   11.33
  -6 -12  -4   60.67   10.36
  -6  12  -4   73.73    9.14
  -8  12  -4   -0.28    2.90
   8 -12   4    6.68    3.88
  -8 -12  -4   -1.43    4.50
  10 -12   4   18.95    6.99
 -10 -12  -4   -1.45    4.87
 -12 -12  -4   14.51    8.46
  12 -12   4    4.64    6.00
  14 -12   4   30.61   10.26
 -14 -12  -4   25.25   10.62
  16 -12   4   28.64   10.03
 -16 -12  -4   44.62   14.21
  19 -13  -4    0.68    7.46
 -19 -13   4    2.58    5.94
  17 -13  -4   28.26    9.16
 -17 -13   4   43.47   10.40
  15 -13  -4   52.27   12.11
 -15 -13   4   53.89   10.75
  15  13  -4   49.29   11.84
  13  13  -4   12.50    6.22
 -13 -13   4    2.20    4.04
  13 -13  -4    4.69    4.70
 -11 -13   4    1.27    3.72
  11  13  -4    0.54    3.47
  11  13  -4    0.26    3.51
  11 -13  -4   -1.13    3.71
   9 -13  -4  387.32   25.46
   9  13  -4  378.51   23.48
  -9 -13   4  347.40   22.58
   9 -13  -4  329.17   20.50
   9  13  -4  390.51   23.71
   7  13  -4   59.28    8.19
   7 -13  -4   53.31    6.10
  -7 -13   4   45.44    7.51
   7 -13  -4   43.51    8.90
   7  13  -4   59.43    9.06
   5  13  -4    4.42    2.94
   5 -13  -4    3.45    3.97
  -5 -13   4    8.22    2.93
   5  13  -4    7.92    3.31
   5 -13  -4    3.57    2.21
   3 -13  -4    8.81    4.54
   3 -13  -4   18.46    3.55
   3  13  -4   20.46    3.60
  -3 -13   4   23.12    4.83
   3  13  -4   21.29    5.10
   1 -13  -4   13.93    4.86
   1 -13  -4   21.67    4.30
   1  13  -4   15.98    2.51
   1  13  -4   16.79    4.91
  -1 -13   4   28.63    5.51
   1 -13   4  152.74   12.02
  -1  13  -4  138.63   11.85
  -1 -13  -4  140.86   13.31
  -3 -13  -4   56.30    9.57
   3 -13   4   84.37   10.14
  -3  13  -4   83.54   10.08
   5 -13   4    8.80    4.12
  -5  13  -4   10.83    4.65
  -5 -13  -4    9.93    5.19
   7 -13   4    0.22    3.33
  -7  13  -4   -2.94    2.96
  -7 -13  -4   -0.41    4.13
  -9 -13  -4   82.65   13.23
   9 -13   4   63.31   11.76
 -11 -13  -4   24.03    8.71
  11 -13   4   25.17    8.07
  13 -13   4    3.46    6.47
 -13 -13  -4  -12.67    5.69
 -15 -13  -4    6.57    8.78
  15 -13   4    8.29    6.79
 -20 -14   4    7.37    7.14
 -18 -14   4    3.68    6.64
  18 -14  -4    9.12    7.92
 -16 -14   4   -1.04    5.19
  16 -14  -4   -5.10    5.01
  14 -14  -4   14.01    7.00
  14  14  -4   10.30    7.13
 -14 -14   4    4.92    5.47
  12  14  -4  158.40   17.78
  12 -14  -4  176.19   19.74
 -12 -14   4  171.06   17.19
  10  14  -4  161.27   15.65
  10 -14  -4  118.81   15.66
  10  14  -4  164.40   15.24
 -10 -14   4  145.34   14.52
  -8 -14   4  299.08   19.87
   8  14  -4  268.73   19.02
   8 -14  -4  312.40   22.34
   8  14  -4  294.52   20.29
   6  14  -4  272.95   17.60
   6  14  -4  286.41   19.55
   6 -14  -4  300.54   15.87
  -6 -14   4  261.59   17.97
   6 -14  -4  300.57   20.67
   4 -14  -4  188.63   15.37
  -4 -14   4  186.34   13.83
   4 -14  -4  197.46   11.26
   4  14  -4  215.07   12.58
   4  14  -4  169.73   14.11
   2 -14  -4  148.21   14.03
   2  14  -4  143.69   13.58
  -2 -14   4  160.33   12.27
   2 -14  -4  147.19    9.85
   0  14  -4    0.02    2.46
   0 -14  -4    3.16    3.06
   0 -14  -4    1.26    3.33
   0 -14   4   -0.63    2.34
  -2 -14  -4    2.48    3.90
  -2  14  -4   -1.43    2.72
   2 -14   4    1.73    2.98
  -4 -14  -4   54.94    9.89
   4 -14   4   71.63   10.32
  -4  14  -4   63.56    9.34
   6 -14   4   51.58    9.60
  -6 -14  -4   66.92   10.81
  -6  14  -4   48.74    8.70
  -8  14  -4  137.80   13.26
   8 -14   4  114.36   14.98
  -8 -14  -4  119.22   15.47
 -10 -14  -4   50.73   11.34
  10 -14   4   39.77    9.67
  12 -14   4   14.00    7.36
 -12 -14  -4   21.57    8.47
 -14 -14  -4   17.07    9.27
  14 -14   4   10.41    6.78
 -16 -14  -4    4.65   11.20
  16 -14   4    0.45    5.58
 -19 -15   4   -0.80    5.59
  19 -15  -4   -3.87    8.50
  17 -15  -4    4.86    6.58
 -17 -15   4   10.05    7.82
  15 -15  -4   19.29    8.24
 -15 -15   4    6.73    5.87
 -13 -15   4   14.38    6.76
  13 -15  -4   -4.39    4.00
  13  15  -4    7.70    5.84
  11  15  -4   53.13   10.21
 -11 -15   4   36.39    8.19
  11 -15  -4   36.50    9.26
  11  15  -4   19.73    6.40
   9  15  -4   21.09    6.35
   9 -15  -4   37.54    8.13
   9  15  -4   30.78    7.41
  -9 -15   4   26.74    6.31
   7 -15  -4    9.73    4.97
   7  15  -4    7.48    3.91
   7  15  -4    9.91    4.33
  -7 -15   4    8.73    4.18
   5  15  -4    2.45    3.00
   5  15  -4    5.25    3.14
   5 -15  -4   12.15    5.29
  -5 -15   4   12.38    4.19
   3 -15  -4   39.83    7.89
  -3 -15   4   47.56    7.72
   3  15  -4   47.55    8.04
   3 -15  -4   42.78    4.80
   1 -15  -4   44.77    8.55
  -1 -15   4   48.74    7.87
   1  15  -4   45.27    8.42
   1 -15  -4   67.20    6.74
  -1  15  -4   20.77    5.81
   1 -15   4   26.76    6.17
  -1 -15  -4   13.46    5.47
  -1 -15  -4   30.50    5.89
  -3 -15  -4  173.95   15.29
  -3  15  -4  148.59   14.33
   3 -15   4  204.29   15.70
   5 -15   4   35.28    8.10
  -5 -15  -4   32.23    7.67
  -5  15  -4   37.84    7.30
  -7  15  -4    6.70    4.36
  -7 -15  -4    9.77    5.63
   7 -15   4   10.70    5.28
   9 -15   4   13.21    6.88
  -9 -15  -4   15.51    7.14
  11 -15   4   27.63    8.80
 -11 -15  -4   23.81    9.32
  13 -15   4   10.57    6.83
 -13 -15  -4   -2.46    7.02
 -15 -15  -4    0.35    8.41
  15 -15   4   -1.75    5.57
 -18 -16   4    5.45    6.67
  18 -16  -4    2.41    8.53
  16 -16  -4    5.66    8.11
 -16 -16   4    4.69    6.57
 -14 -16   4   -4.76    4.45
  14 -16  -4    4.57    7.45
 -12 -16   4    2.71    4.62
  12 -16  -4    7.98    5.59
  12  16  -4    6.31    5.81
  10 -16  -4    1.61    4.02
  10  16  -4   -2.51    3.37
  10  16  -4    1.40    3.56
 -10 -16   4    9.28    4.41
   8  16  -4    6.69    4.02
   8  16  -4    4.66    4.20
   8 -16  -4   -0.65    3.12
  -8 -16   4    0.04    3.25
  -6 -16   4   20.58    5.62
   6 -16  -4   12.18    5.05
   6  16  -4   12.79    4.66
   6  16  -4    9.71    4.19
   4 -16  -4   -0.94    3.54
  -4 -16   4    4.01    3.63
   4  16  -4    0.18    2.28
  -2 -16   4   12.60    4.43
   2  16  -4    8.61    4.56
   2 -16  -4   11.36    5.35
   0  16  -4   15.01    5.54
   0 -16  -4   30.60    7.11
   0 -16  -4   19.13    5.02
   0 -16   4    8.01    4.09
  -2  16  -4   67.56   10.26
   2 -16   4   62.60    9.94
  -2 -16  -4   60.87    9.98
  -4 -16  -4    5.39    4.75
  -4  16  -4    9.76    4.62
   4 -16   4    9.99    5.23
   6 -16   4   36.94    8.25
  -6 -16  -4   22.86    7.38
  -6  16  -4   26.61    6.84
   8 -16   4   33.23    8.97
  -8 -16  -4   27.36    8.43
  -8  16  -4   43.48    8.44
 -10 -16  -4   17.37    8.59
  10 -16   4   16.22    7.49
 -12 -16  -4   15.85    9.09
  12 -16   4    6.51    7.13
 -14 -16  -4   12.87   10.21
  14 -16   4   19.66    8.58
 -17 -17   4   43.98   11.16
  17 -17  -4   50.41   13.67
 -15 -17   4   95.55   15.15
  15 -17  -4   93.89   16.33
  13 -17  -4   22.82    9.16
 -13 -17   4   14.83    7.22
 -11 -17   4   25.36    6.81
  11 -17  -4   19.73    6.66
  11  17  -4   15.11    6.01
   9  17  -4    1.51    4.25
  -9 -17   4    4.78    4.28
   9  17  -4    2.65    3.67
   9 -17  -4    9.13    4.64
   7 -17  -4    1.81    3.04
   7  17  -4    2.78    3.34
  -7 -17   4   -0.11    2.70
   5  17  -4   20.37    6.18
   5 -17  -4   11.01    4.71
  -5 -17   4   19.17    5.45
   3  17  -4   60.07    9.81
   3 -17  -4   62.41   10.09
  -3 -17   4   60.52    9.36
   1 -17  -4  422.16   26.95
  -1 -17   4  443.61   26.11
   1  17  -4  391.92   26.13
  -1 -17  -4  326.44   22.30
   1 -17   4  271.01   20.31
  -1  17  -4  319.56   21.67
  -3  17  -4  188.45   16.33
   3 -17   4  218.69   17.47
  -3 -17  -4  204.10   17.21
   5 -17   4    3.24    3.74
  -5 -17  -4    2.83    4.64
  -5  17  -4   -0.72    3.42
   7 -17   4   13.37    6.29
  -7 -17  -4   12.63    6.64
  -7  17  -4   16.79    6.06
  -9 -17  -4    2.17    5.63
   9 -17   4   -2.89    4.06
  11 -17   4   10.89    7.88
 -11 -17  -4   17.57    9.14
 -13 -17  -4   -3.56    7.14
  13 -17   4   26.62    9.64
  15 -17   4   37.62    9.94
 -15 -17  -4   37.56   13.70
  18 -18  -4    4.60    9.70
 -18 -18   4    4.05    7.98
  16 -18  -4   -5.30    5.83
 -16 -18   4    7.29    6.88
  14 -18  -4   12.56    7.57
 -14 -18   4   -3.55    5.11
  12 -18  -4   10.42    6.26
 -12 -18   4    5.62    4.39
  10 -18  -4   47.55   10.59
  10  18  -4   36.04    9.28
 -10 -18   4   44.66    9.15
   8 -18  -4   35.93    8.28
  -8 -18   4   45.43    8.77
   8  18  -4   32.09    8.63
   6  18  -4   33.57    7.96
  -6 -18   4   31.27    7.10
   6 -18  -4   37.96    8.62
   4 -18  -4    0.36    3.11
   4  18  -4    5.27    3.98
  -4 -18   4   -2.36    2.65
   2  18  -4   29.94    7.74
  -2 -18   4   35.22    7.46
   2 -18  -4   24.37    6.50
   0 -18  -4   -0.33    2.88
   0 -18   4    3.67    4.19
   0  18  -4   -0.34    3.53
  -2 -18  -4   23.79    6.79
  -2  18  -4   29.60    7.34
   2 -18   4   26.23    6.54
  -4 -18  -4   23.26    6.92
  -4  18  -4   16.80    6.29
   4 -18   4    9.12    4.94
   6 -18   4    8.92    5.47
  -6  18  -4   19.70    6.75
  -6 -18  -4    7.20    6.65
   8 -18   4    6.56    5.95
  -8  18  -4   28.59    7.72
  -8 -18  -4   36.87    9.64
  10 -18   4   86.25   15.38
 -10 -18  -4   79.81   14.74
 -12 -18  -4   12.70    8.74
  12 -18   4   20.32    8.64
 -14 -18  -4    9.52    9.51
  14 -18   4   11.68    8.13
  17 -19  -4    3.64    8.67
 -17 -19   4  -11.10    6.24
  15 -19  -4    3.60    6.92
 -15 -19   4    5.60    7.53
  13 -19  -4   21.71    9.15
 -13 -19   4   41.20    9.68
  11  19  -4   -5.26    4.09
  11 -19  -4    2.87    5.77
 -11 -19   4    2.25    4.87
   9  19  -4   24.78    7.51
  -9 -19   4   25.81    6.91
   9 -19  -4   16.14    6.92
  -7 -19   4   47.78    8.70
   7 -19  -4   56.75   10.92
   7  19  -4   41.47    9.67
   5 -19  -4    6.57    4.03
  -5 -19   4    7.41    4.43
   5  19  -4    0.36    4.02
   3 -19  -4    1.27    3.68
   3  19  -4    0.41    3.61
  -3 -19   4    5.37    3.91
   1  19  -4    2.36    4.76
  -1 -19   4    0.90    3.38
   1 -19  -4    3.13    3.77
  -1 -19  -4   66.14   11.13
   1 -19   4   50.45    9.57
  -1  19  -4   59.21   10.67
   3 -19   4   33.90    8.06
  -3 -19  -4   48.17   10.03
  -3  19  -4   32.90    8.29
  -5  19  -4   18.00    6.52
   5 -19   4   22.93    7.57
  -5 -19  -4   19.69    6.99
  -7 -19  -4   -0.23    5.23
  -7  19  -4    5.71    5.55
   7 -19   4   -1.22    4.09
  -9 -19  -4   19.30    8.78
   9 -19   4   27.41    8.75
  11 -19   4    6.94    6.33
 -11 -19  -4   18.21    8.67
 -13 -19  -4    6.43    7.10
  13 -19   4   11.16    7.29
 -16 -20   4   -0.95    6.94
  16 -20  -4    1.07    8.09
 -14 -20   4    8.46    7.38
  14 -20  -4   43.00   11.67
  12 -20  -4    1.00    5.42
 -12 -20   4   17.93    7.16
  10  20  -4   42.34   10.31
  10 -20  -4   58.86   12.21
 -10 -20   4   57.57   10.88
   8 -20  -4   89.81   14.22
   8  20  -4   93.61   14.42
  -8 -20   4   80.62   12.42
  -6 -20   4   20.85    6.65
   6  20  -4   18.30    6.87
   6 -20  -4   16.31    6.62
   4  20  -4   32.76    8.38
  -4 -20   4   53.10    9.56
   4 -20  -4   45.38    9.55
  -2 -20   4   44.01    9.10
   2 -20  -4   54.74    9.99
   2  20  -4   35.97    8.72
   0 -20  -4   14.79    5.72
   0 -20   4   16.77    5.65
   0  20  -4   20.00    7.18
   2 -20   4   15.59    6.34
  -2 -20  -4    4.57    4.55
  -2  20  -4   12.28    6.09
  -4 -20  -4   10.61    6.35
  -4  20  -4   14.86    6.68
   4 -20   4   11.28    5.91
  -6 -20  -4    1.86    5.17
   6 -20   4    7.28    5.47
  -6  20  -4   -0.30    4.76
  -8 -20  -4   24.41    8.63
   8 -20   4   33.79    9.87
 -10 -20  -4   42.81   10.63
  10 -20   4   48.63   12.27
 -12 -20  -4   14.06    8.55
  12 -20   4   19.70    8.78
 -15 -21   4   32.78   10.36
  15 -21  -4   15.53   11.00
 -13 -21   4   15.53    7.59
  13 -21  -4   17.49    8.81
  11 -21  -4    6.96    6.20
 -11 -21   4    0.15    4.95
   9 -21  -4   28.69    9.30
   9  21  -4   13.31    6.93
  -9 -21   4   19.81    6.67
   7 -21  -4   -1.97    3.81
   7  21  -4   -0.77    3.84
  -7 -21   4    5.58    4.84
   5  21  -4   -9.53    3.25
  -5 -21   4    7.22    4.11
   5 -21  -4   -1.86    3.68
  -3 -21   4   70.34   10.92
   3  21  -4   39.72    9.83
   3 -21  -4   63.85   11.02
   1 -21  -4   23.42    7.42
   1  21  -4   27.72    7.86
  -1 -21   4   37.90    8.78
  -1 -21  -4   19.91    7.15
   1 -21   4   25.18    6.87
  -1  21  -4   19.54    6.91
   3 -21   4   61.97   11.44
  -3 -21  -4   39.97    9.25
  -3  21  -4   36.36    9.84
  -5  21  -4   48.26   10.23
   5 -21   4   30.68    8.71
  -5 -21  -4   46.14   10.20
  -7  21  -4   -1.81    5.27
  -7 -21  -4   14.97    6.70
   7 -21   4   16.77    6.82
  -9 -21  -4   11.87    7.18
   9 -21   4    8.79    7.20
  11 -21   4   -1.58    6.42
 -11 -21  -4   -1.53    5.54
  13 -21   4    4.32    7.19
 -13 -21  -4    4.34    5.62
 -16 -22   4    6.57    7.21
  16 -22  -4    4.02   10.50
 -14 -22   4    1.46    6.97
  14 -22  -4   -7.45    7.54
  12 -22  -4    7.30    6.69
 -12 -22   4    9.49    6.43
  10 -22  -4   14.83    7.29
 -10 -22   4   10.85    5.55
  10  22  -4    9.46    6.11
  -8 -22   4    8.49    5.53
   8 -22  -4    9.25    6.62
   8  22  -4   11.87    6.07
   6  22  -4    8.03    5.73
   6 -22  -4   -1.21    4.19
  -6 -22   4   -1.52    3.53
   4  22  -4   -3.74    3.62
  -4 -22   4   -1.07    3.56
   4 -22  -4    0.62    4.06
   2 -22  -4   25.84    7.39
  -2 -22   4   29.36    7.87
   2  22  -4   43.66   10.63
   0 -22   4   21.04    7.42
   0  22  -4   22.99    7.59
   0 -22  -4   28.57    8.00
  -2  22  -4   21.14    8.13
  -2 -22  -4   21.01    7.05
   2 -22   4   22.62    7.28
   4 -22   4   12.18    6.42
  -4 -22  -4   10.01    6.00
  -4  22  -4   17.43    7.30
  -6 -22  -4    1.31    5.22
   6 -22   4   11.74    6.28
  -6  22  -4    4.38    5.88
   8 -22   4    9.51    7.01
  -8 -22  -4   12.75    6.71
 -10 -22  -4    6.00    6.31
  10 -22   4    5.92    6.63
 -12 -22  -4    2.33    4.90
  12 -22   4  -10.30    6.70
 -15 -23   4    4.57    7.02
  15 -23  -4   -2.88    8.45
  13 -23  -4    3.15    7.25
 -13 -23   4    9.55    6.79
 -11 -23   4   15.76    7.06
  11 -23  -4   37.22   11.29
   9  23  -4   36.84   10.13
  -9 -23   4   37.26    9.36
   9 -23  -4   48.39   11.92
   7 -23  -4   30.15    9.51
   7  23  -4   32.78    9.46
  -7 -23   4   33.84    8.40
   5  23  -4   72.80   13.56
  -5 -23   4   93.61   13.19
   5 -23  -4   46.90   10.40
   3 -23  -4   72.36   12.70
  -3 -23   4   59.42   10.48
   3  23  -4   83.67   14.24
  -1 -23   4    3.74    5.00
   1  23  -4   14.28    7.52
   1 -23  -4    8.33    4.70
  -1 -23  -4   10.02    5.83
   1 -23   4    4.54    5.04
  -1  23  -4   16.94    7.67
  -3 -23  -4   40.42   10.21
  -3  23  -4   45.76   10.55
   3 -23   4   45.29   10.46
   5 -23   4   12.98    6.95
  -5  23  -4   33.40    9.49
  -5 -23  -4    7.97    6.44
  -7 -23  -4   36.08   10.01
  -7  23  -4   34.64    9.79
   7 -23   4   52.92   12.62
  -9 -23  -4   22.18    8.25
   9 -23   4   21.33    9.59
  11 -23   4   23.07   10.32
 -14 -24   4    1.79    6.47
  14 -24  -4    9.56    8.69
 -12 -24   4    1.59    5.84
  12 -24  -4   -0.81    6.19
  10 -24  -4   13.37    7.61
 -10 -24   4   14.10    7.26
   8 -24  -4   -5.18    4.64
  -8 -24   4    2.40    5.99
   8  24  -4   -3.37    4.86
   6 -24  -4    6.27    5.98
   6  24  -4    6.58    7.02
  -6 -24   4    7.85    5.44
   4  24  -4    0.63    5.42
   4 -24  -4    3.75    5.10
  -4 -24   4    7.27    5.30
   2  24  -4    2.89    6.18
  -2 -24   4   11.16    4.85
   2 -24  -4    4.88    5.78
   0 -24  -4    8.38    5.30
   0 -24   4   10.20    5.16
   0  24  -4   12.35    7.58
   2 -24   4   -3.56    3.90
  -2  24  -4   16.48    6.71
  -2 -24  -4    7.38    5.79
   4 -24   4   -7.39    5.30
  -4  24  -4   -0.48    5.85
  -4 -24  -4   -3.03    4.86
  -6 -24  -4   13.96    7.27
   6 -24   4    5.41    7.13
  -6  24  -4    3.33    7.62
  -8 -24  -4   -1.98    4.99
   8 -24   4    6.68    6.90
 -10 -24  -4   -3.87    4.23
  10 -24   4    8.37    8.12
  13 -25  -4    1.64    4.99
 -13 -25   4  -10.98    5.78
 -11 -25   4    6.48    6.79
  11 -25  -4   -0.23    6.30
  -9 -25   4   16.21    7.17
   9  25  -4    7.11    6.83
   9 -25  -4   13.95    6.74
   7 -25  -4   49.08   11.46
   7  25  -4   41.81   11.33
  -7 -25   4   20.42    8.20
  -5 -25   4    2.45    5.07
   5 -25  -4    8.46    5.40
   5  25  -4    2.04    5.74
   3  25  -4   -0.34    5.89
   3 -25  -4    1.51    4.83
  -3 -25   4    3.34    5.59
   1  25  -4    1.49    6.10
   1 -25  -4    1.22    4.76
  -1 -25   4   -3.56    4.86
  -1 -25  -4    3.66    5.01
  -1  25  -4   -3.86    6.50
   1 -25   4    4.83    5.57
  -3 -25  -4    3.51    5.10
  -3  25  -4   11.85    8.24
   3 -25   4    0.95    5.49
   5 -25   4    1.71    5.47
  -5  25  -4    7.50    8.22
  -5 -25  -4    8.03    6.64
  -7  25  -4    9.02    9.16
   7 -25   4   15.99    8.86
  -7 -25  -4   23.68    8.41
  -9 -25  -4   -0.83    4.38
   9 -25   4   19.07   10.29
  12 -26  -4    0.02    5.10
 -12 -26   4    9.01    6.47
 -10 -26   4    3.06    7.04
  10 -26  -4   -0.65    5.36
   8  26  -4    4.12    5.18
   8 -26  -4    9.16    5.98
  -8 -26   4    5.36    6.18
  -6 -26   4    3.89    6.64
   6  26  -4    4.16    5.54
   6 -26  -4    2.86    5.39
  -4 -26   4   10.16    6.22
   4 -26  -4   -5.43    4.25
   4  26  -4    9.69    7.05
   2  26  -4   -2.65    6.29
   2 -26  -4    2.96    4.72
  -2 -26   4    9.21    5.53
   0  26  -4   75.36   15.10
   0 -26   4   66.07   12.57
   0 -26  -4   67.53   12.55
  -2 -26  -4   22.81    8.53
   2 -26   4   10.49    8.00
  -2  26  -4   20.89    9.19
  -4 -26  -4   17.66    7.59
  -4  26  -4    6.06    8.39
   4 -26   4   14.17    8.17
  -6 -26  -4    4.53    5.65
   6 -26   4   -1.52    7.05
  -6  26  -4    9.36    8.61
   8 -26   4    2.06    7.43
  -8 -26  -4    2.57    4.71
 -11 -27   4   20.78    7.68
  11 -27  -4   -2.01    5.54
  -9 -27   4   -2.85    6.45
   9 -27  -4    6.75    6.65
   7  27  -4    5.66    6.28
   7 -27  -4    2.61    4.87
  -7 -27   4   10.82    6.94
   5 -27  -4   -1.78    5.43
   5  27  -4   -3.00    5.57
  -5 -27   4    2.60    5.65
   3  27  -4    1.72    6.84
   3 -27  -4    5.20    5.66
  -3 -27   4    0.71    5.33
   1 -27  -4    7.88    6.05
   1  27  -4   -1.72    5.84
  -1 -27   4  -10.52    4.95
  -1 -27  -4   -0.14    5.43
  -1  27  -4   -3.46    6.06
   1 -27   4   -3.97    5.48
   3 -27   4   -8.50    6.22
  -3  27  -4    1.24    7.71
  -3 -27  -4    4.93    5.78
  -5 -27  -4    8.27    6.58
  -5  27  -4    5.40    8.19
   5 -27   4    6.02    7.10
  -7 -27  -4   -1.04    4.28
   7 -27   4   -1.32    6.79
  10 -28  -4    1.36    5.30
 -10 -28   4    6.99    7.99
   8 -28  -4   -0.59    5.08
  -8 -28   4   -3.03    5.29
   8  28  -4   -4.51    5.53
  -6 -28   4    2.20    5.90
   6 -28  -4    1.38    6.10
   6  28  -4   -2.65    5.15
  -4 -28   4    5.41    6.09
   4 -28  -4    2.69    5.79
   4  28  -4   10.32    7.42
   2  28  -4   21.61   10.22
  -2 -28   4   24.06    8.79
   2 -28  -4   15.87    7.65
   0 -28   4    4.01    6.83
   0 -28  -4   10.54    7.00
   0  28  -4   -5.34    6.54
  -2 -28  -4   11.16    6.96
   2 -28   4   16.18    7.85
  -2  28  -4   10.56    8.97
   4 -28   4   -4.02    6.20
  -4  28  -4   11.40    9.17
  -4 -28  -4    5.92    5.59
  -6 -28  -4    5.29    4.86
  -6  28  -4   -7.80    7.80
   6 -28   4   -2.81    6.53
   7  29  -4    6.62    4.68
  -7 -29   4    7.11    6.54
   7 -29  -4    0.29    4.36
  -5 -29   4    0.88    6.49
   5 -29  -4   -7.10    4.45
   5  29  -4   -2.76    5.36
   3  29  -4    3.13    8.43
  -3 -29   4   -5.06    5.39
   3 -29  -4  -13.64    3.68
  -1 -29   4   -6.37    5.86
   1  29  -4    1.11    7.88
   1 -29  -4   -1.37    4.75
  -1 -29  -4   -2.95    5.00
   1 -29   4   -0.35    5.77
  -1  29  -4    8.74    9.15
  -3  29  -4   10.16   10.44
   3 -29   4   -4.88    6.23
  -3 -29  -4   -1.83    4.97
  -5  29  -4   10.88    9.52
   5 -29   4    1.46    7.46
  -5 -29  -4    2.83    4.96
   6 -30  -4    3.26    5.34
  -6 -30   4   16.69    8.26
   6  30  -4    1.23    5.43
  -4 -30   4    1.41    5.78
   4  30  -4   -0.24    8.48
   4 -30  -4   -4.78    3.65
  -2 -30   4   -1.17    5.70
   2 -30  -4    5.44    4.95
   2  30  -4    5.95    8.93
   0 -30   4    5.61    7.20
   0 -30  -4   -4.89    3.76
   0  30  -4    1.10    9.01
   2 -30   4    7.53    7.47
  -2  30  -4   -6.48    8.82
  -2 -30  -4    2.45    5.11
 -22   0   5   -4.64    5.65
 -22   0   5   -4.10    5.23
 -20   0   5   -0.99    5.45
 -20   0   5   -0.23    6.62
  20   0  -5   -4.33    5.89
 -18   0   5   -4.44    4.08
  18   0  -5    0.62    6.04
 -18   0   5   -1.44    4.56
 -16   0   5    4.23    4.57
  16   0  -5   -1.56    3.44
 -16   0   5   -3.17    3.17
  14   0  -5    1.90    3.19
  12   0  -5    2.90    3.74
  12   0  -5   -0.11    2.08
  10   0  -5   -0.72    1.95
  10   0  -5    0.54    2.47
   8   0  -5    0.62    1.00
   8   0  -5    0.12    1.74
   8   0  -5    0.21    2.72
   6   0  -5   -0.22    1.47
   6   0  -5   -0.19    2.03
   4   0  -5    0.03    1.55
   4   0  -5   -1.98    1.31
   2   0  -5   -0.05    1.80
   0   0  -5   -1.27    1.91
   0   0  -5   -0.36    1.70
  -2   0  -5   -1.75    1.74
  -2   0  -5    1.00    1.92
  -4   0  -5    1.87    2.90
  -4   0  -5    1.68    2.96
  -6   0  -5    0.87    3.14
  -6   0  -5    4.58    3.30
  -8   0  -5    5.14    4.29
  -8   0  -5   -1.63    3.64
 -10   0  -5    2.31    4.44
 -10   0  -5    4.24    5.26
 -12   0  -5   -1.88    4.70
 -12   0  -5   -0.97    5.80
 -14   0  -5   -3.45    6.33
 -14   0  -5   -3.73    6.88
 -16   0  -5   -1.17    7.34
 -18   0  -5   -8.82    9.85
  21  -1  -5   30.87   10.96
  21   1  -5   20.72   10.02
 -21   1   5   23.62    9.45
 -21  -1   5   34.90   10.68
 -21   1   5   44.43   11.27
 -21  -1   5   44.03   11.02
 -19   1   5   55.29   13.15
 -19   1   5   55.08   12.92
 -19  -1   5   78.78   14.81
 -19  -1   5   56.28   13.19
  19  -1  -5   64.22   14.39
  19   1  -5   47.51   12.36
  17   1  -5  116.31   16.82
 -17  -1   5   94.11   14.67
 -17   1   5  106.75   15.48
 -17  -1   5  123.98   15.86
  17  -1  -5  108.85   16.45
 -17   1   5  133.79   16.62
  15  -1  -5   44.52   10.27
  15   1  -5   30.57    8.63
 -15  -1   5   27.91    7.45
  15  -1  -5   29.27    8.07
 -15  -1   5   19.13    6.91
  13  -1  -5   49.19    9.31
 -13  -1   5   44.09    8.30
 -13  -1   5   46.49    8.27
  13   1  -5   28.39    7.26
  13  -1  -5   34.51    8.42
  11  -1  -5    3.10    2.60
  11   1  -5    3.75    3.08
  11  -1  -5    9.39    4.36
   9  -1  -5   31.03    5.67
   9   1  -5   26.15    2.75
   9  -1  -5   22.65    5.27
   9   1  -5   20.84    4.65
   9   1  -5   34.77    6.22
   7   1  -5  435.33   19.79
   7   1  -5  436.37   22.84
   7  -1  -5  450.63   23.30
   7  -1  -5  399.99   22.85
   7   1  -5  461.94   23.50
   5  -1  -5    1.61    1.86
   5   1  -5    2.49    1.93
   5  -1  -5   -1.42    1.54
   5   1  -5   -1.36    1.63
   3  -1  -5  150.62    9.64
   3  -1  -5  140.66    7.79
   3   1  -5  171.69    9.75
   1  -1  -5 2962.74  128.12
   1   1  -5 3002.57  127.77
   1  -1  -5 3045.32  126.13
  -1   1  -5 3444.33  137.39
  -1   1  -5 3422.42  143.31
  -1  -1  -5 3302.18  143.36
  -3   1  -5    0.58    2.53
  -3   1  -5    5.45    3.02
  -3  -1  -5    9.25    3.66
  -5  -1  -5   15.78    4.74
  -5   1  -5   13.68    4.39
  -5  -1  -5    5.78    3.30
  -5   1  -5   15.25    4.30
  -7  -1  -5   10.85    4.76
  -7   1  -5    9.07    4.73
  -7  -1  -5    6.19    3.92
  -7   1  -5   19.78    5.85
  -9   1  -5    0.47    3.77
  -9  -1  -5   -1.78    3.23
  -9  -1  -5    4.53    4.71
  -9   1  -5    7.88    4.61
 -11   1  -5    4.76    5.28
 -11   1  -5    8.80    6.21
 -11  -1  -5   -2.78    4.81
 -11  -1  -5   -1.81    4.30
 -13  -1  -5   39.74   11.88
 -13   1  -5   40.18   10.00
 -13   1  -5   37.05   10.61
 -15  -1  -5   23.08   10.69
 -15   1  -5   23.03   10.58
 -15   1  -5   46.81   12.05
 -17  -1  -5   37.37   13.98
 -17   1  -5   21.75   13.41
 -22   2   5  -15.30    5.26
 -22  -2   5   -2.49    5.70
 -22   2   5   -4.97    7.04
  20   2  -5    7.67    6.03
 -20   2   5   -9.32    5.79
 -20   2   5    3.31    6.46
 -20  -2   5    6.44    6.60
  20  -2  -5    4.70    6.52
 -20  -2   5    0.25    6.29
 -18  -2   5   -5.60    4.62
 -18   2   5    0.19    5.85
  18  -2  -5   -5.47    4.14
 -18  -2   5    7.23    4.90
  18   2  -5    4.39    5.68
 -18   2   5    1.45    4.77
 -16  -2   5   29.94    8.07
  16   2  -5   13.28    6.54
 -16  -2   5   14.12    6.10
  16  -2  -5   17.21    6.78
  16  -2  -5   12.02    7.06
 -14  -2   5  198.06   15.82
  14   2  -5  193.79   18.85
  14  -2  -5  146.57   17.27
 -14  -2   5  176.79   15.51
  14  -2  -5  177.32   17.91
  12   2  -5  853.50   44.54
 -12  -2   5  805.21   43.02
  12  -2  -5  825.79   44.10
 -12  -2   5  821.57   41.62
  12  -2  -5  834.78   44.81
  10   2  -5  704.98   37.52
 -10  -2   5  701.13   36.82
  10  -2  -5  720.71   38.08
  10   2  -5  750.94   31.73
  10  -2  -5  697.32   37.27
 -10  -2   5  727.23   35.52
   8   2  -5  313.92   18.74
  -8  -2   5  301.67   17.24
   8  -2  -5  337.77   19.50
  -8  -2   5  321.05   18.21
   8   2  -5  323.53   15.29
   8  -2  -5  305.14   18.42
  -6  -2   5  660.89   30.14
   6  -2  -5  682.42   32.31
   6   2  -5  641.24   32.32
   6  -2  -5  693.39   32.57
   6   2  -5  674.77   30.07
  -6  -2   5  686.68   31.51
   4  -2  -5  125.25    8.66
   4   2  -5  128.97    8.63
   4  -2  -5  134.14    8.03
  -4  -2   5  127.80    6.91
   2  -2  -5  181.73    9.50
   2   2  -5  162.20   10.31
   2  -2  -5  174.87   10.76
   0   2  -5  337.60   18.08
   0  -2   5  326.13   16.53
   0  -2  -5  350.73   18.78
   0  -2  -5  363.69   17.14
  -4  -2  -5  264.86   15.94
   4  -2   5  230.84   15.88
  -6  -2  -5  658.04   35.19
  -8   2  -5  376.41   24.91
  -8  -2  -5  378.17   24.80
  -8   2  -5  381.84   23.93
 -10  -2  -5   72.03   12.35
 -10   2  -5   47.36    9.73
 -10   2  -5   56.54   10.85
 -12   2  -5   79.19   13.82
 -12   2  -5   75.08   12.72
 -12  -2  -5   87.25   14.75
 -14   2  -5   11.81    7.67
 -14   2  -5    2.98    7.13
 -14  -2  -5    8.33    8.47
 -16   2  -5   -3.88    7.35
 -16   2  -5   -1.23    6.76
 -16  -2  -5    5.60    8.88
 -18  -2  -5    8.19   12.04
 -18   2  -5    2.91   11.35
 -21   3   5   -1.43    7.08
 -21   3   5   -2.15    8.83
  21  -3  -5   -2.33    6.90
 -21  -3   5   -5.95    5.52
  21   3  -5    7.54    5.89
  19   3  -5   19.15    8.45
  19  -3  -5   13.55    8.32
 -19  -3   5   28.95    9.20
 -19   3   5   14.13    8.41
 -19   3   5   24.93    9.45
  17  -3  -5   12.31    7.46
 -17  -3   5   11.94    5.65
  17  -3  -5   28.02    8.05
  17   3  -5   17.88    7.31
 -17  -3   5   13.29    6.65
  15  -3  -5   14.11    6.57
  15   3  -5    9.55    8.39
 -15  -3   5   29.64    7.69
  15  -3  -5   12.55    5.99
 -15  -3   5   22.39    6.65
  13  -3  -5   13.05    6.12
  13  -3  -5   14.66    5.09
  13   3  -5   10.67    4.58
 -13  -3   5    8.54    4.06
 -13  -3   5    9.52    4.58
  11   3  -5  101.70   11.81
  11  -3  -5   73.66   10.83
 -11  -3   5   87.99   10.46
 -11  -3   5  103.32   10.33
  11  -3  -5   78.00   10.18
   9   3  -5   49.48    7.55
   9   3  -5   59.22    5.16
   9  -3  -5   40.45    7.17
  -9  -3   5   52.90    7.29
  -9  -3   5   54.32    6.82
   9  -3  -5   58.65    7.59
   7   3  -5    0.99    1.52
  -7  -3   5    1.41    1.64
   7  -3  -5    0.90    1.63
   7   3  -5    0.59    1.87
  -7  -3   5   -1.09    1.29
   7  -3  -5    1.89    2.34
   5   3  -5    0.42    0.98
  -5  -3   5    4.82    1.88
   5  -3  -5    2.67    1.97
   5   3  -5    1.19    1.80
   5  -3  -5    4.36    2.35
   3  -3  -5   95.08    7.37
   3  -3  -5   98.87    6.59
   3   3  -5  104.82    7.13
  -1  -3   5  725.05   32.19
   1   3  -5  747.49   34.16
   1  -3  -5  727.29   34.90
   1  -3  -5  756.98   33.44
   1  -3   5   54.34    5.37
  -1  -3  -5   44.65    5.33
  -1   3  -5   47.76    5.72
   3  -3   5   30.58    5.32
  -3  -3  -5   25.09    5.09
   5  -3   5  221.83   15.48
  -5  -3  -5  209.30   14.99
   7  -3   5  492.54   29.61
  -7  -3  -5  482.99   28.66
  -9  -3  -5   84.17   12.38
 -11   3  -5   65.30   11.46
 -11   3  -5   47.60   10.54
 -11  -3  -5   47.67   11.10
 -13  -3  -5    4.06    7.58
 -13   3  -5   12.51    7.72
 -13   3  -5   -0.12    5.73
 -15   3  -5    3.08    7.13
 -15  -3  -5    4.20    8.35
 -15   3  -5   -4.51    7.19
 -17   3  -5   11.98   11.25
 -17   3  -5   25.53   13.11
 -17  -3  -5   21.96   13.15
 -22   4   5    4.86    6.56
 -22   4   5   -4.81    7.17
 -22  -4   5   31.08    9.32
 -20  -4   5   32.00    9.44
 -20   4   5   49.13   12.41
  20   4  -5   44.77   12.38
 -20   4   5   29.41   10.64
  20  -4  -5   39.63   12.53
  18  -4  -5   45.70   11.42
  18  -4  -5   34.01    9.79
  18   4  -5   27.09    9.92
 -18  -4   5   30.96    8.60
  16  -4  -5    6.37    5.67
  16   4  -5    1.15    4.63
 -16  -4   5    5.66    4.91
  16  -4  -5    4.51    5.08
  14   4  -5  456.18   29.93
  14  -4  -5  425.45   28.58
  14  -4  -5  447.65   29.75
 -14  -4   5  411.15   26.50
 -14  -4   5  442.35   27.93
 -12  -4   5   51.36    8.82
 -12  -4   5   43.93    7.54
  12   4  -5   47.46    9.08
  12  -4  -5   54.62    9.77
  12  -4  -5   38.26    7.57
  10  -4  -5   28.45    5.86
 -10  -4   5   14.57    4.45
  10   4  -5   14.88    4.80
  10  -4  -5   19.49    5.55
 -10  -4   5   12.08    3.59
  10   4  -5   19.61    3.62
  -8  -4   5  614.93   32.69
   8  -4  -5  684.80   34.17
   8  -4  -5  714.11   33.79
   8   4  -5  614.11   33.46
   8   4  -5  700.76   30.63
   6  -4  -5  349.99   19.03
   6  -4  -5  341.91   18.47
  -6  -4   5  357.06   17.79
   6   4  -5  311.87   18.40
  -4  -4   5  144.58    7.86
   4   4  -5  145.05    9.39
   4  -4  -5  159.54    9.74
   4  -4  -5  152.48    9.50
   4   4  -5  141.97    9.49
  -2  -4   5   24.90    2.29
   2   4  -5   27.52    3.86
   2  -4  -5   27.28    4.04
   2  -4  -5   24.52    4.24
   0   4  -5  100.37    7.26
   0  -4  -5   84.84    8.25
   0  -4   5  103.96    6.67
   0  -4  -5   94.41    7.25
   2  -4   5    0.70    1.91
  -2  -4  -5    6.20    3.24
  -4  -4  -5  217.02   14.78
   4  -4   5  229.14   15.36
  -6  -4  -5   32.51    6.73
   6  -4   5   24.86    6.19
  -8  -4  -5   22.57    7.10
   8  -4   5   17.18    5.75
 -10  -4  -5   32.58    8.92
  10  -4   5   32.81    8.69
 -12   4  -5   12.72    6.59
 -12   4  -5    3.80    5.84
 -12  -4  -5   24.52    8.88
 -14   4  -5   68.42   14.19
 -14  -4  -5   64.98   14.69
 -14   4  -5   48.97   13.19
 -16  -4  -5   29.01   11.50
 -16   4  -5   19.91   11.47
 -16   4  -5   18.84   10.51
 -18   4  -5   22.00   13.83
 -18   4  -5   25.98   13.55
 -18  -4  -5    6.29   11.40
 -21   5   5   47.49   14.60
 -21  -5   5   50.53   12.62
  21  -5  -5   55.24   15.34
 -21   5   5   69.82   15.36
  19  -5  -5   12.03    8.49
 -19  -5   5   26.24    9.75
  19   5  -5   15.67    8.99
  19  -5  -5   24.05   10.08
  17  -5  -5   93.71   15.64
  17  -5  -5   59.38   12.63
  17   5  -5   71.43   14.27
 -17  -5   5   66.99   11.45
 -15  -5   5    3.45    4.16
  15  -5  -5   -0.15    3.69
  15  -5  -5   -2.36    3.84
  15   5  -5   -1.21    4.26
  13  -5  -5   39.76    7.86
 -13  -5   5   24.33    6.62
  13   5  -5   29.87    7.91
  13  -5  -5   42.36    8.95
  11   5  -5   16.62    3.93
  11   5  -5   13.68    5.05
  11  -5  -5   27.69    6.10
  11  -5  -5   13.60    5.06
 -11  -5   5   31.17    6.46
   9  -5  -5   63.19    8.63
   9   5  -5   74.92    6.71
   9  -5  -5   61.20    7.80
  -9  -5   5   71.15    8.29
   9   5  -5   58.79    8.32
   7   5  -5   31.83    5.37
   7  -5  -5   25.58    4.73
   7  -5  -5   28.77    5.55
   7   5  -5   41.56    4.73
   5  -5  -5  121.99    8.55
   5   5  -5  115.08    8.38
  -5  -5   5  113.92    7.44
   5  -5  -5  136.13    9.35
   5   5  -5  118.19    8.31
   3   5  -5   11.07    2.66
  -3  -5   5   12.10    2.05
   3  -5  -5    9.37    2.82
   3  -5  -5   11.83    3.15
   3   5  -5   10.15    2.85
   1  -5  -5   61.14    5.88
   1   5  -5   57.44    5.34
   1  -5  -5   59.08    6.55
  -1  -5   5   54.07    4.34
  -1  -5  -5   84.94    7.68
   1  -5   5   72.55    6.33
  -1   5  -5   73.09    6.34
  -3  -5  -5   30.56    5.61
   3  -5   5   28.43    5.46
  -5  -5  -5   12.54    4.40
   5  -5   5    8.39    4.00
  -7  -5  -5  112.12   12.46
   7  -5   5   99.23   12.51
  -9  -5  -5   90.81   12.82
   9  -5   5   96.15   13.56
  11  -5   5   30.69    9.04
 -11  -5  -5   24.54    7.96
 -13   5  -5   65.16   13.30
 -13   5  -5   47.66   12.26
 -13  -5  -5   65.87   13.73
 -15   5  -5   37.21   12.85
 -15  -5  -5   37.30   12.35
 -15   5  -5   37.57   12.94
 -17   5  -5   33.11   12.79
 -17   5  -5   28.94   13.61
 -17  -5  -5   26.12   12.11
 -22   6   5    3.84    7.74
 -22   6   5    4.82    8.06
 -22  -6   5    7.70    6.55
  20   6  -5   19.76   10.12
  20  -6  -5   29.15   11.19
  20  -6  -5   21.93    9.74
 -20  -6   5   36.20   10.74
  18  -6  -5   65.88   13.97
 -18  -6   5   80.97   13.89
  18   6  -5  111.89   18.38
  18  -6  -5   55.73   13.17
  16  -6  -5   45.74   10.62
  16   6  -5   48.71   11.03
  16  -6  -5   59.08   11.89
 -16  -6   5   41.66    9.39
 -14  -6   5    5.60    4.26
  14   6  -5    3.73    3.81
  14  -6  -5    7.42    5.16
  14  -6  -5    4.16    4.10
 -12  -6   5   52.72    9.28
  12   6  -5   43.94    8.97
  12  -6  -5   51.96    9.71
  12  -6  -5   59.58    9.53
  10  -6  -5    2.31    2.98
  10   6  -5    0.61    2.35
  10  -6  -5   -0.60    1.92
  10   6  -5    4.22    2.81
 -10  -6   5    0.59    2.66
   8   6  -5  149.36   11.27
   8  -6  -5  133.19   10.28
   8  -6  -5  153.08   11.81
  -8  -6   5  131.61   10.17
   8   6  -5  117.52    9.22
   6   6  -5  218.46   13.52
   6  -6  -5  192.69   13.77
   6  -6  -5  223.60   13.23
   6   6  -5  211.87   12.89
  -6  -6   5  233.25   12.72
   4  -6  -5  224.14   13.23
   4   6  -5  241.05   13.20
  -4  -6   5  239.13   12.31
   4  -6  -5  231.92   14.08
   4   6  -5  230.57   13.71
  -2  -6   5  217.71   11.06
   2   6  -5  198.06   12.90
   2  -6  -5  192.42   12.30
   2   6  -5  206.21   11.45
   2  -6  -5  214.89   12.71
   0  -6  -5   90.89    8.70
   0  -6  -5   95.49    8.09
   0   6  -5  104.70    7.30
   0  -6   5  104.69    7.23
   2  -6   5   -0.65    1.57
  -2  -6  -5    0.00    2.54
  -4  -6  -5    1.64    3.03
   4  -6   5    1.36    2.76
   6  -6   5   68.71    9.75
  -6  -6  -5   58.57    9.22
  -8  -6  -5   45.16    8.67
   8  -6   5   38.28    8.76
  10  -6   5   88.34   13.79
 -10  -6  -5   99.27   14.04
 -12  -6  -5   27.69    9.13
  12  -6   5   28.04    9.23
 -14  -6  -5   14.67    9.38
 -14   6  -5   15.40    8.70
 -14   6  -5    9.15    8.46
 -16   6  -5   16.71   11.29
 -16   6  -5   13.56   10.72
 -16  -6  -5   16.66   11.12
  21  -7  -5    3.89    8.24
  21  -7  -5    8.11    9.55
 -21  -7   5   -2.81    5.20
  19   7  -5   -0.60    6.84
 -19  -7   5    3.69    6.24
  19  -7  -5   -0.82    6.10
  19  -7  -5   11.48    7.22
  17  -7  -5   -1.53    5.74
  17  -7  -5   19.73    8.11
 -17  -7   5   14.87    5.82
  17   7  -5   26.90    8.94
 -15  -7   5   63.12   10.82
  15   7  -5   31.60    9.47
  15  -7  -5   42.83    9.68
  15  -7  -5   59.76   11.61
  13  -7  -5  185.17   15.87
  13   7  -5  201.42   18.81
  13  -7  -5  182.12   18.30
 -13  -7   5  178.39   15.64
  11  -7  -5  852.00   45.65
 -11  -7   5  891.50   44.46
  11  -7  -5  843.07   43.98
  11   7  -5  888.78   45.86
  11   7  -5  848.10   41.03
   9   7  -5  522.16   26.66
   9   7  -5  503.78   28.94
  -9  -7   5  543.58   28.44
   9  -7  -5  541.85   28.24
   9  -7  -5  512.37   29.62
   7   7  -5 1463.38   68.69
   7  -7  -5 1641.57   71.04
   7  -7  -5 1686.98   72.96
   7   7  -5 1570.93   71.67
   5   7  -5  135.12    9.90
   5  -7  -5  153.00   11.09
  -5  -7   5  150.00    9.34
   5   7  -5  147.00    9.92
   3  -7  -5    2.82    1.97
   3   7  -5   -1.11    1.27
  -3  -7   5    1.78    1.96
   3   7  -5   -0.59    1.51
   3  -7  -5    2.80    2.43
  -1  -7   5    0.95    1.51
   1  -7  -5   -0.34    2.40
   1  -7  -5   -2.78    2.00
   1   7  -5   -1.92    1.76
   1   7  -5   -0.74    1.44
  -1   7  -5    1.97    2.48
  -1   7  -5    6.42    2.31
   1  -7   5    6.26    2.32
  -1  -7  -5    2.12    3.05
   3  -7   5  327.42   19.24
  -3  -7  -5  320.57   19.36
  -5  -7  -5  521.52   29.22
   5  -7   5  522.01   29.50
  -7  -7  -5  680.23   37.88
   7  -7   5  702.40   38.78
   9  -7   5  343.18   25.02
  -9  -7  -5  344.40   24.73
  11  -7   5   48.89   10.87
 -11  -7  -5   29.52    8.91
 -13  -7  -5   11.60    7.93
  13  -7   5    9.30    6.45
 -15   7  -5   -0.84    8.13
 -15  -7  -5   -3.08    7.48
 -15   7  -5   17.02    9.57
 -17  -7  -5    6.95   10.55
 -17   7  -5   -7.08    9.63
 -17   7  -5   -4.42   10.66
  20  -8  -5   37.98   12.58
  20  -8  -5   15.34    9.83
 -20  -8   5   32.19    9.46
  20   8  -5   12.66    8.68
  18  -8  -5   26.49   10.18
  18   8  -5   51.08   13.54
 -18  -8   5   59.68   11.99
  18  -8  -5   31.29   10.08
  16  -8  -5   17.84    7.67
  16  -8  -5    6.07    5.70
  16   8  -5   24.15    8.70
 -16  -8   5   26.21    7.53
  14   8  -5   10.87    6.19
  14  -8  -5    1.32    4.08
 -14  -8   5    3.84    3.86
  14  -8  -5   14.70    6.27
  12   8  -5    3.35    3.49
  12  -8  -5    6.00    4.61
 -12  -8   5   -2.16    3.10
  12  -8  -5   -0.08    2.67
  12   8  -5   -0.83    2.49
 -10  -8   5   35.19    6.55
  10  -8  -5   46.27    8.50
  10  -8  -5   38.97    6.81
  10   8  -5   32.45    7.07
  10   8  -5   47.55    6.79
   8  -8  -5    6.52    2.73
  -8  -8   5   14.80    4.09
   8   8  -5   24.57    5.21
   8  -8  -5   22.99    5.80
   6   8  -5  175.32   11.75
   6   8  -5  162.24   11.55
   6  -8  -5  190.38   13.29
   4   8  -5   76.62    7.77
   4  -8  -5   70.70    7.89
   4   8  -5   70.20    6.02
  -4  -8   5   77.96    6.13
  -2  -8   5   59.71    5.77
   2  -8  -5   71.15    7.41
   2   8  -5   64.84    5.13
   2   8  -5   73.24    7.75
   0  -8  -5   31.30    5.68
   0  -8  -5   40.64    6.01
   0  -8   5   34.53    4.91
   0   8  -5   40.13    6.25
   0   8  -5   42.69    4.41
  -2  -8  -5    1.72    2.93
  -2   8  -5    0.87    2.33
   2  -8   5    3.53    2.51
  -2   8  -5    3.28    2.25
  -4   8  -5   10.33    3.72
   4  -8   5    9.95    4.00
  -4  -8  -5   15.39    5.00
   6  -8   5   56.80    9.53
  -6   8  -5   53.53    7.95
  -6  -8  -5   68.27    9.87
  -8   8  -5   31.95    6.72
  -8  -8  -5   19.88    7.33
   8  -8   5   23.57    7.04
 -10  -8  -5   -4.46    4.71
  10  -8   5   -3.60    4.22
  12  -8   5   31.70    8.64
 -12  -8  -5   41.71   11.09
  14  -8   5   10.33    7.69
 -14  -8  -5   10.43    8.37
 -16   8  -5    2.45   11.15
 -16  -8  -5   12.34   10.26
 -16   8  -5   -1.04    9.76
  21  -9  -5    8.06    9.86
 -21  -9   5    5.31    6.36
  19   9  -5    1.97    8.68
 -19  -9   5    1.27    6.41
  19  -9  -5    4.00    6.43
  19  -9  -5   -1.20    6.32
 -17  -9   5    2.11    5.48
  17  -9  -5   -6.11    4.99
  17   9  -5    0.37    5.72
  17  -9  -5    2.94    5.78
  15   9  -5   25.18    9.12
 -15  -9   5   40.51    8.79
  15  -9  -5   30.97    8.71
  15  -9  -5   25.79    7.98
  13  -9  -5    2.54    3.28
  13  -9  -5   -2.08    3.78
 -13  -9   5    0.96    4.12
  13   9  -5   13.88    5.83
  11   9  -5   41.69    7.03
 -11  -9   5   36.08    6.86
  11   9  -5   44.52    8.72
  11  -9  -5   15.45    5.59
  11  -9  -5   38.94    7.00
   9   9  -5    0.96    3.01
   9   9  -5   -1.54    1.73
   9  -9  -5   -0.24    1.46
   9  -9  -5   -0.82    3.17
  -9  -9   5    5.05    2.97
   7   9  -5   43.48    6.48
   7  -9  -5   39.15    5.50
  -7  -9   5   20.33    4.36
   7   9  -5   40.30    6.19
   7  -9  -5   39.84    7.16
  -5  -9   5  293.64   17.91
   5   9  -5  369.08   18.80
   5  -9  -5  373.13   20.83
   5   9  -5  370.20   19.70
   5  -9  -5  332.72   18.00
   3  -9  -5   77.29    8.25
   3  -9  -5   79.05    6.59
  -3  -9   5   67.08    6.48
   3   9  -5   78.35    8.22
   3   9  -5   71.52    5.81
   1  -9  -5    6.86    3.61
  -1  -9   5    3.47    2.36
   1  -9  -5    1.80    2.12
   1   9  -5    5.35    3.00
   1   9  -5    3.45    1.67
  -1   9  -5   26.34    5.31
  -1  -9  -5   17.62    4.84
  -1   9  -5   31.64    4.01
  -3  -9  -5    3.61    3.76
  -3   9  -5    7.07    2.75
  -3   9  -5    9.63    3.85
   3  -9   5   14.82    4.39
   5  -9   5  140.26   13.22
  -5   9  -5  125.26   11.75
  -5  -9  -5  145.52   13.60
  -7  -9  -5  194.62   16.34
  -7   9  -5  204.46   14.65
   7  -9   5  177.53   17.02
   9  -9   5   23.69    6.35
  -9   9  -5   16.97    5.58
  -9  -9  -5    9.88    6.24
 -11  -9  -5    3.51    5.67
  11  -9   5    7.66    5.96
  13  -9   5    3.08    5.69
 -13  -9  -5    7.56    8.08
  15  -9   5    5.59    6.66
 -15  -9  -5   -6.77    8.12
 -17   9  -5   18.61   13.56
 -17   9  -5    6.45   13.29
 -17  -9  -5    2.99   10.42
 -20 -10   5   23.59    9.24
  20 -10  -5   27.81   10.95
  18  10  -5  119.51   19.80
  18 -10  -5  115.44   18.45
  18 -10  -5   85.59   15.28
 -18 -10   5  128.05   18.18
  16 -10  -5   58.35   13.03
  16 -10  -5   83.28   13.72
 -16 -10   5   28.14    8.36
  16  10  -5   54.78   12.55
  14 -10  -5   27.73    8.34
 -14 -10   5   32.73    7.58
  14 -10  -5   45.78    9.32
  14  10  -5   63.99   11.99
  12  10  -5    4.85    3.24
  12 -10  -5   11.40    4.57
  12 -10  -5   10.57    5.56
 -12 -10   5   10.50    4.74
  12  10  -5   -0.76    3.24
 -10 -10   5    5.95    3.73
  10 -10  -5    3.14    1.96
  10  10  -5    3.63    3.08
  10  10  -5    1.05    1.69
  10 -10  -5    0.94    3.69
  -8 -10   5  147.90   11.11
   8 -10  -5  138.63   10.42
   8 -10  -5  136.53   13.45
   8  10  -5  131.10   10.81
   8  10  -5  128.85   11.24
   6 -10  -5   80.28    9.74
   6 -10  -5   91.96    7.42
   6  10  -5   91.47    9.25
   6  10  -5   93.96    8.84
   4  10  -5  619.58   29.60
   4 -10  -5  586.46   30.04
   4  10  -5  578.68   27.35
   4 -10  -5  577.20   27.40
  -4 -10   5  469.32   27.39
   2 -10  -5  518.40   25.76
   2 -10  -5  490.19   27.22
   2  10  -5  506.51   23.95
   2  10  -5  516.89   27.13
  -2 -10   5  517.82   25.86
   0  10  -5  115.12   10.90
   0 -10  -5  118.26   11.07
   0  10  -5  137.53    7.98
  -2 -10  -5  323.00   20.63
  -2  10  -5  338.72   20.22
  -2  10  -5  365.19   17.73
   2 -10   5  313.28   19.63
  -4 -10  -5   61.10    9.27
   4 -10   5   48.93    8.01
  -4  10  -5   54.22    7.91
   6 -10   5   -3.73    2.88
  -6 -10  -5    2.45    4.52
  -6  10  -5    3.50    3.29
   8 -10   5   -4.05    3.23
  -8  10  -5    3.41    3.54
  -8 -10  -5    3.66    4.84
  10 -10   5   27.99    8.57
 -10 -10  -5   24.00    8.76
 -12 -10  -5   -5.84    5.61
  12 -10   5   -1.42    4.79
  14 -10   5   34.57    9.96
 -14 -10  -5   40.59   12.56
  16 -10   5   35.02   11.16
 -16 -10  -5   52.37   15.81
  21 -11  -5   -4.76    8.60
 -21 -11   5    9.66    6.37
  19 -11  -5    5.95    6.97
 -19 -11   5    4.90    6.49
  17 -11  -5    0.36    5.71
  17  11  -5    4.17    6.84
  17 -11  -5   -2.84    5.66
 -17 -11   5    4.16    5.56
 -15 -11   5   -4.05    4.34
  15 -11  -5   -0.01    4.74
  15  11  -5    0.93    4.71
  15 -11  -5    2.68    4.61
  13  11  -5   32.29    8.34
  13 -11  -5   34.28    8.34
 -13 -11   5   42.97    8.64
 -11 -11   5  193.58   15.13
  11 -11  -5  175.24   14.03
  11 -11  -5  197.19   16.85
  11  11  -5  186.82   14.57
  11  11  -5  177.07   15.75
   9 -11  -5  473.53   28.37
   9 -11  -5  437.88   24.48
   9  11  -5  404.29   25.90
  -9 -11   5  458.73   25.58
   9  11  -5  458.09   25.83
   7 -11  -5  217.50   13.17
  -7 -11   5  189.72   13.39
   7 -11  -5  193.33   15.55
   7  11  -5  195.79   14.06
   7  11  -5  213.26   14.59
   5 -11  -5    7.26    4.05
   5 -11  -5    6.03    2.37
   5  11  -5    6.51    2.97
  -5 -11   5    0.28    1.55
   5  11  -5    4.84    2.77
   3  11  -5    3.11    1.79
   3  11  -5    7.68    2.83
  -3 -11   5    1.27    1.88
   3 -11  -5    5.43    3.41
   3 -11  -5    2.20    2.28
   1 -11  -5    7.65    3.39
   1  11  -5    8.63    3.67
   1  11  -5    7.68    2.30
   1 -11  -5    4.31    3.36
  -1 -11   5   -0.61    1.73
  -1 -11  -5   61.28    8.55
   1 -11   5   69.86    8.01
  -1  11  -5   51.70    4.72
  -1  11  -5   65.25    8.44
  -3  11  -5   20.54    3.97
  -3 -11  -5   23.74    6.25
   3 -11   5   17.81    4.93
  -3  11  -5   12.78    4.39
   5 -11   5  352.30   22.43
  -5 -11  -5  360.87   22.99
  -5  11  -5  313.04   20.38
  -7 -11  -5  160.98   16.34
   7 -11   5  202.28   16.34
  -7  11  -5  162.28   13.50
  -9 -11  -5   18.70    8.07
   9 -11   5   25.20    7.50
  11 -11   5   54.20   11.36
 -11 -11  -5   60.56   12.49
  13 -11   5   12.45    7.16
 -13 -11  -5   14.91    8.96
  15 -11   5    6.88    7.44
 -15 -11  -5   47.19   14.11
 -20 -12   5    0.93    7.05
  20 -12  -5   -1.57    7.93
  18 -12  -5    5.94    6.26
  18  12  -5    6.08    7.14
 -18 -12   5   -1.08    5.78
 -16 -12   5   -0.73    5.00
  16  12  -5    6.93    6.76
  16 -12  -5    6.31    5.54
  14 -12  -5   20.03    7.17
  14 -12  -5    0.04    3.66
 -14 -12   5   18.97    6.93
  14  12  -5    9.95    6.17
  12  12  -5   14.50    5.80
  12  12  -5    9.29    4.32
  12 -12  -5   23.01    7.23
 -12 -12   5   18.38    5.44
  12 -12  -5   11.46    4.25
  10  12  -5  142.03   13.19
  10 -12  -5  105.29   13.67
  10  12  -5  162.54   14.80
  10 -12  -5  106.00   10.85
 -10 -12   5  110.84   11.92
   8 -12  -5   98.57   12.60
   8  12  -5  102.53   10.81
   8  12  -5  102.61   11.10
   8 -12  -5   97.03    8.60
  -8 -12   5  115.20   10.77
   6 -12  -5    9.54    4.74
   6  12  -5    6.95    3.13
  -6 -12   5   12.54    3.67
   6 -12  -5    9.42    3.00
   6  12  -5   12.03    3.84
   4 -12  -5   20.44    3.88
   4  12  -5   22.20    4.26
   4 -12  -5   25.56    6.01
   4  12  -5   27.46    5.74
   2 -12  -5   86.61   10.42
   2 -12  -5   89.03    8.00
   2  12  -5  111.19    7.12
   2  12  -5   99.62   10.73
   0  12  -5   17.06    2.72
   0 -12  -5   13.56    5.43
   0 -12  -5   20.78    4.77
   0 -12   5   18.52    4.60
   0  12  -5   17.15    4.93
  -2 -12  -5    9.05    4.35
  -2  12  -5    5.07    3.40
  -2  12  -5    6.30    2.36
   2 -12   5    0.65    2.71
  -4  12  -5  134.88   12.78
  -4 -12  -5  156.17   14.88
   4 -12   5  139.05   13.51
  -6 -12  -5  125.60   14.38
   6 -12   5  137.35   14.16
  -6  12  -5  130.98   12.57
   8 -12   5   32.88    7.65
  -8 -12  -5   16.80    7.00
  -8  12  -5   40.26    7.82
  10 -12   5  146.05   17.62
 -10 -12  -5  114.87   16.26
  12 -12   5   22.17    8.08
 -12 -12  -5   25.20    9.58
  14 -12   5   -1.30    6.50
 -14 -12  -5   -6.48    6.80
  16 -12   5    6.14    6.32
 -16 -12  -5    4.01   10.15
 -19 -13   5   23.22    8.64
  19 -13  -5   29.29   10.72
  17 -13  -5    2.55    6.96
 -17 -13   5    1.53    6.69
  17  13  -5    6.97    7.07
 -15 -13   5   56.16   10.88
  15  13  -5   55.94   12.64
  15 -13  -5   46.89   11.75
 -13 -13   5    3.69    4.34
  13  13  -5    7.04    5.51
  13 -13  -5    2.68    4.72
  11 -13  -5   12.16    5.91
  11 -13  -5   15.63    4.94
  11  13  -5   11.58    5.30
  11  13  -5   18.90    5.60
 -11 -13   5   12.29    5.18
  -9 -13   5  130.95   12.07
   9  13  -5  160.48   13.49
   9 -13  -5  154.46   11.53
   9  13  -5  151.85   13.44
   9 -13  -5  182.33   16.76
   7  13  -5   68.74    9.62
   7  13  -5   86.40    9.42
  -7 -13   5   84.97    9.32
   7 -13  -5   96.43   11.88
   7 -13  -5   74.50    7.42
   5  13  -5  107.58   11.37
  -5 -13   5  100.95    8.99
   5 -13  -5  106.84    7.94
   5  13  -5  100.92    8.60
   5 -13  -5   86.12   11.38
  -3 -13   5   12.47    3.95
   3  13  -5   15.39    4.56
   3  13  -5   10.18    2.79
   3 -13  -5   16.20    5.18
   3 -13  -5   14.91    3.88
   1 -13  -5  161.99   11.42
   1  13  -5  159.92    8.88
  -1 -13   5  146.31   11.63
   1 -13  -5  140.83   12.75
   1  13  -5  149.39   12.68
  -1 -13  -5    6.59    3.35
  -1 -13  -5    2.16    3.88
   1 -13   5    6.78    3.20
  -1  13  -5    3.81    3.24
  -3 -13  -5   44.76    8.78
  -3  13  -5   41.21    7.59
   3 -13   5   30.13    6.52
   5 -13   5   38.28    8.02
  -5  13  -5   48.89    8.07
  -5 -13  -5   32.18    7.65
  -7 -13  -5  135.87   15.54
  -7  13  -5  134.81   13.05
   7 -13   5  112.17   14.37
  -9 -13  -5   53.98   11.08
   9 -13   5   55.79   11.04
  11 -13   5   14.80    6.48
 -11 -13  -5    8.33    7.30
 -13 -13  -5    0.91    6.36
  13 -13   5   -2.87    6.61
 -15 -13  -5    6.66   10.17
  15 -13   5   12.63    8.12
  20 -14  -5   49.57   15.31
 -20 -14   5   36.47   10.93
  18 -14  -5    2.46    6.71
 -18 -14   5   12.87    6.91
  16 -14  -5   20.95    8.45
 -16 -14   5    7.24    6.43
  16  14  -5    7.36    7.75
  14 -14  -5   -0.85    4.36
 -14 -14   5    1.83    4.38
  14  14  -5    2.63    5.43
  12 -14  -5   11.22    5.39
 -12 -14   5   16.47    5.84
  12  14  -5    2.97    5.03
  12  14  -5    5.74    4.56
 -10 -14   5   16.26    4.69
  10 -14  -5   27.06    6.97
  10  14  -5   19.17    6.02
  10  14  -5   23.35    5.86
   8 -14  -5   15.09    6.02
   8  14  -5   12.91    4.61
   8  14  -5    8.58    4.38
  -8 -14   5    9.42    4.21
   6  14  -5    4.76    3.15
   6 -14  -5    2.84    2.30
  -6 -14   5    0.79    2.74
   6 -14  -5    7.85    4.73
   6  14  -5   -0.52    2.13
   4  14  -5   50.08    5.94
  -4 -14   5   45.04    7.04
   4 -14  -5   45.38    8.52
   4 -14  -5   50.33    5.60
   4  14  -5   32.70    6.96
   2 -14  -5   -1.17    2.57
   2 -14  -5   -1.55    3.32
  -2 -14   5   -1.06    1.99
   2  14  -5    2.84    3.35
   0 -14  -5  109.38    9.46
   0 -14  -5   93.55   11.70
   0 -14   5  111.70   11.01
   0  14  -5   86.91   10.98
  -2 -14  -5   -0.07    3.48
   2 -14   5    8.92    4.06
  -2  14  -5    3.76    3.77
  -4  14  -5   41.64    7.80
  -4 -14  -5   24.32    6.97
   4 -14   5   38.22    7.80
  -6  14  -5    4.40    4.45
   6 -14   5    3.88    3.86
  -6 -14  -5    5.71    5.17
   8 -14   5   42.20    9.25
  -8  14  -5   46.47    8.44
  -8 -14  -5   32.20    9.08
 -10 -14  -5   14.06    7.95
  10 -14   5    8.01    6.40
 -12 -14  -5    2.10    6.45
  12 -14   5    5.75    7.07
 -14 -14  -5   52.24   13.52
  14 -14   5   57.19   13.56
 -16 -14  -5   32.37   14.53
  19 -15  -5   48.48   13.80
 -19 -15   5   42.34   11.40
 -17 -15   5   89.20   15.16
  17 -15  -5   75.10   15.61
 -15 -15   5   20.64    7.33
  15 -15  -5   29.16    9.97
  15  15  -5   16.24    8.07
  13 -15  -5    8.91    5.78
 -13 -15   5    5.83    4.88
  13  15  -5    8.85    5.91
  11 -15  -5   53.98   10.67
  11  15  -5   55.53   10.37
  11  15  -5   68.39   10.90
 -11 -15   5   56.33    9.81
   9  15  -5    6.26    3.81
  -9 -15   5    2.64    3.44
   9  15  -5    3.77    4.19
   9 -15  -5    0.83    3.06
   7 -15  -5   33.45    8.02
   7  15  -5   13.35    5.11
   7  15  -5   19.34    5.35
  -7 -15   5   24.91    5.46
   5 -15  -5  105.19   12.90
   5  15  -5  102.83   11.99
  -5 -15   5  115.16   11.20
   5  15  -5   98.78    9.17
   3 -15  -5  469.78   22.63
   3  15  -5  370.10   25.29
   3 -15  -5  443.79   26.84
  -3 -15   5  440.32   25.40
   1  15  -5  264.18   18.63
  -1 -15   5  255.93   17.61
   1 -15  -5  256.01   15.77
   1 -15  -5  261.05   18.68
   1 -15   5  176.37   14.31
  -1 -15  -5  169.25   13.02
  -1  15  -5  188.11   15.01
  -1 -15  -5  193.79   16.07
  -3 -15  -5    0.74    3.71
   3 -15   5    4.34    3.41
  -3  15  -5    1.92    3.42
  -5  15  -5    5.51    4.40
  -5 -15  -5   -0.49    4.19
   5 -15   5   10.86    4.67
  -7 -15  -5    5.78    5.36
  -7  15  -5   -2.50    3.80
   7 -15   5    3.68    4.59
   9 -15   5   23.29    8.14
  -9 -15  -5   52.53   11.38
 -11 -15  -5   -0.88    6.42
  11 -15   5   -5.56    5.37
  13 -15   5   21.05    9.40
 -13 -15  -5   13.00    9.67
  15 -15   5   42.40   11.17
 -15 -15  -5   22.30   12.90
 -18 -16   5   14.24    8.06
  18 -16  -5   11.61   10.13
  16 -16  -5   10.16    7.88
 -16 -16   5   15.00    8.10
  14 -16  -5   83.87   15.52
  14  16  -5  103.74   16.07
 -14 -16   5   84.21   13.51
 -12 -16   5  121.41   14.59
  12  16  -5   80.34   12.41
  12 -16  -5   68.65   13.04
  12  16  -5   79.32   13.14
 -10 -16   5   79.65   11.58
  10  16  -5   73.59   11.39
  10 -16  -5   82.78   13.56
  10  16  -5  105.87   13.46
  -8 -16   5  132.29   13.68
   8 -16  -5  178.02   17.50
   8  16  -5  143.60   15.42
   8  16  -5  137.46   12.27
   6  16  -5  152.49   15.71
   6 -16  -5  211.78   16.66
  -6 -16   5  173.46   14.14
  -4 -16   5   11.42    4.33
   4  16  -5    4.36    3.34
   4 -16  -5    7.76    4.79
  -2 -16   5    9.71    4.04
   2 -16  -5    6.94    5.04
   2  16  -5    4.57    3.79
   0 -16  -5    8.54    3.55
   0 -16   5   13.92    4.80
   0  16  -5   13.01    5.06
   0 -16  -5   11.71    5.48
   2 -16   5   -2.38    3.12
  -2  16  -5   -2.66    3.02
  -2 -16  -5    6.14    4.38
  -4 -16  -5   95.96   13.80
   4 -16   5  131.93   14.33
  -4  16  -5  115.28   12.84
  -6 -16  -5   71.05   12.35
   6 -16   5   94.17   13.24
  -6  16  -5  111.59   12.71
  -8  16  -5  130.25   14.05
  -8 -16  -5   90.10   14.86
   8 -16   5  128.17   16.16
  10 -16   5   36.72    9.41
 -10 -16  -5   31.22   10.03
 -12 -16  -5   21.65    9.99
  12 -16   5    8.87    7.10
 -14 -16  -5   12.72   10.43
  14 -16   5  -12.73    5.17
 -19 -17   5    4.70    7.84
  19 -17  -5   12.03   11.08
  17 -17  -5   -5.39    6.86
 -17 -17   5   -3.65    5.82
 -15 -17   5    7.20    6.76
  15 -17  -5   11.74    8.12
  13  17  -5   -1.49    4.68
 -13 -17   5    0.24    4.59
  13 -17  -5   10.17    6.62
  11 -17  -5   48.73   11.09
  11  17  -5   27.12    8.04
  11  17  -5   26.21    7.38
 -11 -17   5   29.16    7.65
  -9 -17   5    8.35    4.44
   9 -17  -5   -2.27    3.04
   9  17  -5    1.88    3.90
   9  17  -5   -3.38    3.49
   7  17  -5    4.75    3.82
   7 -17  -5    1.36    3.79
  -7 -17   5   11.08    3.89
   5 -17  -5    9.52    4.89
   5  17  -5    1.77    3.79
  -5 -17   5    3.76    3.75
   3 -17  -5    1.99    3.40
  -3 -17   5   -1.57    3.03
   3  17  -5    0.72    3.00
  -1 -17   5   21.11    5.72
   1  17  -5   18.30    6.00
   1 -17  -5   23.01    6.55
   1 -17   5    7.48    4.16
  -1 -17  -5    7.67    4.53
  -1 -17  -5   23.64    5.50
  -1  17  -5   13.06    5.21
   3 -17   5   30.14    7.40
  -3  17  -5   68.40   10.40
  -3 -17  -5   71.54   11.29
   5 -17   5   -3.22    3.44
  -5  17  -5   -3.93    3.24
  -5 -17  -5   -2.22    4.89
   7 -17   5   20.41    7.11
  -7  17  -5   12.83    6.05
  -7 -17  -5   13.80    6.58
  -9 -17  -5    4.83    7.28
   9 -17   5   -2.70    5.43
 -11 -17  -5    2.63    6.60
  11 -17   5    4.05    6.13
 -13 -17  -5   11.17    9.44
  13 -17   5   -0.15    6.21
 -18 -18   5    7.79    6.31
  18 -18  -5   12.60    9.75
 -16 -18   5   11.25    7.80
  16 -18  -5   -3.52    5.63
 -14 -18   5   29.09    9.22
  14 -18  -5   39.66   11.14
  12 -18  -5   20.94    7.74
  12  18  -5   40.32    9.34
 -12 -18   5   42.03   10.01
  12  18  -5   36.24    9.88
 -10 -18   5   48.29    9.43
  10  18  -5   67.45   12.16
  10 -18  -5   40.82   10.04
   8  18  -5   32.28    8.18
  -8 -18   5   35.00    7.80
   8 -18  -5   27.43    8.10
   6 -18  -5   36.52    8.32
  -6 -18   5   30.68    7.28
   6  18  -5   28.37    7.61
   4 -18  -5   64.34   10.71
   4  18  -5   82.77   12.33
  -4 -18   5   84.51   10.91
  -2 -18   5    4.03    2.88
   2  18  -5   -1.45    3.47
   2 -18  -5    5.84    3.69
   0 -18   5    5.05    4.16
   0 -18  -5    8.33    4.13
   0  18  -5   11.74    5.62
  -2 -18  -5   42.45    9.41
   2 -18   5   70.78   11.03
  -2  18  -5   57.14   10.30
  -4  18  -5   74.64   11.56
   4 -18   5   98.42   13.06
  -4 -18  -5   43.82    9.78
  -6 -18  -5   13.12    5.95
  -6  18  -5   17.93    6.50
   6 -18   5    4.22    4.88
   8 -18   5   17.90    6.65
  -8  18  -5   21.15    7.52
  -8 -18  -5   22.45    8.89
 -10 -18  -5   11.63    8.08
  10 -18   5    6.63    6.51
 -12 -18  -5   -8.95    7.03
  12 -18   5    6.42    6.09
  14 -18   5    9.16    6.96
 -14 -18  -5    1.11   10.69
  17 -19  -5    7.25    8.77
 -17 -19   5    6.57    7.72
 -15 -19   5   36.56    9.78
  15 -19  -5   18.44    9.73
  13 -19  -5   -3.30    5.59
 -13 -19   5   12.03    6.19
 -11 -19   5   10.58    5.92
  11 -19  -5   12.89    6.99
  11  19  -5    9.29    5.93
   9  19  -5   21.10    7.23
  -9 -19   5   35.89    8.33
   9 -19  -5   20.89    8.20
  -7 -19   5    5.89    3.92
   7 -19  -5    8.44    4.79
   7  19  -5   -0.76    3.86
   5  19  -5    6.58    5.19
  -5 -19   5   10.26    4.49
   5 -19  -5   23.09    6.86
   3 -19  -5  111.23   14.18
  -3 -19   5   94.11   11.96
   3  19  -5  152.38   16.14
   1  19  -5  261.84   20.07
  -1 -19   5  222.56   17.97
   1 -19  -5  214.33   18.67
  -1  19  -5  133.44   15.95
  -1 -19  -5  171.39   17.68
   1 -19   5  159.37   16.00
   3 -19   5   17.06    6.12
  -3  19  -5   17.49    6.93
  -3 -19  -5   14.41    6.32
  -5  19  -5    8.07    5.98
  -5 -19  -5   16.66    6.48
   5 -19   5    3.31    5.51
  -7  19  -5    0.72    5.28
  -7 -19  -5   24.45    8.30
   7 -19   5    6.67    5.18
  -9 -19  -5   -0.63    6.07
   9 -19   5   -0.26    5.67
  11 -19   5   39.24   11.65
 -11 -19  -5   12.91    9.35
  13 -19   5   12.39    8.09
 -13 -19  -5   12.58   10.22
  16 -20  -5   21.98   10.33
 -16 -20   5    0.35    5.93
 -14 -20   5    9.60    7.55
  14 -20  -5    0.87    7.18
  12 -20  -5   29.50   10.19
  12  20  -5   40.99    9.63
 -12 -20   5   20.18    7.58
  10 -20  -5   43.88   10.70
 -10 -20   5   41.91    9.09
  10  20  -5   63.78   11.95
  -8 -20   5   27.81    7.40
   8 -20  -5   51.33   10.48
   8  20  -5   31.09    8.45
   6 -20  -5   -2.60    3.13
  -6 -20   5    4.65    4.40
   6  20  -5   -3.61    3.09
   4  20  -5    5.94    5.27
  -4 -20   5   21.66    5.97
   4 -20  -5   25.91    7.35
   2  20  -5   48.19   10.26
   2 -20  -5   42.88    9.38
  -2 -20   5   65.56   10.20
   0 -20   5    6.63    4.74
   0 -20  -5   10.27    5.18
   0  20  -5    8.46    5.04
   2 -20   5    3.45    4.87
  -2  20  -5    6.18    5.05
  -2 -20  -5   -2.13    3.41
  -4  20  -5    0.60    4.83
   4 -20   5    3.42    4.33
  -4 -20  -5    4.36    4.67
  -6 -20  -5    2.83    5.42
   6 -20   5   16.82    7.22
  -6  20  -5   12.71    6.46
   8 -20   5   14.81    7.01
  -8 -20  -5   20.65    8.62
  10 -20   5    6.73    7.12
 -10 -20  -5   -1.99    6.27
 -12 -20  -5   -6.18    8.95
  12 -20   5    9.12    7.99
 -15 -21   5   17.94    7.72
  15 -21  -5   12.49    8.84
 -13 -21   5   -0.11    5.82
  13 -21  -5   18.09    8.17
  11  21  -5   40.74   10.12
  11 -21  -5   35.75   10.53
 -11 -21   5   44.56    9.69
   9 -21  -5   16.97    8.13
  -9 -21   5   18.72    6.63
   9  21  -5   23.10    8.47
   7 -21  -5    0.41    4.28
  -7 -21   5   10.50    5.27
   7  21  -5    8.55    5.55
  -5 -21   5   21.39    6.84
   5  21  -5    1.31    4.30
   5 -21  -5    3.97    4.51
  -3 -21   5   -1.34    3.57
   3 -21  -5    2.47    4.01
   3  21  -5    4.67    5.51
   1 -21  -5    4.84    4.30
  -1 -21   5   24.78    6.63
   1  21  -5   12.76    6.01
  -1 -21  -5   -0.27    3.92
  -1  21  -5    3.98    4.94
   1 -21   5   -5.52    3.24
  -3  21  -5    7.41    5.62
  -3 -21  -5   10.56    6.43
   3 -21   5    7.73    5.43
  -5 -21  -5   19.83    7.62
  -5  21  -5   16.15    7.47
   5 -21   5   12.97    7.26
   7 -21   5   19.95    8.38
  -7 -21  -5   24.79    9.28
  -7  21  -5   19.04    8.03
  -9 -21  -5   24.84    9.12
   9 -21   5   19.44    8.67
 -11 -21  -5    6.01    9.03
  11 -21   5    6.49    7.58
 -16 -22   5    4.40    7.23
  16 -22  -5   13.17   10.59
 -14 -22   5   -1.55    7.07
  14 -22  -5   -6.12    6.03
 -12 -22   5   26.86    8.86
  12 -22  -5   14.53    7.93
 -10 -22   5   37.97    9.39
  10 -22  -5   52.46   12.33
  10  22  -5   36.86    9.88
   8 -22  -5   31.04    9.41
  -8 -22   5   37.05    8.68
   8  22  -5   31.60    9.12
   6 -22  -5    4.90    4.84
   6  22  -5   -3.92    3.80
  -6 -22   5   -0.09    4.16
   4  22  -5    5.90    4.98
  -4 -22   5    1.43    4.41
   4 -22  -5   11.46    5.90
   2 -22  -5   -1.20    4.17
  -2 -22   5   -1.80    3.62
   2  22  -5   -1.03    4.72
   0  22  -5   25.88    8.29
   0 -22   5   17.28    6.42
   0 -22  -5   33.16    8.60
  -2 -22  -5   -6.76    3.70
  -2  22  -5    4.57    5.41
   2 -22   5    0.60    5.00
   4 -22   5    5.05    4.53
  -4 -22  -5   10.65    6.40
  -4  22  -5    2.77    5.53
   6 -22   5   24.36    8.38
  -6  22  -5   29.05    9.24
  -6 -22  -5   17.88    8.09
   8 -22   5   14.42    7.61
  -8 -22  -5    9.79    7.19
 -10 -22  -5   18.57   10.53
  10 -22   5   20.84    9.52
 -12 -22  -5   11.65   11.74
  12 -22   5   -6.58    6.99
 -15 -23   5   13.18    7.46
  15 -23  -5   -1.51    8.19
 -13 -23   5    0.76    5.97
  13 -23  -5    3.35    7.74
  11  23  -5   18.11    7.63
  11 -23  -5   25.93    9.46
 -11 -23   5   24.56    8.67
   9  23  -5    5.16    6.95
   9 -23  -5   15.48    7.58
  -9 -23   5    7.24    5.74
   7  23  -5    1.24    5.35
   7 -23  -5   21.55    8.60
  -7 -23   5   10.08    5.73
  -5 -23   5   -2.59    4.41
   5  23  -5   -4.13    4.51
   5 -23  -5    6.11    5.56
   3 -23  -5   22.62    7.12
   3  23  -5   33.50    9.57
  -3 -23   5   23.74    6.73
   1 -23  -5   26.91    7.82
   1  23  -5    7.41    6.22
  -1 -23   5    7.28    5.72
   1 -23   5    1.11    3.88
  -1  23  -5   -3.53    5.27
  -1 -23  -5   -0.90    4.62
   3 -23   5   -2.16    5.20
  -3  23  -5   12.15    6.57
  -3 -23  -5   -7.17    4.46
  -5 -23  -5   -1.75    6.21
   5 -23   5    0.75    6.14
  -5  23  -5   -1.31    5.24
  -7  23  -5   18.69    9.11
  -7 -23  -5    9.43    8.22
   7 -23   5   22.47    8.23
  -9 -23  -5   -4.43    6.74
   9 -23   5   11.50    7.78
 -11 -23  -5   -2.35    8.30
  11 -23   5   -1.33    6.57
 -14 -24   5    3.86    6.56
  14 -24  -5    8.02    9.23
 -12 -24   5   14.31    7.50
  12 -24  -5   22.61   10.22
  10 -24  -5   -1.58    4.52
  10  24  -5    1.60    5.87
 -10 -24   5    9.84    6.53
  -8 -24   5   14.61    6.89
   8 -24  -5    7.55    5.92
   8  24  -5   20.18    8.32
   6  24  -5    4.91    6.03
  -6 -24   5    3.92    5.27
   6 -24  -5   17.01    7.21
   4 -24  -5   27.91    9.00
  -4 -24   5   31.26    8.74
   4  24  -5   42.45   10.70
   2 -24  -5   48.08   11.21
  -2 -24   5   79.12   13.08
   2  24  -5   53.33   12.61
   0 -24   5   14.46    6.13
   0  24  -5    7.51    7.20
   0 -24  -5   15.47    6.69
  -2 -24  -5   16.47    8.30
   2 -24   5   33.92    8.79
  -2  24  -5   27.46    9.77
  -4 -24  -5   -1.78    5.98
  -4  24  -5   -2.13    6.09
   4 -24   5    6.33    6.44
  -6 -24  -5    3.17    6.59
   6 -24   5    8.26    7.24
  -6  24  -5   -0.91    6.53
   8 -24   5   -2.24    6.43
  -8 -24  -5   14.58    8.32
  10 -24   5    3.53    6.68
 -10 -24  -5   10.16    8.87
 -13 -25   5    9.83    7.84
  13 -25  -5   25.07   11.81
  11 -25  -5   27.08   10.29
  11  25  -5   29.86    9.76
 -11 -25   5    3.12    6.20
   9  25  -5   28.98    9.16
  -9 -25   5   20.44    8.30
   9 -25  -5   35.52   10.74
   7  25  -5   12.91    7.57
   7 -25  -5   14.92    7.70
  -7 -25   5   16.13    6.89
   5  25  -5   15.54    7.82
   5 -25  -5   12.37    6.31
  -5 -25   5    2.48    5.36
   3 -25  -5    3.32    5.19
  -3 -25   5    3.45    5.21
   3  25  -5   -2.84    5.99
  -1 -25   5   -4.95    4.47
   1 -25  -5    4.65    5.25
   1  25  -5    1.32    6.13
   1 -25   5    6.43    5.71
  -1 -25  -5   -1.40    4.91
  -1  25  -5    6.42    7.29
  -3 -25  -5    7.12    6.15
   3 -25   5    4.56    6.66
  -3  25  -5    4.31    7.51
  -5 -25  -5    4.99    6.42
   5 -25   5    8.62    7.40
  -5  25  -5   12.34    7.86
   7 -25   5   13.26    8.56
  -7 -25  -5   -3.14    7.57
  -9 -25  -5    4.14    6.03
   9 -25   5   15.91    9.10
  12 -26  -5   14.62    9.36
 -12 -26   5    3.26    6.63
  10  26  -5    4.21    5.82
 -10 -26   5    7.96    7.22
  10 -26  -5   -1.65    6.96
  -8 -26   5    1.05    5.44
   8  26  -5    4.53    6.10
   8 -26  -5   -2.89    5.58
   6 -26  -5   -2.87    4.30
   6  26  -5   -6.15    5.63
  -6 -26   5    6.14    5.83
   4 -26  -5    3.96    6.45
  -4 -26   5    9.95    6.12
   4  26  -5   11.10    6.87
  -2 -26   5    0.02    5.49
   2 -26  -5   -0.68    4.87
   2  26  -5    2.24    6.30
   0 -26  -5    2.69    5.33
   0  26  -5    0.43    7.09
   0 -26   5   13.36    7.00
  -2 -26  -5    4.38    7.10
   2 -26   5   27.47    9.19
  -2  26  -5   18.85    9.52
  -4 -26  -5   -6.95    5.37
   4 -26   5    3.22    7.28
  -4  26  -5    0.15    7.36
  -6  26  -5   -7.02    6.81
  -6 -26  -5    2.62    5.51
   6 -26   5    8.23    7.37
  -8 -26  -5    4.83    5.15
   8 -26   5   -1.58    7.22
 -11 -27   5    2.95    7.00
  11 -27  -5    5.54    8.53
  -9 -27   5   39.79    9.53
   9 -27  -5   37.95   12.09
   9  27  -5    9.43    7.82
  -7 -27   5   19.24    7.96
   7  27  -5   16.47    8.25
   7 -27  -5   11.40    8.05
   5  27  -5    9.05    7.06
   5 -27  -5    2.16    5.63
  -5 -27   5    4.85    5.50
  -3 -27   5   -1.91    5.20
   3  27  -5    7.39    7.87
   3 -27  -5   13.15    6.88
   1  27  -5    0.28    6.98
   1 -27  -5   -2.88    5.27
  -1 -27   5    0.94    5.94
   1 -27   5    0.31    5.94
  -1 -27  -5   -8.98    4.44
  -1  27  -5    4.90    8.03
   3 -27   5   -0.02    6.82
  -3 -27  -5    6.83    6.70
  -3  27  -5    6.82    7.54
  -5  27  -5   19.93    9.95
   5 -27   5   17.64    9.09
  -5 -27  -5   -3.62    5.48
  -7 -27  -5    4.79    4.99
   7 -27   5   -9.11    7.35
 -10 -28   5   -5.79    5.82
  10 -28  -5   -5.74    6.38
  -8 -28   5    6.16    7.39
   8 -28  -5    1.09    6.79
   8  28  -5  -11.27    4.81
   6  28  -5    3.04    6.48
   6 -28  -5    9.48    6.52
  -6 -28   5   22.96    7.68
   4  28  -5    9.45    7.65
   4 -28  -5   11.17    6.24
  -4 -28   5   17.91    7.61
   2 -28  -5   11.95    7.22
  -2 -28   5    3.45    7.03
   2  28  -5    9.01    7.58
   0 -28   5   36.53   10.50
   0  28  -5   28.24   11.55
   0 -28  -5   30.75    9.85
  -2 -28  -5   11.62    6.71
   2 -28   5    3.49    6.75
  -2  28  -5    9.59    8.83
   4 -28   5   10.53    8.13
  -4  28  -5    6.24   10.26
  -4 -28  -5    6.60    5.06
  -6  28  -5   -6.77    8.66
   6 -28   5   -1.89    6.61
  -6 -28  -5    0.81    5.21
   7 -29  -5    2.01    4.26
   7  29  -5    1.07    4.68
  -7 -29   5    4.39    6.87
  -5 -29   5    5.18    6.56
   5  29  -5   -4.08    5.53
   5 -29  -5    1.68    4.90
   3  29  -5    4.84    8.07
   3 -29  -5    2.47    4.88
  -3 -29   5    0.63    5.72
   1  29  -5   14.09    9.97
  -1 -29   5   20.25    8.47
   1 -29  -5    3.77    4.86
   1 -29   5    5.96    6.55
  -1 -29  -5    1.90    4.63
  -1  29  -5    2.77    8.85
  -3 -29  -5   -3.40    4.80
   3 -29   5  -11.43    6.69
  -3  29  -5    7.54    9.77
  -6 -30   5   11.54    7.40
   6  30  -5   -2.30    4.71
   6 -30  -5    8.35    5.87
   4 -30  -5   -2.50    4.04
  -4 -30   5    9.08    6.44
   4  30  -5   11.36   10.41
  -2 -30   5    7.44    6.72
   2 -30  -5   -6.39    3.72
   2  30  -5    4.14   10.13
   0 -30  -5   -5.90    4.16
   0  30  -5   12.38   10.52
   0 -30   5    7.11    7.06
  -2 -30  -5    1.80    5.04
   2 -30   5   12.39    7.69
  -2  30  -5   12.78   10.24
 -22   0   6   -7.17    6.55
  22   0  -6   -2.28    5.40
 -22   0   6    0.74    7.30
 -20   0   6   26.73    9.24
  20   0  -6   13.04    7.71
 -20   0   6   14.98    7.62
  18   0  -6   -0.72    3.68
 -18   0   6    3.14    5.51
 -18   0   6    1.89    4.76
 -16   0   6  179.42   17.58
 -16   0   6  176.23   18.07
  16   0  -6  145.14   18.38
  14   0  -6  151.43   16.45
  12   0  -6 1344.05   65.33
  12   0  -6 1309.60   64.52
  10   0  -6  354.10   22.05
  10   0  -6  365.70   16.41
  10   0  -6  366.23   22.02
   8   0  -6  597.28   31.16
   8   0  -6  614.89   30.84
   6   0  -6  345.02   19.25
   6   0  -6  355.79   18.18
   4   0  -6    3.73    1.65
   4   0  -6    9.37    2.68
   2   0  -6  566.03   27.81
   0   0  -6  481.10   22.40
   0   0  -6  473.23   24.96
  -2   0  -6  733.66   34.75
  -4   0  -6  837.95   39.04
  -4   0  -6  825.98   40.77
  -6   0  -6 1050.15   49.79
  -6   0  -6 1052.21   52.08
  -8   0  -6  221.05   17.12
  -8   0  -6  247.62   18.67
 -10   0  -6   21.32    7.33
 -10   0  -6   18.30    7.27
 -12   0  -6    4.81    5.93
 -12   0  -6   -5.48    5.13
 -14   0  -6   -5.02    7.17
 -16   0  -6    2.64    9.57
 -21   1   6   36.53   11.26
  21   1  -6   24.27    9.73
  21  -1  -6   26.80   10.91
 -21  -1   6   17.70    8.76
 -21  -1   6   40.70   10.87
 -21   1   6   52.60   12.78
 -19  -1   6   42.10   10.74
 -19   1   6   40.57   10.58
  19   1  -6   44.59   12.27
  19  -1  -6   51.94   12.34
 -19  -1   6   43.36   10.67
 -19   1   6   38.35   11.06
  17  -1  -6   -3.64    3.40
  17   1  -6    3.10    4.39
 -17  -1   6    6.59    5.54
 -17   1   6    1.65    5.13
 -17  -1   6   -1.61    4.44
 -17   1   6    4.15    4.66
 -15  -1   6    8.47    4.60
  15  -1  -6    9.36    5.72
  15  -1  -6    6.20    4.63
 -15  -1   6   10.03    5.13
  15   1  -6    7.90    4.96
  13   1  -6   50.20    9.39
 -13  -1   6   76.40   10.45
 -13  -1   6   51.95    8.27
  13  -1  -6   59.05   10.25
  13  -1  -6   63.13   10.51
  11  -1  -6  108.54   12.00
  11  -1  -6  115.33   12.41
  11   1  -6  143.39   11.94
  11   1  -6  117.80   12.41
   9  -1  -6   38.29    6.41
   9   1  -6   40.95    3.59
   9   1  -6   27.51    5.44
   9   1  -6   39.86    6.66
   9  -1  -6   29.11    2.88
   9  -1  -6   30.53    6.03
   7   1  -6  142.88   10.35
   7   1  -6  148.53    9.90
   7  -1  -6  142.79   10.38
   7  -1  -6  119.72    9.56
   5   1  -6    0.77    1.71
   5   1  -6    2.74    2.12
   5  -1  -6    2.35    1.95
   5  -1  -6   -0.79    1.41
   3  -1  -6  329.61   15.15
   3   1  -6  326.83   17.48
   3  -1  -6  315.31   17.49
   1   1  -6    6.84    2.55
   1   1  -6    4.36    1.64
   1  -1  -6    5.38    2.11
   1  -1  -6    5.90    2.76
  -1   1  -6  118.25    7.74
  -1   1  -6  122.96    8.29
  -1   1  -6  123.26    9.60
  -1  -1  -6  105.77    7.94
  -3   1  -6    4.75    3.42
  -3   1  -6   16.28    4.05
  -3  -1  -6   13.81    3.95
  -5  -1  -6   16.51    5.10
  -5   1  -6   23.03    5.27
  -5   1  -6   17.28    4.83
  -7   1  -6  109.97   11.76
  -7   1  -6   88.83   11.64
  -7  -1  -6  108.96   12.39
  -7  -1  -6  106.36   11.64
  -9  -1  -6    1.43    4.08
  -9  -1  -6   -3.11    4.08
  -9   1  -6    1.52    5.05
  -9   1  -6    1.24    3.99
 -11   1  -6   13.63    6.56
 -11  -1  -6    3.16    6.35
 -11   1  -6    7.21    5.81
 -13   1  -6  118.81   16.90
 -13   1  -6  112.45   17.54
 -13  -1  -6  104.99   17.52
 -15  -1  -6   31.41   11.21
 -15   1  -6   27.01    9.40
 -15   1  -6   34.01   11.58
 -17   1  -6   33.28   15.08
 -17  -1  -6   34.61   14.26
 -22  -2   6   37.12   11.30
  22  -2  -6   21.81    9.50
  22   2  -6    6.81    6.16
 -22   2   6   34.45   11.24
 -22   2   6   43.74   11.84
 -20   2   6   24.06    9.65
 -20  -2   6   10.80    7.66
 -20   2   6   12.55    9.89
 -20  -2   6   30.58    9.39
  20   2  -6    4.92    6.70
  20  -2  -6    9.53    7.26
  18  -2  -6    0.88    5.08
 -18   2   6   12.58    6.63
 -18  -2   6    0.78    5.27
 -18   2   6   11.50    7.13
 -18  -2   6    7.01    5.35
  18   2  -6   10.38    6.44
  16   2  -6   32.16    8.90
  16  -2  -6   29.91    8.60
 -16  -2   6   39.46    9.04
 -16  -2   6   30.02    7.97
  16  -2  -6   27.36    8.51
  14   2  -6   68.86   11.72
  14  -2  -6  101.52   13.39
  14  -2  -6   75.34   11.89
 -14  -2   6   56.13    9.11
 -14  -2   6   76.50   11.19
 -12  -2   6   32.67    6.40
 -12  -2   6   21.62    5.49
  12  -2  -6   25.77    7.13
  12   2  -6   15.87    5.21
  12  -2  -6   37.43    7.15
 -10  -2   6  113.09    9.83
 -10  -2   6  102.78    9.77
  10  -2  -6   90.99   10.28
  10  -2  -6  122.88   11.73
  10   2  -6  108.00    7.03
  10   2  -6  116.43   11.43
   8   2  -6  218.63   12.02
   8   2  -6  257.05   15.45
   8  -2  -6  251.36   15.18
   8  -2  -6  206.06   14.41
   6  -2  -6  118.57    8.93
  -6  -2   6  119.11    7.50
  -6  -2   6  105.19    7.01
   6   2  -6  108.09    8.55
   6  -2  -6  106.11    8.07
   4  -2  -6    3.73    2.36
   4   2  -6    1.06    1.78
   4  -2  -6    1.32    1.80
   2  -2  -6  109.00    8.43
   2   2  -6   94.33    7.62
   2  -2  -6  102.15    6.60
   0   2  -6  465.28   24.99
   0  -2  -6  503.07   23.71
   0  -2  -6  510.67   26.10
   0   2  -6  502.17   23.09
   0   2  -6  491.36   22.11
  -2  -2  -6  771.02   36.60
  -4  -2  -6    9.18    3.74
  -6   2  -6    7.48    4.62
  -6  -2  -6    9.18    4.16
  -6   2  -6    7.28    4.25
  -8   2  -6    0.11    3.54
  -8  -2  -6    0.49    3.91
  -8   2  -6    2.52    4.20
 -10   2  -6   -2.69    4.83
 -10  -2  -6   -3.98    4.78
 -10   2  -6   -1.77    4.93
 -12   2  -6   29.77    9.71
 -12  -2  -6   23.05    9.33
 -12   2  -6   30.54    9.50
 -14  -2  -6   13.45    9.48
 -14   2  -6   18.76   10.68
 -14   2  -6   19.43    9.76
 -16  -2  -6   16.91   11.33
 -16   2  -6    4.60    7.58
 -16   2  -6   10.29    9.47
  21  -3  -6   23.55   10.15
 -21   3   6   54.75   12.90
 -21  -3   6   31.85    9.78
 -21   3   6   41.09   12.06
  21   3  -6   13.29    8.08
 -19  -3   6   45.23   11.45
  19  -3  -6   50.44   12.80
  19   3  -6   49.36   12.06
  17  -3  -6  141.30   18.81
  17  -3  -6  163.22   20.09
 -17  -3   6  130.16   16.08
  17   3  -6  159.63   19.77
 -17  -3   6  161.24   18.02
  15  -3  -6    3.06    4.68
 -15  -3   6    0.66    3.76
  15  -3  -6    1.75    4.34
  15   3  -6    2.68    3.76
 -15  -3   6    1.55    3.40
  13  -3  -6    4.55    3.47
 -13  -3   6    4.45    3.95
  13   3  -6    2.70    3.33
  13  -3  -6    7.53    4.40
 -13  -3   6    5.73    3.84
  11   3  -6  209.23   15.89
  11  -3  -6  194.10   15.21
 -11  -3   6  207.82   14.39
 -11  -3   6  225.64   15.54
  11   3  -6  211.65   11.95
  11  -3  -6  226.09   16.68
   9  -3  -6   14.04    4.07
   9   3  -6   16.70    4.39
  -9  -3   6    7.06    2.85
   9  -3  -6   18.85    5.05
   9   3  -6   19.22    3.14
   7  -3  -6   86.53    7.93
   7   3  -6   70.08    5.69
   7   3  -6   67.16    7.43
  -7  -3   6   65.78    5.94
  -7  -3   6   69.00    6.10
   7  -3  -6   67.22    7.34
   5  -3  -6  698.21   32.81
   5  -3  -6  680.84   31.80
  -5  -3   6  688.31   30.19
   5   3  -6  649.35   32.50
   3  -3  -6  375.02   19.98
   3  -3  -6  379.68   18.37
   3   3  -6  373.16   19.48
   1  -3  -6 1258.49   57.47
   1  -3  -6 1260.80   55.26
   1   3  -6 1262.94   56.55
   1  -3   6  783.48   36.90
  -1  -3  -6  824.15   37.37
  -1   3  -6  787.08   38.21
  -5  -3  -6  119.86   11.66
   5  -3   6  130.31   12.50
  -7  -3  -6   43.00    8.35
  -9  -3  -6  211.23   18.27
  -9   3  -6  221.59   17.92
  -9   3  -6  212.44   18.37
 -11  -3  -6   58.65   12.09
 -11   3  -6   51.71   11.30
 -11   3  -6   50.21   10.67
 -13   3  -6   44.15   11.35
 -13   3  -6   34.97   10.16
 -13  -3  -6   16.88    9.65
 -15  -3  -6   53.22   14.69
 -15   3  -6   73.43   15.71
 -15   3  -6   73.94   14.70
 -17   3  -6   26.25   12.46
 -17  -3  -6   33.20   13.22
 -17   3  -6   17.91   12.85
  22   4  -6   -1.06    4.89
 -22   4   6   11.38    8.44
 -22  -4   6   19.85    8.91
 -22   4   6   -0.55    7.88
  22  -4  -6   14.19    9.43
  20   4  -6   -0.65    5.69
  20  -4  -6   -7.26    5.30
 -20  -4   6   -5.23    5.77
 -18  -4   6   -1.51    4.72
  18  -4  -6    3.82    5.47
  18  -4  -6   -0.19    5.33
  18   4  -6   -1.31    4.60
  16   4  -6   13.20    6.60
  16  -4  -6   21.76    7.53
 -16  -4   6   10.01    5.57
  16  -4  -6   17.62    7.12
  14   4  -6  225.31   18.50
  14  -4  -6  210.41   17.94
 -14  -4   6  214.32   15.95
  14  -4  -6  157.42   17.17
 -14  -4   6  180.95   15.99
  12  -4  -6  484.23   28.78
 -12  -4   6  474.76   26.85
 -12  -4   6  501.67   28.50
  12   4  -6  468.31   29.26
  12  -4  -6  497.24   29.74
 -10  -4   6  506.92   25.84
 -10  -4   6  508.16   27.00
  10  -4  -6  487.91   27.35
  10   4  -6  450.99   27.51
  10  -4  -6  527.81   28.57
  10   4  -6  472.36   23.58
   8   4  -6    9.98    2.69
   8  -4  -6   16.99    3.97
   8  -4  -6   15.86    4.62
  -8  -4   6   15.77    3.81
   8   4  -6   12.95    3.70
  -6  -4   6    7.22    2.37
   6   4  -6   13.45    3.50
   6  -4  -6   20.21    4.11
   6  -4  -6   11.01    3.49
   6   4  -6    4.83    1.89
   4   4  -6   21.15    3.82
  -4  -4   6   24.22    2.30
   4  -4  -6   18.39    3.97
   4  -4  -6   17.41    3.53
   2   4  -6  435.20   20.58
   2  -4  -6  386.62   21.11
   2  -4  -6  371.40   19.64
   0  -4   6  374.98   18.47
   0  -4  -6  373.29   19.33
   0   4  -6  356.85   19.54
   0  -4  -6  372.99   20.92
   2  -4   6  173.13   11.81
  -2  -4  -6  179.21   12.04
  -4  -4  -6  231.95   16.11
   4  -4   6  261.87   16.86
  -6  -4  -6  196.66   15.80
   6  -4   6  237.32   16.97
   8  -4   6   -0.15    3.84
  -8  -4  -6    6.23    4.84
 -10  -4  -6   30.72    8.89
 -10   4  -6    9.85    6.90
 -10   4  -6   12.06    6.64
 -12  -4  -6   28.54    9.96
 -12   4  -6   23.53    9.52
 -12   4  -6   38.39   10.34
 -14  -4  -6   15.63    9.00
 -14   4  -6   -3.75    7.00
 -14   4  -6    3.81    8.25
 -16   4  -6   13.80   10.33
 -16   4  -6   25.35   11.02
 -16  -4  -6   18.66   11.57
 -21  -5   6    3.32    6.02
  21  -5  -6   -7.08    6.30
  21   5  -6    4.08    6.12
  19   5  -6   14.07    7.75
  19  -5  -6    0.62    7.43
  19  -5  -6    3.43    6.62
 -19  -5   6   -3.33    6.86
  17  -5  -6   55.45   12.35
 -17  -5   6   59.85   11.32
  17  -5  -6   58.24   12.19
  17   5  -6   69.07   14.01
  15   5  -6   70.99   12.86
 -15  -5   6   65.14   10.81
  15  -5  -6   40.98   10.07
  15  -5  -6   68.82   11.99
  13  -5  -6   72.40   10.51
  13  -5  -6   77.37   11.72
  13   5  -6   61.96   11.00
 -13  -5   6   69.92   10.53
 -11  -5   6  757.52   38.16
  11  -5  -6  720.75   38.42
  11   5  -6  746.63   34.44
  11  -5  -6  698.45   39.05
  11   5  -6  720.95   38.99
   9   5  -6  355.37   17.47
   9   5  -6  318.98   19.77
   9  -5  -6  299.39   18.96
   9  -5  -6  285.52   19.29
   7  -5  -6    9.48    3.32
   7   5  -6    8.53    3.26
   7   5  -6    2.63    1.68
   7  -5  -6    7.95    3.54
  -7  -5   6    8.24    2.63
   5  -5  -6    0.92    1.74
   5  -5  -6    2.20    2.30
   5   5  -6    3.03    1.89
  -5  -5   6    4.04    1.61
   5   5  -6    1.36    1.86
   3  -5  -6    1.48    2.40
  -3  -5   6    1.03    0.98
   3   5  -6    0.39    1.74
   3  -5  -6    4.45    2.46
   1   5  -6  108.24    8.00
   1  -5  -6  106.39    9.03
   1  -5  -6  126.62    8.61
  -1  -5   6  104.72    6.84
  -1   5  -6  348.87   18.64
  -1  -5  -6  297.48   18.12
   1  -5   6  347.83   18.07
  -5  -5  -6  764.82   39.14
   5  -5   6  738.15   39.34
  -7  -5  -6  304.06   21.88
   7  -5   6  364.06   23.60
   9  -5   6  108.31   15.22
  -9  -5  -6  154.53   16.21
 -11  -5  -6    4.27    6.18
 -13   5  -6    5.99    7.28
 -13   5  -6   -3.58    6.35
 -13  -5  -6    7.90    7.54
 -15   5  -6   16.64    9.90
 -15   5  -6   14.43    9.34
 -15  -5  -6    6.85    7.53
 -17  -5  -6   -0.33   11.11
 -17   5  -6   -0.94   11.20
 -17   5  -6    3.10   12.22
 -22  -6   6   28.54    9.86
  22  -6  -6   53.45   14.49
 -22   6   6    5.50    7.83
  22   6  -6   37.24   13.91
 -22   6   6   24.53    9.47
 -20  -6   6   56.53   12.37
  20  -6  -6   31.26   11.52
  20   6  -6   24.22   10.18
  20  -6  -6   16.16    9.45
  18  -6  -6    3.76    5.49
 -18  -6   6   15.28    6.27
  18  -6  -6    0.55    6.22
  18   6  -6   11.72    7.89
 -16  -6   6    4.21    4.64
  16   6  -6    5.60    5.67
  16  -6  -6    8.00    5.51
  16  -6  -6    1.51    4.23
  14  -6  -6   31.24    7.93
  14  -6  -6   35.22    8.45
 -14  -6   6   38.98    8.01
  14   6  -6   47.94    9.97
  12  -6  -6    6.18    3.87
  12  -6  -6   12.16    5.88
 -12  -6   6    2.57    4.07
  12   6  -6   12.82    5.08
 -10  -6   6  143.98   11.64
  10   6  -6  148.91   12.58
  10   6  -6  160.48   10.61
  10  -6  -6  132.15   13.19
  10  -6  -6  147.86   11.85
   8   6  -6  170.48   10.62
   8   6  -6  154.60   11.59
   8  -6  -6  152.90   11.98
  -8  -6   6  131.10   10.23
   8  -6  -6  150.87   11.08
   6  -6  -6  453.00   23.00
   6   6  -6  422.43   22.17
   6  -6  -6  429.12   23.28
  -6  -6   6  419.66   21.21
   6   6  -6  455.84   23.13
   4   6  -6  490.22   25.26
   4  -6  -6  492.49   25.04
  -4  -6   6  511.25   22.97
   4  -6  -6  484.01   25.04
   4   6  -6  491.12   24.52
   2   6  -6  288.75   17.27
   2  -6  -6  284.64   16.78
   2  -6  -6  276.75   16.39
  -2  -6   6  298.57   14.39
   2   6  -6  298.25   15.78
   0  -6  -6  142.67   10.39
   0  -6  -6  135.06   10.81
   0   6  -6  153.15    9.84
   0  -6   6  152.00    9.56
  -2  -6  -6    5.15    3.24
  -2   6  -6   -0.83    1.89
   2  -6   6    1.67    2.29
   4  -6   6  199.76   14.67
  -4  -6  -6  206.10   14.75
   6  -6   6    1.01    3.33
  -6  -6  -6   -2.47    3.47
  -8  -6  -6   63.65   10.78
   8  -6   6   61.40   10.68
 -10  -6  -6   18.70    7.89
  10  -6   6   23.68    8.24
 -12  -6  -6    9.67    7.55
 -14   6  -6   -3.47    7.15
 -14  -6  -6    0.33    7.38
 -14   6  -6   -2.67    6.54
 -16  -6  -6   12.52   10.35
 -16   6  -6    5.44   10.21
 -16   6  -6    5.61   10.88
 -21  -7   6   15.30    7.75
  21   7  -6   11.38    9.66
  21  -7  -6   20.41   10.21
  21  -7  -6   27.95   11.38
 -19  -7   6    2.50    5.85
  19  -7  -6   -6.88    6.05
  19  -7  -6   -0.82    6.45
  19   7  -6    5.03    5.57
  17  -7  -6   42.32   11.10
 -17  -7   6   47.78   10.11
  17  -7  -6   43.97   10.87
  17   7  -6   40.79   10.93
  15   7  -6    1.97    4.07
  15  -7  -6    3.37    4.68
 -15  -7   6    8.88    5.04
  15  -7  -6   -2.73    3.43
  13  -7  -6    2.33    3.41
  13   7  -6   -3.14    3.18
  13  -7  -6    6.70    3.65
 -13  -7   6   -2.51    3.13
  11  -7  -6   -2.37    2.53
  11   7  -6    5.41    3.10
 -11  -7   6   -0.80    2.83
  11  -7  -6    6.79    3.31
  11   7  -6   -0.80    2.66
   9  -7  -6   12.12    3.90
   9   7  -6   17.87    3.97
   9  -7  -6   16.55    4.95
   9   7  -6   13.24    4.02
  -9  -7   6    3.97    2.26
   7  -7  -6  364.85   20.00
   7   7  -6  335.82   19.34
   7   7  -6  371.19   20.40
   7  -7  -6  359.21   20.94
  -7  -7   6  351.90   18.87
   5   7  -6  524.98   26.52
  -5  -7   6  537.63   25.23
   5  -7  -6  554.69   27.67
   5  -7  -6  521.35   26.63
   5   7  -6  523.53   26.80
  -3  -7   6  467.07   21.89
   3   7  -6  420.30   23.81
   3   7  -6  462.39   22.57
   3  -7  -6  430.29   23.74
   3  -7  -6  499.86   24.10
   1   7  -6   21.27    4.79
  -1  -7   6    9.16    2.50
   1  -7  -6    9.88    3.55
   1   7  -6   15.19    3.26
   1  -7  -6   10.47    3.80
   1  -7   6  110.21    8.81
  -1   7  -6  119.59    8.88
  -1  -7  -6  125.11   10.11
  -3  -7  -6    6.63    3.61
   3  -7   6    0.52    2.48
   5  -7   6   16.54    5.14
  -5  -7  -6    4.82    4.34
  -7  -7  -6    6.57    4.59
   7  -7   6   -0.41    4.25
  -9  -7  -6   35.89    9.31
   9  -7   6   22.48    7.51
  11  -7   6    8.71    6.02
 -11  -7  -6    5.31    6.81
 -13  -7  -6   67.47   14.78
 -15   7  -6    9.04    9.80
 -15  -7  -6    1.16    8.40
 -15   7  -6   -4.01    7.68
 -17   7  -6    4.84   12.35
 -17   7  -6    8.90   12.87
 -17  -7  -6   10.04   12.43
 -22  -8   6   22.40    7.73
  20   8  -6   39.06   12.34
 -20  -8   6   28.96    9.68
  20  -8  -6   42.35   12.17
  20  -8  -6   34.07   11.28
  18  -8  -6   73.21   14.86
  18   8  -6   88.56   16.56
  18  -8  -6   90.90   15.70
 -18  -8   6   67.21   12.56
 -16  -8   6    3.09    4.42
  16   8  -6    9.30    6.47
  16  -8  -6    1.71    5.17
  16  -8  -6   -6.18    4.03
  14  -8  -6   41.17    9.26
 -14  -8   6   36.84    7.64
  14  -8  -6   28.80    7.16
  14   8  -6   28.01    8.32
  12   8  -6   21.73    4.76
  12  -8  -6   24.32    6.50
  12   8  -6   20.26    6.08
  12  -8  -6   21.70    5.24
 -12  -8   6   34.77    7.08
 -10  -8   6    4.70    3.16
  10   8  -6    3.37    3.32
  10   8  -6    9.81    3.15
  10  -8  -6    2.40    3.84
  10  -8  -6    0.24    2.37
   8   8  -6  251.33   16.30
   8  -8  -6  263.48   17.32
   8   8  -6  247.52   15.37
   8  -8  -6  237.36   15.36
   6  -8  -6  326.74   18.80
   6  -8  -6  341.93   20.16
   6   8  -6  341.91   19.16
   6   8  -6  356.42   19.47
  -6  -8   6  345.26   18.11
   4  -8  -6  545.40   28.81
   4   8  -6  558.00   28.55
   4  -8  -6  553.81   27.97
   4   8  -6  553.59   27.26
  -4  -8   6  595.89   27.01
   2  -8  -6   13.57    3.92
   2  -8  -6   25.22    5.42
   2   8  -6   23.27    4.63
   2   8  -6   14.11    3.12
  -2  -8   6   20.13    3.47
   0   8  -6    5.70    3.07
   0  -8  -6    6.50    3.36
   0  -8   6    2.36    2.07
   0  -8  -6    0.47    2.95
   0   8  -6    6.60    2.20
  -2  -8  -6   14.03    4.59
  -2   8  -6   15.86    3.78
  -2   8  -6   16.23    4.67
   2  -8   6    1.91    2.84
  -4  -8  -6    0.67    3.50
   4  -8   6    7.03    3.55
   6  -8   6    7.39    4.33
  -6  -8  -6    6.70    4.91
   8  -8   6   -1.82    3.19
  -8  -8  -6    8.44    5.37
 -10  -8  -6   44.52   10.45
  10  -8   6   77.82   13.25
 -12  -8  -6   81.80   15.11
  12  -8   6   50.41   12.20
 -14  -8  -6   81.72   16.30
 -16   8  -6    9.82   10.56
 -16   8  -6   25.14   13.61
 -16  -8  -6   31.61   13.20
  21  -9  -6    4.03    8.26
  21  -9  -6   -0.35    6.87
  21   9  -6    2.88    8.40
 -21  -9   6    3.00    7.37
  19  -9  -6    8.54    7.40
  19   9  -6   12.89    8.42
  19  -9  -6    1.62    7.48
 -19  -9   6    2.35    6.46
 -17  -9   6    1.28    5.36
  17  -9  -6    4.37    5.95
  17   9  -6    9.45    7.12
  17  -9  -6   10.29    7.17
  15  -9  -6   50.32   10.84
  15   9  -6   49.77   10.99
  15  -9  -6   40.56    9.22
 -15  -9   6   65.34   10.79
  13  -9  -6   63.13   10.19
 -13  -9   6  112.85   12.75
  13  -9  -6   69.15   11.79
  13   9  -6   67.65   11.50
  11  -9  -6  320.82   21.12
  11   9  -6  339.36   22.80
  11   9  -6  348.80   20.50
  11  -9  -6  321.25   22.68
 -11  -9   6  348.08   21.47
   9   9  -6  324.14   20.18
   9  -9  -6  302.16   18.90
   9  -9  -6  318.67   21.24
  -7  -9   6   38.73    5.61
   7   9  -6   32.77    5.58
   7   9  -6   26.52    5.37
   7  -9  -6   45.82    7.52
   5   9  -6   59.24    7.46
   5   9  -6   69.65    7.04
  -5  -9   6   71.95    6.56
   5  -9  -6   69.25    8.41
   3  -9  -6  185.33   13.26
   3   9  -6  194.21   11.23
  -3  -9   6  166.71   11.08
   3   9  -6  195.02   13.13
   1   9  -6    0.52    1.76
  -1  -9   6    4.86    2.42
   1  -9  -6    6.12    3.40
   1  -9  -6    6.17    3.46
   1   9  -6    1.92    2.56
   1  -9   6   -2.42    2.32
  -1  -9  -6    0.05    2.83
  -1   9  -6    0.40    2.36
  -1   9  -6   -0.40    1.78
  -3   9  -6  266.91   17.58
  -3  -9  -6  256.56   17.65
   3  -9   6  229.11   16.49
  -3   9  -6  291.60   16.15
  -5  -9  -6  536.14   30.55
  -5   9  -6  534.09   29.41
   5  -9   6  517.24   30.28
  -7   9  -6  356.14   22.62
  -7  -9  -6  378.74   24.65
   7  -9   6  332.58   23.85
  -9  -9  -6    9.77    6.50
  -9   9  -6   24.32    6.85
   9  -9   6   21.35    7.03
 -11  -9  -6    0.26    6.23
  11  -9   6    4.01    5.55
  13  -9   6    5.28    6.92
 -13  -9  -6    1.05    7.17
 -15  -9  -6  -13.80    7.43
  20  10  -6    8.25    8.01
 -20 -10   6   -3.09    6.43
  20 -10  -6   -0.98    6.16
  18 -10  -6   -2.71    5.52
  18  10  -6   -0.75    6.25
  18 -10  -6   -2.48    4.44
 -18 -10   6   -1.99    5.12
  16 -10  -6    0.25    5.26
  16 -10  -6   10.97    6.02
 -16 -10   6    5.49    5.70
  16  10  -6    5.29    5.68
  14 -10  -6    5.45    5.02
  14 -10  -6    7.18    5.05
 -14 -10   6    7.12    4.63
  14  10  -6    7.72    5.20
  12 -10  -6   39.56    7.44
  12  10  -6   35.31    6.78
  12  10  -6   39.60    8.65
  12 -10  -6   41.07    9.22
 -12 -10   6   63.21    9.38
 -10 -10   6   82.57    9.29
  10  10  -6   64.09    9.57
  10 -10  -6   65.32   10.46
   8 -10  -6   55.14    8.95
   8  10  -6   67.99    8.28
   8  10  -6   51.95    7.55
   8 -10  -6   35.96    6.02
   6 -10  -6    9.46    3.38
   6 -10  -6    7.31    3.99
  -6 -10   6   10.19    3.28
   6  10  -6   12.53    3.54
   6  10  -6    4.77    2.50
   4  10  -6    6.37    2.57
   4  10  -6    7.21    2.57
  -4 -10   6   11.31    3.24
   4 -10  -6    3.94    2.55
   4 -10  -6    3.03    3.01
  -2 -10   6   15.58    3.71
   2  10  -6    6.72    3.08
   2  10  -6   13.08    2.89
   2 -10  -6   12.01    3.88
   2 -10  -6    0.88    2.10
   0  10  -6  115.33    7.66
   0 -10  -6   97.36   10.12
   0 -10   6  108.45    8.75
   0  10  -6  100.77   10.75
   0 -10  -6   97.80   10.19
  -2  10  -6   76.90    6.62
  -2 -10  -6   62.21    8.99
  -2  10  -6   58.77    8.49
   4 -10   6  107.90   11.30
  -4 -10  -6  107.30   12.00
  -4  10  -6   92.55   10.69
   6 -10   6   15.41    5.79
  -6  10  -6   23.41    6.16
  -6 -10  -6    8.19    5.58
  -8  10  -6   -1.82    3.43
  -8 -10  -6    4.68    5.09
   8 -10   6    4.31    4.24
  10 -10   6    6.36    5.00
 -10 -10  -6    3.85    5.81
 -12 -10  -6   -5.39    5.92
  12 -10   6   -2.31    5.20
  14 -10   6   22.07   10.44
 -14 -10  -6    9.93    9.86
 -16 -10  -6    0.37   11.64
  21 -11  -6    8.80   10.57
 -21 -11   6    8.96    7.19
  19  11  -6   26.00   10.22
 -19 -11   6    4.28    6.34
  19 -11  -6   16.35    9.27
 -17 -11   6   19.17    7.34
  17 -11  -6   21.37    9.41
  17 -11  -6   10.61    6.85
  17  11  -6   32.77   10.01
  15  11  -6   39.81   10.11
  15 -11  -6   32.77    9.07
  15 -11  -6   44.03    9.35
 -15 -11   6   62.61   11.40
  13 -11  -6   49.20    9.31
  13  11  -6   57.93   10.77
  13 -11  -6   70.38   11.79
 -13 -11   6   54.74    9.40
  11 -11  -6  274.82   20.41
 -11 -11   6  238.41   17.57
  11  11  -6  288.03   20.18
   9  11  -6   65.67    9.45
   9 -11  -6   51.06    9.41
  -9 -11   6   80.58    9.19
   9  11  -6   70.39    8.96
   9 -11  -6   81.75    8.67
   7 -11  -6  401.75   21.98
   7  11  -6  401.68   22.87
   7 -11  -6  403.52   24.76
   7  11  -6  419.26   23.60
   5  11  -6  106.70   10.46
   5 -11  -6  110.54    8.49
   5 -11  -6  108.88   11.27
   5  11  -6   91.88    8.07
  -5 -11   6  109.35    8.83
   3  11  -6   50.29    5.44
  -3 -11   6   60.20    6.66
   3  11  -6   54.51    7.80
   3 -11  -6   55.17    6.71
   3 -11  -6   55.57    8.12
   1  11  -6   48.03    4.88
   1 -11  -6   37.35    7.17
  -1 -11   6   49.91    6.48
   1  11  -6   46.01    7.59
  -1  11  -6   63.70    5.40
  -1  11  -6   51.79    8.06
  -1 -11  -6   41.96    7.09
  -1 -11  -6   40.32    7.61
  -3  11  -6  122.34   12.06
  -3  11  -6  116.48    8.84
   3 -11   6  103.26   10.96
  -3 -11  -6   89.02   11.60
   5 -11   6   47.99    8.96
  -5 -11  -6   41.00    8.71
  -5  11  -6   51.25    8.28
  -7  11  -6   93.07   11.49
   7 -11   6  133.95   14.90
  -7 -11  -6  117.36   14.26
   9 -11   6   21.00    7.16
  -9 -11  -6   22.04    7.51
  11 -11   6   12.49    5.72
 -11 -11  -6   -1.80    6.26
 -13 -11  -6   -1.84    7.02
  13 -11   6   -5.29    5.69
 -15 -11  -6   17.10   10.77
  15 -11   6   11.95    8.51
  20 -12  -6   64.81   16.40
  20  12  -6   59.51   16.38
 -20 -12   6   48.94   11.91
  18  12  -6   31.23   11.01
  18 -12  -6   45.18   11.67
 -18 -12   6   19.52    8.27
 -16 -12   6   32.89    8.82
  16 -12  -6   45.18   11.40
  16  12  -6   48.90   11.93
 -14 -12   6   23.00    6.80
  14 -12  -6   19.22    7.24
  14 -12  -6    1.08    3.59
  14  12  -6    7.50    5.86
 -12 -12   6   66.94   10.04
  12  12  -6   63.10   10.99
  12  12  -6   70.39   10.05
  12 -12  -6   72.75   10.00
  12 -12  -6   76.61   12.65
  10  12  -6   -1.43    2.85
  10 -12  -6   -2.11    3.70
  10  12  -6    4.14    3.56
 -10 -12   6    1.04    3.52
  10 -12  -6    1.54    2.47
   8  12  -6  129.58   11.72
   8  12  -6   95.35   10.57
  -8 -12   6   85.69    9.64
   8 -12  -6  103.06   12.65
   8 -12  -6  102.23    8.68
   6 -12  -6  149.59   13.50
   6  12  -6  117.50    9.77
   6  12  -6  118.01   11.75
   6 -12  -6  116.45    9.14
   4  12  -6  570.04   31.86
  -4 -12   6  615.29   30.64
   4  12  -6  605.94   29.52
   4 -12  -6  607.23   32.87
   4 -12  -6  628.14   30.36
   2 -12  -6  195.19   12.82
  -2 -12   6  192.29   12.78
   2 -12  -6  176.70   14.10
   2  12  -6  169.22   13.61
   2  12  -6  176.96   10.59
   0  12  -6   79.71    9.91
   0  12  -6   68.59    5.68
   0 -12  -6   71.58    9.77
  -2 -12  -6  185.26   15.44
  -2  12  -6  203.76   15.24
   2 -12   6  179.77   14.15
  -2  12  -6  215.06   12.10
   4 -12   6    2.34    3.50
  -4  12  -6    3.95    3.55
  -4 -12  -6    4.51    4.75
  -6  12  -6   13.73    5.10
   6 -12   6    9.42    4.56
  -6 -12  -6    6.98    5.37
  -8 -12  -6    5.97    5.91
   8 -12   6   19.57    6.70
  -8  12  -6   29.65    6.99
 -10 -12  -6    3.79    5.91
  10 -12   6   13.17    6.82
  12 -12   6   37.01   10.38
 -12 -12  -6   19.83    9.33
 -14 -12  -6   40.14   12.98
  14 -12   6   28.98   10.05
  19  13  -6   15.88   10.35
 -19 -13   6    5.15    7.44
  19 -13  -6   24.64   10.69
 -17 -13   6   -5.75    4.96
  17  13  -6    1.14    6.20
  17 -13  -6   -3.24    5.18
 -15 -13   6   42.80    9.55
  15  13  -6   55.20   12.29
  15 -13  -6   49.50   11.99
  13  13  -6  119.35   15.63
 -13 -13   6  117.43   14.00
  13 -13  -6  130.44   16.92
  13  13  -6  140.70   14.04
 -11 -13   6   20.22    5.94
  11 -13  -6   26.13    7.11
  11  13  -6   24.32    6.20
  11 -13  -6   22.55    5.74
  11  13  -6   36.14    8.12
   9  13  -6   17.38    5.16
   9 -13  -6   29.46    5.34
   9 -13  -6   25.44    7.34
   9  13  -6   27.85    6.46
  -9 -13   6   29.68    5.91
  -7 -13   6    9.62    3.39
   7  13  -6   12.68    4.37
   7 -13  -6    5.86    2.75
   7 -13  -6    8.17    4.75
   7  13  -6   12.51    4.25
   5 -13  -6   33.83    7.26
  -5 -13   6   15.74    3.94
   5  13  -6   39.31    5.78
   5  13  -6   38.02    6.83
   5 -13  -6   35.59    5.44
   3  13  -6  108.17   11.50
  -3 -13   6  104.05    8.88
   3 -13  -6   79.70   10.57
   3  13  -6   96.78    7.38
   3 -13  -6   98.54    9.02
   1  13  -6  147.35    8.65
   1 -13  -6  124.93   13.15
   1  13  -6  120.86   12.61
   1 -13  -6  129.54   10.66
  -1 -13  -6    0.86    3.91
  -1  13  -6    8.72    3.67
  -1 -13  -6   -1.15    2.38
   1 -13   6    0.20    2.41
   3 -13   6  181.48   15.04
  -3  13  -6  203.08   15.57
  -3 -13  -6  213.67   16.74
  -5  13  -6   81.07   10.82
  -5 -13  -6   83.36   12.07
   5 -13   6   80.55   11.12
   7 -13   6    4.24    4.56
  -7 -13  -6   -0.41    4.86
  -7  13  -6   -1.63    3.17
   9 -13   6   48.89   11.15
  -9 -13  -6   39.52    9.66
  11 -13   6   -4.29    4.84
 -11 -13  -6    2.70    6.95
 -13 -13  -6   23.16   12.61
  13 -13   6   27.31   10.04
  15 -13   6   17.35   10.15
 -15 -13  -6   11.45   10.87
 -20 -14   6    4.20    7.01
  20 -14  -6    3.44    9.53
  18  14  -6   13.48    9.48
  18 -14  -6   17.12    9.88
 -18 -14   6   17.51    7.93
  16 -14  -6   21.45    9.30
 -16 -14   6    8.73    6.64
  16  14  -6   18.44    8.70
  14 -14  -6  189.11   21.23
 -14 -14   6  200.39   17.33
  14  14  -6  166.47   19.49
 -12 -14   6   55.93    9.78
  12 -14  -6   63.38   11.66
  12  14  -6   36.60    7.96
  12  14  -6   50.97   10.06
  10 -14  -6   55.72   10.41
  10  14  -6   45.33    8.63
  10  14  -6   37.24    8.09
 -10 -14   6   44.02    7.78
   8 -14  -6  180.78   17.44
  -8 -14   6  198.71   14.24
   8 -14  -6  186.39   12.74
   8  14  -6  159.50   13.98
   8  14  -6  183.13   14.26
   6  14  -6   57.98    9.18
   6 -14  -6   70.97    7.24
   6 -14  -6   48.52    9.21
   6  14  -6   57.01    7.41
   4 -14  -6   -0.42    2.46
   4  14  -6    0.43    2.32
  -4 -14   6    0.59    1.84
   4  14  -6    1.01    2.50
   4 -14  -6    0.41    3.47
   2  14  -6   94.41   11.53
   2 -14  -6  103.24    9.79
   2 -14  -6   99.98   11.98
   0 -14  -6   12.56    5.35
   0 -14  -6   10.27    4.04
   0 -14   6    7.56    3.67
   0  14  -6   21.55    5.75
   2 -14   6  293.54   19.74
  -2  14  -6  293.18   20.20
  -2 -14  -6  292.41   20.78
  -4 -14  -6  297.16   21.90
   4 -14   6  304.33   21.14
  -4  14  -6  312.79   20.83
   6 -14   6  169.16   16.29
  -6 -14  -6  147.91   16.56
  -6  14  -6  142.47   14.35
   8 -14   6   46.11   10.14
  -8  14  -6   68.66   10.43
  -8 -14  -6   56.22   11.10
  10 -14   6   46.98   10.95
 -10 -14  -6   52.42   11.79
  12 -14   6   22.21    9.53
 -12 -14  -6   27.86   10.31
  14 -14   6    4.61    7.48
 -14 -14  -6   13.83    9.86
 -19 -15   6   33.17   10.07
  19 -15  -6   17.31   10.66
 -17 -15   6    4.96    7.02
  17  15  -6   -5.39    5.74
  17 -15  -6    8.42    7.24
 -15 -15   6   44.15    9.31
  15  15  -6   23.65    9.41
  15 -15  -6   22.04    8.26
  13  15  -6   -3.36    3.76
 -13 -15   6    2.47    4.45
  13 -15  -6   -1.04    4.89
  13  15  -6    2.52    5.06
  11  15  -6    7.51    4.65
  11 -15  -6    0.55    4.08
  11  15  -6    2.25    4.49
 -11 -15   6    0.72    3.90
  -9 -15   6    3.40    3.09
   9 -15  -6    0.50    3.82
   9  15  -6   10.86    4.47
   9  15  -6    1.53    3.24
   7  15  -6   35.43    6.71
  -7 -15   6   42.45    7.12
   7 -15  -6   31.49    7.36
   7  15  -6   43.70    7.88
   5 -15  -6   41.96    8.68
   5  15  -6   56.37    9.23
  -5 -15   6   28.19    6.21
   5 -15  -6   56.51    6.36
   3  15  -6    1.03    2.87
   3 -15  -6    4.12    3.28
   3 -15  -6    1.98    4.21
  -3 -15   6   -2.51    2.16
   1  15  -6   21.25    5.89
   1 -15  -6   31.51    5.75
  -1 -15   6   15.83    4.67
   1 -15  -6   39.47    8.20
  -1 -15  -6   26.64    7.51
  -1  15  -6   27.81    6.94
   1 -15   6   29.19    6.65
  -1 -15  -6   31.28    6.49
   3 -15   6   33.19    7.32
  -3 -15  -6   36.22    8.44
  -3  15  -6   31.13    7.39
  -5  15  -6   14.43    5.52
   5 -15   6   15.38    5.17
  -5 -15  -6    7.90    5.89
  -7  15  -6   45.99    9.19
   7 -15   6   43.79    9.61
  -7 -15  -6   56.34   10.81
  -9 -15  -6   24.97    8.99
   9 -15   6   14.05    7.14
 -11 -15  -6    8.07    7.55
  11 -15   6    3.93    5.76
  13 -15   6    1.24    6.47
 -13 -15  -6    8.37    8.97
 -15 -15  -6   -2.99    9.91
  18 -16  -6    8.96    7.92
 -18 -16   6    5.63    7.02
  16 -16  -6   -2.45    5.75
  16  16  -6    2.35    7.20
 -16 -16   6    5.53    7.13
 -14 -16   6   49.65   10.06
  14 -16  -6   34.93    9.46
  14  16  -6   33.21    9.50
  12 -16  -6    7.64    6.15
  12  16  -6   23.10    7.66
  12  16  -6   20.12    7.15
 -12 -16   6   16.30    5.95
  10  16  -6   13.81    6.09
  10  16  -6   10.38    5.22
  10 -16  -6   25.38    7.12
 -10 -16   6   19.79    5.34
   8 -16  -6    1.16    3.14
   8  16  -6    0.78    3.54
  -8 -16   6    1.62    3.29
   8  16  -6    4.65    3.92
   6  16  -6   85.68   11.70
   6 -16  -6   74.83   11.38
  -6 -16   6   82.77   10.04
  -4 -16   6   95.16   10.70
   4  16  -6   97.60   12.40
   4 -16  -6   63.10   10.74
   2 -16  -6  142.30   14.75
   2  16  -6  110.14   13.38
  -2 -16   6   99.39   11.13
   2 -16  -6  134.17   10.32
   0 -16  -6   10.53    4.12
   0 -16  -6   12.85    4.90
   0  16  -6    1.54    3.97
   0 -16   6   -0.48    2.88
  -2  16  -6   23.56    6.74
  -2 -16  -6   21.94    6.66
  -2 -16  -6   22.56    5.60
   2 -16   6   28.35    6.79
   4 -16   6   14.55    5.74
  -4  16  -6    9.88    5.57
  -4 -16  -6    9.08    5.74
  -6  16  -6   22.95    7.04
  -6 -16  -6   29.05    8.73
   6 -16   6   24.70    7.48
   8 -16   6   28.05    8.12
  -8 -16  -6   21.11    8.85
  -8  16  -6   35.13    8.79
 -10 -16  -6    3.79    6.87
  10 -16   6    1.94    5.42
 -12 -16  -6    6.23    7.23
  12 -16   6    4.12    7.27
 -14 -16  -6   25.16   12.75
  14 -16   6    0.84    7.59
  19 -17  -6   48.72   15.17
 -19 -17   6   42.24   11.31
 -17 -17   6    5.71    7.43
  17 -17  -6   18.59   10.26
  15  17  -6    8.93    7.50
  15 -17  -6    1.30    5.76
 -15 -17   6    0.27    5.71
  13  17  -6    1.54    4.98
  13  17  -6    4.86    5.14
 -13 -17   6    2.03    4.55
  13 -17  -6    5.55    5.36
  11  17  -6    0.14    4.08
  11 -17  -6   -0.46    4.68
 -11 -17   6    3.81    3.68
  11  17  -6    1.25    3.83
   9  17  -6    6.55    4.35
   9 -17  -6    9.32    5.40
  -9 -17   6   14.41    4.70
  -7 -17   6    9.05    4.73
   7  17  -6    0.62    3.71
   7 -17  -6   10.23    5.36
   5  17  -6  127.18   14.26
  -5 -17   6  113.47   11.94
   5 -17  -6   94.13   13.03
   3 -17  -6  165.09   16.09
  -3 -17   6  168.57   13.66
   3  17  -6  153.91   16.01
   1  17  -6  117.11   14.19
  -1 -17   6  117.71   12.52
   1 -17  -6  118.71   13.96
  -1  17  -6   27.94    7.26
  -1 -17  -6   26.01    6.59
  -1 -17  -6   44.10    7.62
   1 -17   6   25.27    6.67
   3 -17   6    4.00    4.06
  -3 -17  -6   -0.41    3.76
  -3  17  -6    3.76    4.51
   5 -17   6   -0.94    3.45
  -5  17  -6    0.53    4.33
  -5 -17  -6    7.32    5.72
  -7 -17  -6   10.61    6.77
  -7  17  -6    9.78    6.05
   7 -17   6    0.54    4.61
   9 -17   6    8.20    7.30
  -9 -17  -6    2.12    6.87
  11 -17   6   40.00   11.20
 -11 -17  -6   12.64    9.17
 -13 -17  -6   27.55   12.21
  13 -17   6   28.02    9.58
 -18 -18   6    5.49    7.03
  18 -18  -6   -0.13    7.96
  16 -18  -6   19.56    8.54
 -16 -18   6   23.28    9.41
  14  18  -6   43.10   11.34
 -14 -18   6   61.75   11.64
  14 -18  -6   71.93   14.43
  12 -18  -6   74.45   13.73
  12  18  -6   60.94   11.72
 -12 -18   6   94.27   13.06
 -10 -18   6   95.46   12.90
  10  18  -6   89.48   13.67
  10 -18  -6   96.49   14.56
   8 -18  -6   14.39    5.66
   8  18  -6   10.32    5.50
  -8 -18   6   18.88    5.90
   6 -18  -6    3.89    3.97
   6  18  -6    5.81    4.33
  -6 -18   6    7.76    4.11
   4  18  -6   36.08    8.12
   4 -18  -6   62.42   10.42
  -4 -18   6   55.58    9.17
   2 -18  -6    4.67    4.19
  -2 -18   6    3.34    3.77
   2  18  -6    0.70    4.18
   0  18  -6    3.12    4.79
   0 -18  -6    7.51    5.43
   0 -18   6   10.81    4.96
  -2 -18  -6   33.10    8.88
   2 -18   6   29.65    7.87
  -2  18  -6   20.42    6.80
  -2 -18  -6   31.34    6.60
  -4  18  -6  103.85   13.54
   4 -18   6  107.74   14.32
  -4 -18  -6   72.32   12.61
  -6 -18  -6   31.26    9.15
   6 -18   6   21.10    7.39
  -6  18  -6   12.60    6.59
   8 -18   6   27.45    8.73
  -8 -18  -6   33.62   10.25
 -10 -18  -6    8.68    8.11
  10 -18   6    4.10    6.41
  12 -18   6    0.09    6.76
 -12 -18  -6    6.05    8.73
  17 -19  -6    0.78    7.38
 -17 -19   6    2.90    5.92
  15 -19  -6   42.97   14.37
 -15 -19   6    9.64    7.51
  13 -19  -6    7.64    7.44
  13  19  -6    2.97    5.12
 -13 -19   6   17.79    6.45
  11  19  -6   48.81   10.86
  11 -19  -6   39.39   10.66
 -11 -19   6   44.50    9.42
   9 -19  -6   35.47    9.05
  -9 -19   6   54.98    9.67
   9  19  -6   37.54    9.03
   7  19  -6    6.67    4.06
  -7 -19   6    8.54    4.44
   7 -19  -6    4.69    4.36
   5  19  -6   76.62   12.29
  -5 -19   6   72.55   10.48
   5 -19  -6   57.71   10.80
   3 -19  -6   13.93    5.26
  -3 -19   6   19.06    5.93
   3  19  -6   12.57    6.67
   1 -19  -6   57.76   10.76
  -1 -19   6   66.76   10.42
   1  19  -6   46.60    9.98
  -1 -19  -6   68.20   11.44
  -1  19  -6   46.59   10.08
   1 -19   6   35.51    7.92
   3 -19   6   13.63    6.18
  -3  19  -6   18.08    7.00
  -3 -19  -6    9.68    5.79
   5 -19   6  100.02   14.12
  -5  19  -6   79.98   12.55
  -5 -19  -6   60.04   11.64
  -7 -19  -6    9.73    6.77
   7 -19   6   10.92    6.24
  -7  19  -6    4.73    5.45
  -9 -19  -6   25.09    9.54
   9 -19   6   51.73   12.12
 -11 -19  -6   -9.67    6.12
  11 -19   6  -10.01    5.85
 -13 -19  -6   -2.97   10.40
  13 -19   6   -9.62    6.04
 -16 -20   6   15.71    6.99
  16 -20  -6    8.68    7.95
 -14 -20   6   32.01    9.14
  14 -20  -6   39.72   12.17
  12  20  -6   90.73   14.45
 -12 -20   6  100.03   14.25
  12 -20  -6  113.15   18.66
 -10 -20   6   79.17   12.03
  10 -20  -6   73.52   13.93
  10  20  -6   84.95   13.72
   8  20  -6   10.38    5.79
  -8 -20   6   18.14    6.25
   8 -20  -6    4.32    4.43
   6  20  -6   34.51    8.60
   6 -20  -6   36.78    8.93
  -6 -20   6   26.50    6.60
   4  20  -6   -1.95    2.95
  -4 -20   6    0.84    3.90
   4 -20  -6   -3.14    3.50
   2  20  -6    9.18    5.40
   2 -20  -6    3.56    3.92
  -2 -20   6    4.98    4.07
   0  20  -6   -0.17    4.51
   0 -20  -6    7.12    4.75
   0 -20   6    1.20    3.46
  -2  20  -6   81.91   13.02
  -2 -20  -6   82.10   13.42
   2 -20   6  106.98   14.23
   4 -20   6   49.10   10.08
  -4  20  -6   14.78    6.68
  -4 -20  -6   23.87    7.77
   6 -20   6    5.66    5.12
  -6  20  -6    4.31    5.83
  -6 -20  -6    0.60    5.06
  -8 -20  -6   14.58    8.51
   8 -20   6    7.14    6.86
  10 -20   6   -5.45    6.81
 -10 -20  -6   -3.38    6.67
 -12 -20  -6   24.15   12.54
  12 -20   6   -1.82    7.01
  17 -21  -6   10.11   10.81
 -17 -21   6    6.77    7.39
 -15 -21   6   -2.71    5.55
  15 -21  -6    0.03    7.56
  13  21  -6    9.91    6.48
  13 -21  -6   -4.05    6.29
 -13 -21   6    3.72    5.36
  11  21  -6    8.33    5.74
  11 -21  -6    9.82    6.59
 -11 -21   6   -0.72    4.06
   9  21  -6   -5.60    3.85
   9 -21  -6   -0.29    4.59
  -9 -21   6   -2.68    3.92
  -7 -21   6   25.01    7.18
   7  21  -6   35.74    9.06
   7 -21  -6   32.40    8.64
   5 -21  -6   19.58    7.11
   5  21  -6   11.85    5.63
  -5 -21   6   18.74    6.52
   3 -21  -6  263.30   21.41
   3  21  -6  259.25   21.99
  -3 -21   6  253.46   19.79
   1 -21  -6   23.78    7.85
   1  21  -6   16.13    7.32
  -1 -21   6    4.56    4.86
  -1  21  -6   14.86    7.28
   1 -21   6   17.22    6.08
  -1 -21  -6    5.92    4.78
   3 -21   6   13.51    6.03
  -3  21  -6   16.73    7.87
  -3 -21  -6   20.27    7.29
  -5 -21  -6    2.12    6.11
  -5  21  -6   -7.51    5.18
   5 -21   6   -0.82    4.87
   7 -21   6   -8.01    5.81
  -7  21  -6   -0.47    6.68
  -7 -21  -6    4.25    7.39
   9 -21   6   -1.55    6.84
  -9 -21  -6    8.57    7.57
  11 -21   6   25.67    9.75
 -11 -21  -6   20.68   11.42
 -16 -22   6   -0.38    6.61
  16 -22  -6   -4.93    8.22
  14 -22  -6   -7.28    6.09
 -14 -22   6    8.24    6.77
  12 -22  -6   23.50    9.49
  12  22  -6    9.46    7.12
 -12 -22   6    0.37    5.29
  10  22  -6   13.72    7.05
 -10 -22   6   18.71    7.07
  10 -22  -6    8.39    6.99
   8 -22  -6   22.66    8.37
  -8 -22   6   25.88    7.71
   8  22  -6   22.40    7.98
  -6 -22   6   11.57    5.57
   6 -22  -6    9.15    5.24
   6  22  -6   13.42    6.41
   4  22  -6   59.20   11.78
  -4 -22   6   77.81   11.83
   4 -22  -6  115.56   15.66
  -2 -22   6   51.66    9.71
   2 -22  -6   49.65   10.30
   2  22  -6   27.27    8.94
   0  22  -6    7.30    5.74
   0 -22  -6   -1.60    4.02
   0 -22   6    6.35    4.52
  -2 -22  -6    2.00    5.64
  -2  22  -6   10.12    6.31
   2 -22   6   -4.31    4.77
  -4 -22  -6    0.46    6.44
  -4  22  -6    1.68    5.69
   4 -22   6   -1.67    5.26
  -6 -22  -6    7.63    6.55
  -6  22  -6    4.65    6.53
   6 -22   6    8.91    6.38
   8 -22   6    2.18    6.92
  -8 -22  -6   -9.03    6.58
  10 -22   6   14.21    7.27
 -10 -22  -6   -3.72    7.98
 -15 -23   6   11.06    7.57
  15 -23  -6    5.02    8.91
 -13 -23   6   23.02    8.23
  13 -23  -6    7.49    8.33
  11 -23  -6   34.77    9.96
  11  23  -6   34.66   10.31
 -11 -23   6   29.75    8.24
  -9 -23   6   39.17    9.70
   9 -23  -6   12.89    7.33
   9  23  -6   37.94   10.44
  -7 -23   6   19.49    6.89
   7  23  -6    8.64    6.16
   7 -23  -6   15.99    6.64
   5  23  -6    3.91    6.24
  -5 -23   6   17.70    6.05
   5 -23  -6    4.57    5.05
   3 -23  -6    0.16    4.63
  -3 -23   6   -4.51    3.81
   3  23  -6    6.86    5.94
   1 -23  -6   14.38    6.58
   1  23  -6   16.75    7.94
  -1 -23   6   19.06    6.85
  -1  23  -6   10.92    7.12
   1 -23   6   18.49    7.05
  -1 -23  -6    6.89    5.39
   3 -23   6   31.48    8.57
  -3 -23  -6   18.24    7.63
  -3  23  -6    6.97    6.74
  -5 -23  -6   13.78    7.42
   5 -23   6   14.88    8.13
  -5  23  -6   29.80   10.06
   7 -23   6   38.72   12.32
  -7 -23  -6   29.77   10.27
  -7  23  -6   54.65   12.74
   9 -23   6   21.09    9.68
  -9 -23  -6   -6.91    7.38
 -14 -24   6   14.65    6.90
  14 -24  -6   -0.14    8.57
 -12 -24   6    7.31    6.94
  12 -24  -6   14.93    8.14
  12  24  -6    5.95    7.11
  10  24  -6    3.87    6.11
 -10 -24   6    8.88    5.75
  10 -24  -6    3.19    6.53
  -8 -24   6    2.00    4.98
   8  24  -6   17.38    7.55
   8 -24  -6   12.29    6.77
   6  24  -6   10.68    6.86
   6 -24  -6    1.49    5.91
  -6 -24   6    8.54    5.39
  -4 -24   6    3.02    4.96
   4 -24  -6    2.94    5.06
   4  24  -6   -1.98    4.62
   2  24  -6   -3.06    5.12
   2 -24  -6    0.15    4.48
  -2 -24   6    3.58    5.10
   0 -24   6   -3.31    4.53
   0 -24  -6    9.46    6.06
   0  24  -6    7.58    7.68
  -2 -24  -6    1.73    5.26
   2 -24   6    9.39    5.84
  -2  24  -6   -4.45    6.22
  -4  24  -6    5.19    7.17
  -4 -24  -6    1.08    6.28
   4 -24   6   15.52    7.87
   6 -24   6   -2.57    6.63
  -6  24  -6   -8.42    5.77
  -6 -24  -6   -5.14    5.71
   8 -24   6    3.77    6.71
  -8 -24  -6   11.59    8.77
 -13 -25   6   16.37    7.76
  13 -25  -6   -0.65    9.10
 -11 -25   6    9.29    7.14
  11  25  -6    8.73    6.89
  11 -25  -6   22.34    9.09
  -9 -25   6    6.53    6.26
   9 -25  -6    5.99    7.00
   9  25  -6    1.40    6.16
   7 -25  -6    5.32    5.80
  -7 -25   6    9.45    6.44
   7  25  -6    2.87    5.59
   5  25  -6    4.65    5.44
  -5 -25   6   -2.21    5.10
   5 -25  -6   -4.06    4.87
   3  25  -6   -0.12    6.06
   3 -25  -6    1.34    5.10
  -3 -25   6    0.81    4.80
  -1 -25   6    7.41    6.03
   1  25  -6    1.58    6.55
   1 -25  -6    1.74    5.10
  -1 -25  -6   -1.33    5.40
   1 -25   6    3.12    5.02
  -1  25  -6    8.77    7.31
  -3  25  -6    1.93    6.62
   3 -25   6    3.37    6.35
  -3 -25  -6    9.37    6.60
  -5  25  -6    9.89    7.93
   5 -25   6   16.14    8.98
  -5 -25  -6    9.87    7.56
   7 -25   6    6.69    7.79
  -7 -25  -6    4.18    8.48
 -12 -26   6    3.40    7.32
  12 -26  -6   -2.09    8.54
  10  26  -6   -5.51    4.86
 -10 -26   6    7.17    6.74
  10 -26  -6   11.51    8.33
  -8 -26   6   11.67    7.18
   8 -26  -6    6.67    6.26
   8  26  -6    6.84    7.47
   6  26  -6   14.12    7.88
  -6 -26   6   23.77    7.94
   6 -26  -6   18.89    8.61
   4  26  -6   24.90    9.13
   4 -26  -6   19.71    8.11
  -4 -26   6   29.87    7.98
   2  26  -6    7.77    7.30
   2 -26  -6   20.32    7.75
  -2 -26   6    9.59    6.72
   0 -26  -6   13.79    6.63
   0 -26   6   13.59    6.68
   0  26  -6   10.13    7.43
   2 -26   6    0.28    6.80
  -2  26  -6    6.26    6.93
  -2 -26  -6    8.38    6.16
  -4 -26  -6    1.58    6.94
   4 -26   6   -4.16    7.08
  -4  26  -6    4.01    7.97
   6 -26   6    3.26    7.43
  -6 -26  -6    4.88    8.26
  -6  26  -6    6.60    8.81
  11  27  -6    1.04    6.07
  11 -27  -6    3.04    7.97
   9  27  -6    5.81    6.49
   9 -27  -6   17.08    9.10
  -9 -27   6   -5.15    5.06
   7 -27  -6    2.48    5.43
   7  27  -6   -5.24    5.63
  -7 -27   6   11.86    6.88
   5 -27  -6   10.39    6.98
  -5 -27   6   -1.48    6.14
   5  27  -6   -0.83    6.05
   3  27  -6    5.32    7.64
   3 -27  -6    1.68    5.51
  -3 -27   6   -1.27    6.33
  -1 -27   6   -4.35    5.61
   1 -27  -6    3.91    6.02
   1  27  -6   19.36    8.85
  -1 -27  -6   12.72    7.56
   1 -27   6   -7.02    5.69
  -1  27  -6    1.09    7.77
   3 -27   6   11.53    8.06
  -3 -27  -6   16.01    8.97
  -3  27  -6   12.15    8.93
  -5  27  -6    5.63    8.32
   5 -27   6   -0.21    7.84
  -5 -27  -6   -7.20    6.85
  10 -28  -6    0.65    8.36
  10  28  -6    3.63    5.99
   8 -28  -6   -4.23    6.16
   8  28  -6    1.13    5.92
   6 -28  -6    9.99    7.51
  -6 -28   6    5.19    5.86
   6  28  -6   -6.30    5.60
   4 -28  -6    7.36    7.57
   4  28  -6    2.69    7.61
  -4 -28   6    2.00    6.15
   2 -28  -6   -7.97    5.74
   2  28  -6   14.19    8.98
  -2 -28   6    1.12    6.27
   0 -28  -6   21.14    9.36
   0 -28   6   13.62    7.97
   0  28  -6   13.07    9.76
  -2 -28  -6    9.00    8.29
  -2  28  -6    1.86    9.16
   2 -28   6   -4.13    6.49
  -4 -28  -6   -8.03    7.19
  -4  28  -6   13.01   10.53
   4 -28   6   10.83    8.65
   7  29  -6    6.45    5.27
   7 -29  -6    0.72    7.60
   5 -29  -6   -4.23    5.95
   5  29  -6    6.80    5.51
   3 -29  -6   -1.66    6.75
   3  29  -6   17.42   10.73
   1  29  -6   16.64   10.26
   1 -29  -6    2.03    6.65
  -1 -29  -6    9.13    7.74
  -1  29  -6    7.19    9.14
  -3 -29  -6   -3.42    8.18
  -3  29  -6    0.73    9.88
   6  30  -6    0.00    6.51
   4  30  -6   17.96   10.98
   4 -30  -6    8.45    7.62
   2 -30  -6    4.52    7.71
   2  30  -6   17.26   11.03
   0  30  -6    9.60   10.40
   0 -30  -6   -0.09    7.54
  22   0  -7    3.38    5.51
 -22   0   7   10.61    8.16
 -22   0   7   -9.82    5.75
 -20   0   7   -1.82    5.89
  20   0  -7    6.44    6.82
 -20   0   7    6.00    6.17
 -18   0   7    4.46    5.26
  18   0  -7    5.05    4.99
 -18   0   7   -7.37    3.66
  16   0  -7    1.82    3.85
 -16   0   7    1.53    3.95
 -16   0   7    0.44    4.20
  14   0  -7   -1.88    3.04
  14   0  -7   -0.55    3.75
  12   0  -7   -4.08    2.96
  12   0  -7    1.63    2.57
  10   0  -7   -0.15    2.69
  10   0  -7    0.83    1.85
  10   0  -7    2.85    1.51
   8   0  -7    3.79    2.24
   8   0  -7    2.65    2.56
   6   0  -7    3.44    2.15
   6   0  -7    0.90    1.74
   4   0  -7   -0.39    1.23
   4   0  -7   -0.09    2.03
   2   0  -7   -2.70    1.82
   2   0  -7    0.24    1.43
   0   0  -7    4.49    2.37
   0   0  -7    1.84    2.57
  -2   0  -7    4.96    2.95
  -4   0  -7    2.25    3.26
  -4   0  -7    0.40    2.70
  -6   0  -7    1.77    3.63
  -6   0  -7   -1.47    3.46
  -8   0  -7   -1.59    4.32
  -8   0  -7    3.83    4.13
 -10   0  -7    2.69    5.11
 -10   0  -7    2.87    5.23
 -12   0  -7   -0.78    6.18
 -14   0  -7    3.45    8.43
 -16   0  -7   -9.82    9.84
  21   1  -7   66.02   14.23
 -21   1   7   74.38   14.51
 -21  -1   7   54.16   11.68
 -21  -1   7   38.28   10.79
  21  -1  -7   47.50   12.97
 -21   1   7   42.38   11.39
  19   1  -7   13.11    7.57
  19  -1  -7   12.08    7.07
 -19   1   7   14.64    7.70
 -19   1   7   11.54    6.39
 -19  -1   7   18.87    7.73
 -19  -1   7   15.89    8.36
 -17   1   7    1.54    5.28
  17   1  -7   -0.52    3.35
 -17  -1   7    6.65    5.40
 -17   1   7   -1.48    3.76
  17  -1  -7   -1.98    3.79
 -17  -1   7   -3.07    4.08
  15  -1  -7   73.86   12.44
 -15  -1   7   27.81    7.12
  15   1  -7   49.34    9.79
  15  -1  -7   52.79   10.51
 -15  -1   7   58.59    9.87
 -13  -1   7   36.25    6.66
  13   1  -7   43.99    8.15
  13  -1  -7   25.40    6.43
  13  -1  -7   31.55    7.33
 -13  -1   7   29.91    6.38
  11  -1  -7   80.67   10.10
  11  -1  -7   51.32    8.39
  11   1  -7   76.82    9.89
  11   1  -7   96.14   10.69
   9   1  -7   93.65    9.19
   9   1  -7   85.92    6.36
   9  -1  -7   96.19    9.79
   9   1  -7   98.30   10.10
   9  -1  -7   81.54    8.96
   7  -1  -7   44.07    6.32
   7  -1  -7   45.49    5.69
   7   1  -7   43.40    5.25
   7   1  -7   60.41    7.08
   5  -1  -7  215.04   13.75
   5   1  -7  227.29   11.38
   5   1  -7  242.28   14.14
   5  -1  -7  219.81   11.91
   3  -1  -7   52.03    6.37
   3  -1  -7   39.97    3.59
   3   1  -7   48.68    6.02
   1   1  -7   97.44    8.17
   1  -1  -7   83.12    8.66
   1   1  -7   95.97    5.80
   1  -1  -7   79.14    6.11
  -1  -1  -7   15.61    4.29
  -1  -1  -7    8.69    3.19
  -1   1  -7    9.19    3.14
  -1   1  -7   12.32    3.91
  -3   1  -7    2.02    2.68
  -3   1  -7    6.75    3.41
  -3  -1  -7    4.23    3.22
  -5   1  -7   79.74    9.59
  -5  -1  -7   57.61    8.71
  -5   1  -7   62.35    8.26
  -7   1  -7   17.67    5.54
  -7  -1  -7    8.74    4.96
  -7   1  -7    9.16    4.98
  -9   1  -7   91.53   13.45
  -9   1  -7   92.54   12.78
  -9  -1  -7   79.57   13.17
 -11   1  -7  109.04   14.82
 -11   1  -7  102.76   15.65
 -11  -1  -7   62.20   13.11
 -13  -1  -7   67.33   14.32
 -13   1  -7   58.71   12.70
 -13   1  -7   56.03   13.22
 -15   1  -7   36.02   13.68
 -15  -1  -7   47.03   14.44
 -22   2   7   -6.38    6.26
  22  -2  -7   -4.41    6.17
 -22   2   7    7.70    7.66
 -22  -2   7   -5.62    6.23
  22   2  -7    6.01    5.88
 -20   2   7    7.25    7.16
 -20   2   7   -1.73    7.82
 -20  -2   7    9.51    7.25
 -20  -2   7    9.24    7.68
  20   2  -7   -2.67    5.42
  20  -2  -7    6.38    6.63
  18   2  -7    7.32    5.71
 -18  -2   7    4.54    4.92
 -18  -2   7    8.79    5.69
  18  -2  -7    0.71    4.77
  16  -2  -7  178.77   19.54
  16  -2  -7  167.98   18.99
 -16  -2   7  184.53   17.21
  16   2  -7  160.42   18.78
 -16  -2   7  172.16   17.60
 -14  -2   7  537.01   30.80
 -14  -2   7  540.07   29.59
  14  -2  -7  496.63   31.85
  14  -2  -7  472.29   31.22
  14   2  -7  513.81   32.33
  12  -2  -7  522.87   30.15
 -12  -2   7  486.38   28.29
 -12  -2   7  485.74   27.23
  12  -2  -7  491.40   29.37
  12   2  -7  527.47   30.12
  10   2  -7  195.59   14.66
  10  -2  -7  205.32   14.77
  10  -2  -7  203.14   14.77
  10   2  -7  208.71   11.35
   8   2  -7  341.59   17.86
   8  -2  -7  351.32   19.75
   8   2  -7  348.14   20.31
  -8  -2   7  350.16   18.05
  -8  -2   7  356.96   18.87
   8  -2  -7  350.39   20.41
  -6  -2   7   13.85    2.45
   6  -2  -7   18.77    3.58
  -6  -2   7   15.33    2.57
   6  -2  -7   17.85    3.92
   6   2  -7   14.66    3.87
   4   2  -7   16.32    3.87
   4  -2  -7   24.75    3.23
   4  -2  -7   36.80    5.50
   2  -2  -7  431.61   23.08
   2   2  -7  393.27   22.20
   2  -2  -7  445.61   20.30
   0  -2  -7 1815.67   80.17
   0   2  -7 1865.34   76.26
   0  -2  -7 1869.69   83.36
   0   2  -7 1880.03   79.62
   0   2  -7 1838.65   82.48
  -2   2  -7 1014.50   45.05
  -2   2  -7  992.04   46.78
  -2  -2  -7 1030.30   47.04
  -4   2  -7  596.32   30.08
  -4  -2  -7  577.12   31.04
  -4   2  -7  594.09   31.21
  -6   2  -7  467.19   27.09
  -6  -2  -7  462.88   27.81
  -6   2  -7  497.82   28.46
  -8   2  -7   15.83    6.07
  -8  -2  -7   16.85    6.61
  -8   2  -7   19.77    6.34
 -10   2  -7   -1.37    5.07
 -10   2  -7   -0.33    5.43
 -10  -2  -7   -0.84    4.82
 -12   2  -7    6.31    5.91
 -12  -2  -7   15.32    8.68
 -12   2  -7    3.81    6.22
 -14   2  -7    4.02    8.04
 -14   2  -7   -2.20    6.59
 -14  -2  -7    2.92    7.95
 -16   2  -7   -3.69    8.95
 -16  -2  -7   -0.07    9.96
  21   3  -7   -1.15    6.37
  21  -3  -7   10.83    7.07
 -21   3   7    1.34    6.76
 -21  -3   7    1.35    6.26
 -21   3   7   -0.05    8.36
  19   3  -7    7.46    6.77
 -19  -3   7   -1.25    5.33
  19  -3  -7    9.69    7.16
 -19  -3   7   16.08    7.21
 -17  -3   7   92.29   13.26
  17   3  -7   73.88   13.79
  17  -3  -7   84.06   14.28
 -17  -3   7   61.50   11.33
  17  -3  -7   71.79   13.45
 -15  -3   7  216.82   16.97
  15  -3  -7  168.45   18.24
  15   3  -7  197.04   19.76
 -15  -3   7  190.39   15.79
  15  -3  -7  181.98   18.88
  13  -3  -7  303.40   22.38
 -13  -3   7  331.30   20.75
  13   3  -7  377.50   23.77
 -13  -3   7  340.99   21.88
  13  -3  -7  293.14   21.75
  11  -3  -7  201.93   15.20
  11   3  -7  217.93   11.64
  11   3  -7  189.54   14.96
 -11  -3   7  194.98   13.36
 -11  -3   7  172.54   13.53
  11  -3  -7  177.14   14.20
   9  -3  -7  180.86   13.18
  -9  -3   7  169.09   11.44
   9  -3  -7  178.81   13.25
   9   3  -7  206.19   11.23
   9   3  -7  168.67   13.18
  -9  -3   7  189.42   12.47
   7  -3  -7    7.65    2.97
   7   3  -7    7.73    3.02
   7   3  -7    4.68    2.12
  -7  -3   7   10.37    2.90
   7  -3  -7    6.62    3.05
  -5  -3   7  182.25    8.97
   5  -3  -7  176.91   10.83
   5   3  -7  193.55   12.00
   5  -3  -7  182.89   12.15
   3  -3  -7    2.30    2.01
   3   3  -7    4.27    2.35
   3  -3  -7    4.26    2.54
   1  -3  -7   14.89    3.59
   1  -3  -7   21.05    4.94
   1   3  -7   16.34    3.83
  -1   3  -7   44.25    6.76
   1  -3   7   45.48    5.50
  -1  -3  -7   52.23    7.53
  -1  -3  -7   39.94    5.66
   3  -3   7    8.43    3.62
  -3  -3  -7   15.73    4.40
  -5  -3  -7   14.35    5.43
  -7   3  -7   38.19    7.80
  -7   3  -7   27.22    7.13
  -7  -3  -7   22.92    6.72
  -9  -3  -7   21.19    7.55
  -9   3  -7   25.35    8.06
  -9   3  -7   34.77    8.70
 -11   3  -7    5.30    6.31
 -11   3  -7   -0.52    5.63
 -11  -3  -7    9.75    7.36
 -13  -3  -7    7.58    8.88
 -13   3  -7   -6.05    6.02
 -13   3  -7    7.06    7.39
 -15   3  -7   -0.76    8.30
 -15  -3  -7    0.79    8.35
 -15   3  -7    1.66    8.73
  22   4  -7   -2.29    4.72
 -22   4   7   19.52   10.30
  22  -4  -7   24.38    9.36
 -22  -4   7    7.43    7.74
 -22   4   7   28.18   11.86
  20   4  -7   33.90   11.20
  20  -4  -7   17.87    8.71
 -20  -4   7    5.24    6.98
  18  -4  -7    2.49    5.16
  18   4  -7   -3.18    5.13
  18  -4  -7   -5.53    5.20
 -18  -4   7    1.37    5.06
 -16  -4   7   -0.42    4.07
  16  -4  -7    5.47    5.06
  16  -4  -7   -1.92    4.73
  16   4  -7   -1.15    4.49
  14   4  -7   19.24    6.21
  14  -4  -7    9.12    5.11
 -14  -4   7   11.14    5.22
 -14  -4   7   14.71    4.42
  14  -4  -7   14.98    5.56
  12  -4  -7   65.91    9.70
 -12  -4   7   70.60    9.54
  12  -4  -7   56.14    9.58
  12   4  -7   67.27   10.13
 -12  -4   7   54.17    7.87
  10  -4  -7    2.93    2.45
  10   4  -7    6.63    2.46
 -10  -4   7    3.74    2.94
  10   4  -7    4.60    2.69
  10  -4  -7    4.67    3.21
   8  -4  -7  160.34   11.63
  -8  -4   7  153.10   10.38
   8   4  -7  165.43   12.07
   8  -4  -7  137.40   11.23
   8   4  -7  158.58   10.13
  -6  -4   7   14.89    2.51
   6  -4  -7   20.00    4.12
   6  -4  -7   17.13    4.04
   6   4  -7    9.01    3.02
   6   4  -7   15.15    3.63
   4  -4  -7   18.96    4.41
   4   4  -7   23.46    4.27
   4  -4  -7   17.51    3.56
   2  -4  -7   76.50    6.93
   2   4  -7   84.01    7.70
   2  -4  -7   85.88    8.68
   0  -4  -7   56.44    7.71
   0   4  -7   45.24    6.33
   0  -4   7   48.48    5.02
   0  -4  -7   48.49    5.97
   2  -4   7  251.19   15.25
  -2  -4  -7  233.32   15.07
  -2   4  -7  246.05   15.84
   4  -4   7   11.36    4.32
  -4  -4  -7   12.05    4.43
  -6  -4  -7    3.36    4.01
   6  -4   7    8.53    4.85
  -8  -4  -7   -3.48    4.21
 -10   4  -7   28.71    8.86
 -10  -4  -7   20.99    7.87
 -10   4  -7   23.86    8.04
 -12   4  -7   56.05   11.98
 -12   4  -7   54.88   11.34
 -12  -4  -7   19.38    8.88
 -14  -4  -7   -5.02    7.79
 -14   4  -7   -8.52    6.30
 -14   4  -7    2.82    7.83
 -16   4  -7    8.01   10.84
 -16  -4  -7   14.99   11.66
 -16   4  -7   12.45   10.56
  21   5  -7   16.51    8.22
  21  -5  -7   18.58    9.02
 -21  -5   7   21.59    8.26
  19  -5  -7   29.23    9.72
 -19  -5   7   62.62   12.49
  19  -5  -7   55.94   13.52
  19   5  -7   54.89   13.03
  17  -5  -7   52.07   11.40
  17   5  -7   99.11   15.72
 -17  -5   7   82.48   12.62
  17  -5  -7   79.16   13.91
  15   5  -7    6.28    4.52
 -15  -5   7    1.41    4.33
  15  -5  -7    3.97    3.99
  15  -5  -7    5.18    5.50
  13  -5  -7   40.83    8.52
  13  -5  -7   66.40    9.97
 -13  -5   7   48.06    8.96
  13   5  -7   43.41    8.83
  11   5  -7   37.09    7.46
  11   5  -7   33.47    5.08
  11  -5  -7   32.24    6.98
  11  -5  -7   30.93    6.45
 -11  -5   7   13.04    4.74
  -9  -5   7   82.99    8.19
   9  -5  -7   76.54    8.78
   9   5  -7   71.82    7.00
   9  -5  -7   67.69    8.73
   9   5  -7   70.83    8.82
   7   5  -7   56.37    7.01
  -7  -5   7   58.07    5.51
   7  -5  -7   63.71    7.50
   7  -5  -7   70.94    7.64
  -5  -5   7  182.12    9.48
   5   5  -7  169.90   12.17
   5  -5  -7  190.21   12.35
   5   5  -7  181.45   11.88
   5  -5  -7  193.86   11.92
   3   5  -7   58.07    6.22
   3  -5  -7   59.40    6.22
   3  -5  -7   51.92    6.83
  -3  -5   7   52.29    3.58
   1  -5  -7    9.11    3.41
  -1  -5   7    8.49    2.47
   1  -5  -7   14.13    4.10
   1   5  -7    6.96    3.03
  -1  -5  -7  143.27   11.27
   1  -5   7  106.33    8.91
  -1  -5  -7  149.98   10.56
  -1   5  -7  124.67    9.83
  -3  -5  -7    1.84    3.11
   3  -5   7   -0.49    3.00
   5  -5   7   10.88    4.03
  -5  -5  -7    0.02    3.94
   7  -5   7   17.87    6.11
  -7  -5  -7   19.03    6.44
  -9  -5  -7   21.65    7.96
 -11  -5  -7  135.23   17.46
 -11   5  -7  128.92   17.23
 -11   5  -7  114.89   15.82
 -13   5  -7  109.84   17.41
 -13  -5  -7   89.29   16.68
 -13   5  -7   93.33   17.10
 -15   5  -7   33.75   11.60
 -15  -5  -7   20.28   11.20
 -15   5  -7   38.89   12.97
  22  -6  -7    1.74    6.33
  22   6  -7   16.09   11.76
 -22  -6   7   26.63    8.73
 -20  -6   7   -3.72    5.48
  20  -6  -7   -4.82    6.27
  20   6  -7    6.21    7.84
  20  -6  -7   -8.07    6.33
  18  -6  -7    6.60    6.06
  18  -6  -7    2.97    5.62
 -18  -6   7    5.55    5.14
  18   6  -7    9.60    7.58
 -16  -6   7   44.07    9.07
  16  -6  -7   33.88    8.89
  16   6  -7   22.64    8.04
  16  -6  -7   35.40    9.43
  14   6  -7   47.39   10.07
  14  -6  -7   38.84    8.59
 -14  -6   7   38.29    8.24
  14  -6  -7   39.71    9.18
 -12  -6   7   38.71    7.48
  12   6  -7   35.12    7.66
  12  -6  -7   36.29    7.18
  12  -6  -7   36.75    8.06
  10  -6  -7   44.09    7.82
  10   6  -7   32.93    6.69
 -10  -6   7   19.04    4.86
  10  -6  -7   42.70    7.05
  10   6  -7   46.91    5.97
  -8  -6   7  491.20   24.79
   8   6  -7  506.11   26.91
   8  -6  -7  463.55   26.15
   8  -6  -7  513.82   27.24
   6   6  -7  727.65   35.05
   6   6  -7  715.94   35.45
   6  -6  -7  745.09   35.71
   6  -6  -7  743.16   35.64
  -6  -6   7  716.11   32.97
   4   6  -7  239.95   15.12
   4  -6  -7  223.40   13.89
  -4  -6   7  230.08   11.75
   4  -6  -7  224.79   14.46
   4   6  -7  243.33   13.90
  -2  -6   7   72.79    5.16
   2  -6  -7   67.52    7.16
   2   6  -7   79.41    7.29
   2  -6  -7   69.52    8.00
   0  -6  -7  111.43    9.22
   0  -6   7  112.05    8.11
   0   6  -7  107.48    8.63
   0  -6  -7  106.49   10.69
  -2  -6  -7   96.18    9.45
   2  -6   7   85.87    8.76
  -2   6  -7   98.50    9.50
   4  -6   7    3.62    3.09
  -4  -6  -7    1.13    3.74
   6  -6   7   31.98    7.48
  -6  -6  -7   34.84    7.63
  -8  -6  -7   12.52    6.76
   8  -6   7   18.53    6.39
 -10  -6  -7   32.72    9.22
  10  -6   7   33.30    9.14
 -12   6  -7  114.97   17.57
 -12  -6  -7   63.21   14.29
 -12   6  -7  109.09   16.02
 -14  -6  -7   11.89    9.77
 -14   6  -7   28.10   11.62
 -14   6  -7   27.80   10.53
 -16   6  -7   -1.14    9.78
 -16   6  -7    5.73    9.99
 -16  -6  -7   -4.74   10.03
  21  -7  -7    8.11    8.73
  21  -7  -7   -3.78    7.36
 -21  -7   7    5.25    6.62
  21   7  -7   -0.73    7.90
  19  -7  -7   12.12    8.19
 -19  -7   7   21.21    8.30
  19   7  -7   36.62   11.27
  19  -7  -7   32.44   10.05
  17  -7  -7  125.70   17.15
  17  -7  -7   89.48   15.45
  17   7  -7  129.62   18.26
 -17  -7   7  112.44   15.51
  15  -7  -7   80.63   12.84
  15  -7  -7   67.46   12.13
  15   7  -7   75.61   13.19
 -15  -7   7   82.40   11.90
  13   7  -7  112.36   13.92
 -13  -7   7  130.73   13.18
  13  -7  -7  100.03   12.55
  13  -7  -7  102.75   13.64
  11   7  -7  389.46   24.11
  11   7  -7  358.01   20.61
  11  -7  -7  389.12   24.31
  11  -7  -7  381.82   23.31
  -9  -7   7  320.26   18.53
   9  -7  -7  338.47   20.79
   9  -7  -7  352.19   20.12
   9   7  -7  301.43   17.98
   9   7  -7  319.05   20.04
   7   7  -7   -0.03    1.86
  -7  -7   7    8.85    2.58
   7  -7  -7    1.00    3.00
   7   7  -7    4.05    2.56
   7  -7  -7    3.97    2.22
   5   7  -7   42.82    5.72
  -5  -7   7   36.05    4.03
   5  -7  -7   33.68    5.52
   5  -7  -7   44.65    6.35
   5   7  -7   26.81    5.08
   3   7  -7  114.30    9.49
  -3  -7   7   98.74    6.49
   3  -7  -7  100.35    9.11
   3  -7  -7   98.89    8.75
   3   7  -7   89.29    7.44
   1  -7  -7  333.28   19.07
   1   7  -7  348.62   18.35
  -1  -7   7  351.65   17.52
   1  -7  -7  300.40   19.53
   1  -7   7  635.64   30.85
  -1  -7  -7  601.29   31.55
  -1  -7  -7  601.67   32.63
  -1   7  -7  622.85   30.87
  -3   7  -7  439.46   24.69
  -3  -7  -7  456.93   25.60
  -5  -7  -7 1026.58   52.63
   5  -7   7 1106.93   53.71
   7  -7   7   85.67   12.28
  -7  -7  -7   90.17   12.59
  -9  -7  -7   23.71    7.63
   9  -7   7   34.36    9.19
  11  -7   7    0.11    5.46
 -11  -7  -7   10.26    6.66
 -13   7  -7    2.64    8.48
 -13   7  -7    9.69    8.89
 -13  -7  -7    2.07    7.81
 -15  -7  -7   25.96   12.85
 -15   7  -7   18.62   10.52
 -15   7  -7   15.14   10.55
  22  -8  -7    5.32    7.74
  22   8  -7   20.58   12.26
  22  -8  -7   -1.78    8.55
 -22  -8   7   12.43    8.54
 -20  -8   7   31.02    9.66
  20  -8  -7   36.11   11.13
  20   8  -7   18.07    8.90
  20  -8  -7   15.12    8.86
  18  -8  -7   -3.59    5.10
 -18  -8   7    2.90    5.05
  18   8  -7    5.61    6.12
  18  -8  -7    4.89    4.84
  16  -8  -7    9.12    5.24
  16  -8  -7    9.05    6.65
 -16  -8   7    6.70    4.48
  16   8  -7    7.00    6.14
  14  -8  -7   52.02    9.77
 -14  -8   7   35.19    7.86
  14  -8  -7   24.55    7.46
  14   8  -7   32.25    8.59
  12  -8  -7   -1.33    3.15
  12  -8  -7   -0.18    2.28
  12   8  -7    3.46    3.75
 -12  -8   7   -1.58    2.75
  12   8  -7   -0.52    2.68
  10  -8  -7   84.83    9.83
  10   8  -7   90.62   10.81
  10   8  -7   89.06    9.02
  10  -8  -7   87.99   11.05
   8   8  -7   69.70    8.41
   8  -8  -7   74.14    9.11
  -8  -8   7   62.64    6.79
   8  -8  -7   88.15    8.63
   8   8  -7   59.90    7.53
   6   8  -7  329.10   19.20
  -6  -8   7  332.31   17.75
   6   8  -7  334.49   19.60
   6  -8  -7  368.92   19.81
   6  -8  -7  372.08   20.69
   4  -8  -7  159.49   11.75
   4  -8  -7  172.42   11.61
   4   8  -7  150.56   11.63
   4   8  -7  135.44   10.05
  -4  -8   7  164.64    9.67
  -2  -8   7   66.14    5.46
   2  -8  -7   75.28    8.29
   2  -8  -7   63.14    7.77
   2   8  -7   55.07    7.74
   2   8  -7   63.07    6.34
   0  -8  -7   20.14    5.08
   0  -8   7   10.20    3.48
   0   8  -7   20.40    5.28
   0   8  -7   18.21    3.88
   0  -8  -7   20.95    5.19
   2  -8   7    7.65    3.59
  -2  -8  -7    6.94    3.85
  -2   8  -7    0.81    2.51
   4  -8   7    2.82    3.28
  -4  -8  -7    3.19    3.68
  -6  -8  -7    1.06    4.33
   6  -8   7    4.08    3.77
   8  -8   7   30.39    7.80
  -8  -8  -7   22.08    7.61
 -10  -8  -7   35.22    9.66
  10  -8   7   29.61    8.70
 -12  -8  -7   17.05    9.38
  12  -8   7   15.43    7.82
 -14   8  -7   -7.88    6.93
 -14   8  -7   -2.43    7.97
 -14  -8  -7   -0.68    7.32
 -16   8  -7   24.82   14.57
 -16   8  -7   16.17   13.22
 -16  -8  -7   -5.68   10.44
 -21  -9   7    7.46    7.15
  21  -9  -7    7.32    7.85
  21   9  -7   21.51   11.22
  21  -9  -7   -7.88    6.33
 -19  -9   7   11.22    7.40
  19   9  -7   25.55    9.64
  19  -9  -7    1.09    6.89
  19  -9  -7    8.07    7.50
 -17  -9   7    3.79    5.14
  17   9  -7   -0.71    5.91
  17  -9  -7    6.66    5.79
  17  -9  -7    6.90    5.94
 -15  -9   7   -5.34    3.81
  15  -9  -7    1.49    3.81
  15  -9  -7   -1.61    4.34
  15   9  -7    0.69    4.64
  13  -9  -7    2.54    3.93
  13  -9  -7   -4.53    2.35
 -13  -9   7   -2.01    3.10
  13   9  -7    6.50    4.28
  11   9  -7  116.36    9.75
  11  -9  -7  105.38   11.25
 -11  -9   7   91.53   10.42
  11   9  -7  109.07   12.39
  11  -9  -7  111.28   13.37
   9   9  -7    1.36    2.58
   9   9  -7    5.31    3.30
  -9  -9   7    6.13    2.80
   9  -9  -7    9.18    4.59
   9  -9  -7    0.50    2.10
   7   9  -7    0.85    2.29
   7  -9  -7   12.72    4.26
   7   9  -7    5.71    2.96
   7  -9  -7   13.32    3.51
  -7  -9   7    9.01    3.13
   5   9  -7   13.77    3.61
   5   9  -7    7.60    3.09
   5  -9  -7   15.64    4.92
   5  -9  -7   15.31    3.89
  -5  -9   7   17.38    3.56
   3  -9  -7   51.46    7.15
  -3  -9   7   72.59    5.84
   3  -9  -7   40.38    6.90
   3   9  -7   59.44    6.03
   3   9  -7   54.50    7.80
   1  -9  -7    7.75    3.71
   1   9  -7   10.78    3.19
   1  -9  -7    4.40    3.40
   1   9  -7    8.05    3.82
  -1  -9   7    8.32    2.85
   1  -9   7   18.48    4.63
  -1   9  -7   20.02    4.15
  -1   9  -7   25.60    5.90
  -1  -9  -7   16.88    4.84
  -1  -9  -7    9.37    4.36
  -3  -9  -7  295.33   20.42
  -3   9  -7  345.24   19.57
  -3   9  -7  340.79   21.41
  -5   9  -7   31.14    7.33
  -5  -9  -7   19.09    6.22
   5  -9   7   44.54    8.07
  -7   9  -7   22.38    6.30
  -7  -9  -7   14.78    6.12
   7  -9   7   21.10    6.70
  -9   9  -7    5.94    5.32
  -9  -9  -7   -8.99    3.89
   9  -9   7    6.37    5.84
 -11  -9  -7    7.27    8.05
  11  -9   7   16.21    7.15
  13  -9   7    5.70    8.38
 -13  -9  -7   -0.99    7.48
 -15   9  -7   -8.24    9.67
 -15   9  -7    4.00   10.31
 -15  -9  -7   -1.95    8.82
 -20 -10   7   34.01   10.57
  20 -10  -7   45.40   13.23
  20  10  -7   27.97   10.93
  20 -10  -7   27.99   10.64
  18 -10  -7    0.70    5.61
 -18 -10   7    2.79    6.07
  18  10  -7   11.86    8.18
  18 -10  -7    1.70    5.80
  16  10  -7    2.98    5.13
 -16 -10   7   -1.57    4.60
  16 -10  -7    0.14    4.89
  16 -10  -7    6.87    5.26
  14 -10  -7    0.23    3.95
  14  10  -7    2.21    4.21
 -14 -10   7    7.67    4.79
  14 -10  -7    0.46    4.21
  12 -10  -7   11.82    4.57
  12 -10  -7   14.67    5.49
  12  10  -7    7.30    3.79
 -12 -10   7   12.46    4.06
  12  10  -7    8.09    4.60
  10  10  -7   57.57    8.84
  10 -10  -7   48.97    7.54
  10 -10  -7   41.21    8.39
   8  10  -7  244.94   16.40
  -8 -10   7  242.01   15.41
   8 -10  -7  275.28   18.81
   8  10  -7  265.25   17.03
   6 -10  -7  697.31   36.12
  -6 -10   7  669.53   33.04
   6  10  -7  689.07   35.03
   6  10  -7  710.47   34.39
  -4 -10   7  360.77   18.95
   4  10  -7  353.80   20.97
   4  10  -7  350.20   18.82
   4 -10  -7  322.15   20.49
  -2 -10   7  193.31   11.69
   2 -10  -7  153.78   12.93
   2 -10  -7  184.90   13.04
   2  10  -7  165.40   13.36
   2  10  -7  184.40   11.21
   0 -10  -7   41.54    7.07
   0  10  -7   38.31    7.26
   0 -10   7   39.92    5.99
   0 -10  -7   32.22    6.81
   0  10  -7   43.54    5.32
  -2  10  -7   27.66    4.97
  -2 -10  -7   22.19    6.46
   2 -10   7   27.25    5.66
  -2  10  -7   14.50    4.81
  -4  10  -7    8.67    4.46
  -4 -10  -7   12.67    5.38
  -4  10  -7   11.47    4.01
   4 -10   7    8.41    4.38
  -6 -10  -7   40.67    8.62
   6 -10   7   45.97    9.26
  -6  10  -7   61.50    9.66
  -8  10  -7  146.86   14.93
   8 -10   7  155.35   16.93
  -8 -10  -7  136.60   16.10
  10 -10   7   56.96   11.64
 -10 -10  -7   39.53   10.25
 -12 -10  -7   79.32   14.61
  12 -10   7   44.04   11.85
  14 -10   7   31.30   10.00
 -14 -10  -7   13.67   10.81
 -21 -11   7   -8.81    6.12
  21 -11  -7    0.27    8.32
  21  11  -7    8.21    9.94
 -19 -11   7    6.17    6.26
  19  11  -7   -9.42    6.00
  19 -11  -7   -1.67    6.62
 -17 -11   7   34.43    8.64
  17 -11  -7   15.35    8.43
  17  11  -7   18.68    8.68
  17 -11  -7    4.07    6.25
  15 -11  -7  180.15   18.64
  15 -11  -7  188.40   20.63
  15  11  -7  197.10   20.97
 -15 -11   7  220.46   18.09
  13 -11  -7  105.49   12.29
  13 -11  -7  102.23   14.39
 -13 -11   7  113.88   12.88
  13  11  -7   81.35   12.65
  11 -11  -7    1.88    3.71
 -11 -11   7    7.41    4.33
  11  11  -7    1.55    2.45
  11 -11  -7   -2.43    1.78
  11  11  -7    1.49    3.32
   9  11  -7   12.81    4.37
  -9 -11   7   12.19    3.38
   9 -11  -7    5.94    2.52
   9  11  -7   14.80    4.78
   9 -11  -7   21.79    6.37
  -7 -11   7    7.82    3.26
   7 -11  -7   10.39    4.82
   7  11  -7   11.29    3.70
   7 -11  -7   10.56    3.30
   7  11  -7    9.95    3.72
   5 -11  -7    4.22    2.45
  -5 -11   7    8.47    3.42
   5  11  -7    3.36    2.54
   5  11  -7    8.25    3.32
   5 -11  -7    3.82    4.05
   3  11  -7   23.30    4.20
  -3 -11   7   20.81    4.40
   3  11  -7   29.56    6.00
   3 -11  -7   25.47    6.34
   1  11  -7    9.38    4.10
   1 -11  -7   22.10    5.28
  -1 -11   7    9.81    3.44
   1 -11  -7    9.74    4.41
   1  11  -7   10.84    2.92
   1 -11   7  101.67    9.88
  -1  11  -7   91.68    7.46
  -1 -11  -7   89.44   10.58
  -1 -11  -7   79.62   10.67
  -1  11  -7   95.28   11.05
  -3  11  -7  285.53   17.27
  -3  11  -7  318.76   20.43
  -3 -11  -7  271.99   19.90
  -5 -11  -7  298.01   20.38
  -5  11  -7  244.38   16.82
  -5  11  -7  291.62   19.59
   5 -11   7  233.89   18.60
  -7  11  -7   39.56    8.19
   7 -11   7   43.26    8.97
  -7 -11  -7   17.96    7.10
  -9 -11  -7   -4.30    4.51
   9 -11   7    5.27    5.11
 -11 -11  -7   -0.79    6.42
  11 -11   7   16.64    7.45
 -13 -11  -7    4.82    7.67
  13 -11   7   -0.82    6.79
 -15 -11  -7    0.35    8.82
  20 -12  -7  -11.31    6.59
 -20 -12   7    1.07    6.71
  20  12  -7   -3.77    6.88
  18 -12  -7    6.50    7.33
  18  12  -7    9.92    8.16
 -18 -12   7   29.86    8.87
  16  12  -7  101.94   16.44
  16 -12  -7  111.59   17.07
  16 -12  -7  103.86   15.15
 -16 -12   7  110.48   14.99
 -14 -12   7  106.06   13.57
  14 -12  -7  128.29   16.66
  14  12  -7  129.86   16.29
 -12 -12   7   51.90    8.64
  12  12  -7   48.26    8.39
  12 -12  -7   33.40    8.42
  12  12  -7   47.83    9.48
 -10 -12   7    5.33    2.76
  10  12  -7    8.05    3.85
  10 -12  -7    4.43    2.85
  10 -12  -7   -3.06    4.02
  10  12  -7    0.51    3.50
   8  12  -7    4.21    3.47
   8 -12  -7    2.44    2.09
   8  12  -7    2.53    2.70
   8 -12  -7    2.26    3.88
  -8 -12   7    5.32    2.83
  -6 -12   7    0.60    2.35
   6  12  -7    3.93    2.44
   6 -12  -7   -1.40    1.93
   6 -12  -7    4.76    4.37
   6  12  -7    4.85    3.05
  -4 -12   7    4.01    3.15
   4 -12  -7   11.35    3.62
   4  12  -7    4.04    2.72
   4 -12  -7    8.10    4.37
   4  12  -7    2.15    2.18
  -2 -12   7    7.47    3.53
   2 -12  -7   11.78    4.61
   2  12  -7    7.82    4.00
   2  12  -7    9.38    2.83
   2 -12  -7   -1.38    2.26
   0 -12  -7    6.19    4.59
   0  12  -7    5.20    3.82
   0 -12   7    2.08    3.09
   0  12  -7    5.39    2.59
   0 -12  -7    3.69    3.25
  -2  12  -7   87.98    7.73
  -2  12  -7   81.75   10.84
  -2 -12  -7  103.37   12.03
  -4  12  -7   69.75   10.30
  -4 -12  -7   56.16   10.11
   4 -12   7   77.26   10.38
  -6 -12  -7    0.67    4.58
  -6  12  -7    0.87    3.77
   6 -12   7    5.16    4.67
   8 -12   7    2.89    4.30
  -8  12  -7    0.85    4.93
  -8 -12  -7    0.60    5.47
  10 -12   7   -1.14    4.43
 -10 -12  -7    2.57    6.00
 -12 -12  -7   -0.96    6.97
  12 -12   7    3.61    7.04
 -14 -12  -7  -15.85    7.10
  14 -12   7    6.60    8.29
  19  13  -7   17.54   10.56
 -19 -13   7   25.83    9.23
  19 -13  -7   12.86    8.84
  17 -13  -7   16.07    7.99
 -17 -13   7    6.46    6.71
  17  13  -7   33.21   11.35
  15  13  -7   47.86   11.36
 -15 -13   7   54.89   10.33
  15 -13  -7   51.97   11.58
  13 -13  -7   37.70    7.30
  13  13  -7   50.19   10.21
  13  13  -7   34.84    7.14
 -13 -13   7   26.78    7.13
  13 -13  -7   35.87    9.30
  11  13  -7   89.95   12.06
 -11 -13   7   95.07   11.08
  11 -13  -7  110.00   11.10
  11  13  -7   67.63   10.46
  11 -13  -7  119.14   14.74
  -9 -13   7   -1.35    1.77
   9  13  -7    9.47    4.24
   9 -13  -7    7.46    2.70
   9  13  -7    6.64    3.54
   9 -13  -7    9.99    5.31
   7 -13  -7   14.82    5.83
  -7 -13   7   17.99    4.39
   7 -13  -7   27.72    5.30
   7  13  -7   23.91    5.50
   7  13  -7   17.65    4.63
   5  13  -7   27.23    5.13
  -5 -13   7   35.33    5.89
   5 -13  -7   18.38    4.31
   5 -13  -7   26.47    6.74
   5  13  -7   25.91    6.22
   3  13  -7   23.36    4.20
   3 -13  -7   22.87    5.15
   3  13  -7   17.42    4.95
   3 -13  -7   28.14    7.00
  -3 -13   7   15.89    4.52
  -1 -13   7  160.96   12.26
   1 -13  -7  156.42   14.07
   1  13  -7  185.98   14.59
   1  13  -7  171.57   10.39
  -1 -13  -7   31.29    6.46
  -1 -13  -7   26.23    6.88
   1 -13   7   24.50    5.59
  -1  13  -7   24.31    6.33
   3 -13   7   23.62    6.04
  -3  13  -7   13.13    5.31
  -3 -13  -7   10.17    5.35
  -5 -13  -7    7.43    4.92
   5 -13   7    4.85    3.95
  -5  13  -7    9.31    4.68
   7 -13   7  112.05   14.28
  -7 -13  -7   93.10   13.88
  -7  13  -7   94.76   12.49
   9 -13   7    9.56    6.34
  -9 -13  -7   26.27    9.02
  11 -13   7    7.19    6.26
 -11 -13  -7   -1.73    6.10
  13 -13   7   22.35    9.12
 -13 -13  -7   27.59   10.47
 -20 -14   7    9.66    7.47
  20 -14  -7   -3.45    8.16
  20  14  -7    0.25    8.43
 -18 -14   7   16.16    7.46
  18  14  -7    4.24    7.40
  18 -14  -7   25.58    9.77
  16 -14  -7   -7.75    4.68
 -16 -14   7   -4.97    4.44
  16  14  -7    2.47    6.37
  14  14  -7   28.57    9.17
  14 -14  -7   56.85   11.92
 -14 -14   7   55.56   10.43
  12  14  -7   -0.45    4.15
  12  14  -7    4.12    3.77
  12 -14  -7   -1.62    3.89
 -12 -14   7    0.49    3.01
  10  14  -7    1.87    3.62
  10 -14  -7   -4.39    2.46
 -10 -14   7    5.70    3.57
  10  14  -7    2.94    3.90
  10 -14  -7    7.06    3.56
   8 -14  -7  140.77   15.50
   8 -14  -7  158.66   11.83
   8  14  -7  162.45   13.61
   8  14  -7  166.70   13.23
   6  14  -7   48.62    6.93
  -6 -14   7   58.94    7.72
   6 -14  -7   48.09    6.25
   6 -14  -7   47.52    8.94
   6  14  -7   47.26    8.14
   4 -14  -7   16.17    3.96
   4  14  -7   17.29    5.06
  -4 -14   7   15.54    4.40
   4 -14  -7   18.00    6.03
   4  14  -7   16.57    3.95
  -2 -14   7    2.85    2.73
   2 -14  -7    6.25    3.54
   2 -14  -7    1.97    3.59
   2  14  -7    3.01    3.86
   0  14  -7   21.30    6.37
   0 -14   7   19.43    5.22
   0 -14  -7   14.58    5.81
   2 -14   7    4.53    3.82
  -2  14  -7   25.07    6.47
  -2 -14  -7   17.51    5.72
  -2 -14  -7   28.73    7.18
  -4  14  -7   15.81    5.69
   4 -14   7   20.63    6.60
  -4 -14  -7    8.52    5.51
  -6 -14  -7   -2.45    4.60
   6 -14   7    1.81    3.85
  -6  14  -7   -0.70    4.09
  -8 -14  -7   12.91    6.98
  -8  14  -7   18.90    7.14
   8 -14   7   19.72    6.74
  10 -14   7    8.98    6.69
 -10 -14  -7   17.65    8.96
  12 -14   7    9.16    7.87
 -12 -14  -7   -0.72    6.63
 -14 -14  -7    2.19    9.97
  14 -14   7    2.76    8.30
  19  15  -7   -2.52    8.17
  19 -15  -7    2.83    7.05
 -19 -15   7    6.52    7.52
  17 -15  -7    8.98    7.42
  17  15  -7    5.26    6.83
 -17 -15   7   10.96    6.70
 -15 -15   7    1.93    5.53
  15  15  -7    1.00    5.43
  15 -15  -7   -3.74    4.60
 -13 -15   7    4.64    4.52
  13  15  -7    8.14    5.77
  13 -15  -7    1.39    5.05
  13  15  -7    5.34    4.71
  11 -15  -7   12.07    5.79
  11  15  -7   14.44    6.04
 -11 -15   7    6.21    4.24
  11  15  -7    7.15    5.00
   9 -15  -7   43.53    9.03
  -9 -15   7   28.91    6.28
   9  15  -7   40.91    8.03
   9  15  -7   54.74    9.02
   7 -15  -7  222.13   17.83
   7  15  -7  223.65   15.40
   7  15  -7  196.65   16.50
  -5 -15   7  260.66   17.23
   5 -15  -7  259.46   15.60
   5  15  -7  236.99   18.23
   5 -15  -7  251.87   19.09
   3  15  -7  148.55   14.59
   3 -15  -7  156.14   15.05
   3 -15  -7  149.89   11.46
  -3 -15   7  126.76   12.11
   1 -15  -7   92.51   10.16
   1 -15  -7  114.18   13.52
  -1 -15   7  104.66   10.90
   1  15  -7   83.18   11.91
  -1 -15  -7    1.00    3.45
   1 -15   7   -2.94    2.90
  -1  15  -7    2.72    3.77
  -1 -15  -7   -3.55    3.28
   3 -15   7   63.17    9.87
  -3 -15  -7   75.41   11.63
  -3  15  -7   50.68    9.34
   5 -15   7    5.03    4.29
  -5  15  -7    4.31    4.91
  -5 -15  -7   12.98    6.33
  -7 -15  -7    4.00    5.06
   7 -15   7    4.65    5.40
  -7  15  -7   -2.72    4.32
  -9 -15  -7   24.76    9.42
   9 -15   7   47.20   10.52
  11 -15   7    5.79    7.37
 -11 -15  -7   -8.70    5.96
  13 -15   7   10.85    8.54
 -13 -15  -7   25.73   11.77
 -18 -16   7   37.94   11.06
  18  16  -7   18.58   10.21
  18 -16  -7   37.63   12.52
 -16 -16   7  117.99   16.58
  16  16  -7  126.47   18.78
  16 -16  -7  111.28   18.18
  14 -16  -7  236.15   24.48
 -14 -16   7  221.70   19.13
  14  16  -7  229.70   22.48
  12  16  -7   36.52    8.55
  12 -16  -7   54.87   11.03
 -12 -16   7   46.75    9.02
  12  16  -7   36.42    9.05
 -10 -16   7  207.16   15.95
  10  16  -7  207.41   17.67
  10 -16  -7  201.31   20.21
  10  16  -7  219.09   17.43
   8  16  -7   46.18    7.77
   8  16  -7   36.82    8.11
   8 -16  -7   49.14    9.74
   6  16  -7    0.44    3.00
   6 -16  -7   -1.41    3.34
  -6 -16   7   -0.13    2.50
   4  16  -7   33.18    7.58
   4 -16  -7   17.79    4.51
   4 -16  -7   30.18    7.14
  -4 -16   7   30.41    6.40
   2 -16  -7  210.87   17.04
   2  16  -7  192.95   16.68
   2 -16  -7  214.92   14.76
   0  16  -7  221.15   18.24
   0 -16  -7  222.27   16.23
   0 -16  -7  214.24   17.61
  -2  16  -7  203.84   16.69
  -2 -16  -7  145.84   14.98
   2 -16   7  202.08   15.92
  -2 -16  -7  166.81   16.88
  -4  16  -7  222.93   18.28
  -4 -16  -7  201.07   19.93
   4 -16   7  243.33   18.66
   6 -16   7   18.98    6.13
  -6  16  -7   22.17    7.36
  -6 -16  -7   22.74    7.75
  -8 -16  -7   22.47    8.94
   8 -16   7   13.04    6.45
  -8  16  -7   28.89    8.49
  10 -16   7   -4.12    5.65
 -10 -16  -7    4.20    7.37
  12 -16   7    2.87    7.12
 -12 -16  -7   -7.51    7.31
 -19 -17   7    2.12    7.68
  19 -17  -7    2.17    8.74
  17  17  -7   -8.66    6.65
  17 -17  -7   -1.39    6.71
 -17 -17   7    3.59    6.74
  15  17  -7    0.00    6.92
 -15 -17   7   -2.52    5.36
  15 -17  -7    8.69    6.66
  13 -17  -7    3.43    5.40
  13  17  -7   -0.18    4.70
  13  17  -7    8.72    6.44
 -13 -17   7    2.42    4.73
  11 -17  -7   34.19    9.29
  11  17  -7   16.43    6.77
 -11 -17   7   32.54    7.42
  11  17  -7   27.36    7.54
   9 -17  -7    2.11    4.49
   9  17  -7    3.50    3.97
  -9 -17   7    4.48    3.59
  -7 -17   7    4.05    3.41
   7  17  -7   16.21    5.91
   7 -17  -7   39.70    8.87
   5  17  -7    3.77    3.62
   5 -17  -7    1.32    3.86
  -5 -17   7   -2.05    2.38
   3  17  -7   30.88    7.53
   3 -17  -7   44.81    8.59
   1 -17  -7   10.31    4.80
   1  17  -7    7.66    5.46
  -1 -17   7    3.64    3.50
   1 -17  -7    6.50    4.15
  -1 -17  -7   13.57    5.40
   1 -17   7   -0.46    3.94
  -1 -17  -7    5.04    4.74
  -1  17  -7   10.13    5.35
  -3 -17  -7   -2.74    3.54
  -3  17  -7    8.03    5.49
   3 -17   7    2.43    4.94
  -3 -17  -7    9.66    4.98
   5 -17   7    9.11    5.08
  -5 -17  -7   14.11    6.88
  -5  17  -7    9.18    5.75
  -7  17  -7    0.75    4.83
  -7 -17  -7   -7.06    5.17
   7 -17   7   -1.42    5.02
  -9 -17  -7   -0.96    6.29
   9 -17   7    1.12    5.39
 -11 -17  -7    6.98    8.38
  11 -17   7   25.40    9.35
  13 -17   7    7.23    7.49
 -13 -17  -7    6.90   10.37
 -18 -18   7   -0.57    6.98
  18 -18  -7    6.30    9.46
  16 -18  -7    2.26    6.75
  16  18  -7    2.19    7.63
 -16 -18   7    3.70    6.00
  14 -18  -7    7.11    6.26
  14  18  -7    7.33    6.73
 -14 -18   7    7.97    4.39
  12  18  -7   28.24    8.37
  12 -18  -7   34.56   10.43
 -12 -18   7   31.76    7.96
  10  18  -7   13.90    5.79
 -10 -18   7    5.37    3.91
  10 -18  -7    7.64    5.25
   8  18  -7    5.34    5.21
   8 -18  -7    7.79    5.10
  -8 -18   7    8.05    3.81
   6  18  -7    0.59    3.60
  -6 -18   7    6.58    3.36
   6 -18  -7    4.21    3.99
   4 -18  -7   14.50    5.54
   4  18  -7   13.60    5.75
  -4 -18   7    1.37    3.22
   2 -18  -7   -3.26    3.39
   2  18  -7    1.18    4.37
  -2 -18   7    4.23    3.92
   0 -18  -7   10.25    5.44
   0  18  -7   35.05    8.24
   0 -18   7   21.89    5.66
  -2 -18  -7  163.46   18.07
  -2  18  -7  145.84   16.35
   2 -18   7  170.40   16.46
  -2 -18  -7  153.04   15.02
  -4  18  -7   64.77   11.31
  -4 -18  -7   70.49   12.06
   4 -18   7   59.63   11.01
   6 -18   7   23.04    7.64
  -6  18  -7   39.13    9.09
  -6 -18  -7   30.62    9.21
  -8 -18  -7    1.06    6.82
   8 -18   7    7.45    6.21
 -10 -18  -7  -20.26    5.59
  10 -18   7   -0.78    6.62
  12 -18   7    7.87    7.22
 -12 -18  -7   14.25    9.73
 -17 -19   7   -4.12    6.36
  17 -19  -7    3.78    8.77
  15 -19  -7    2.43    7.20
 -15 -19   7   -9.80    5.18
  13  19  -7   -6.56    4.51
  13 -19  -7   -3.26    5.04
 -13 -19   7    2.20    4.31
 -11 -19   7   13.08    5.99
  11 -19  -7    9.84    6.52
  11  19  -7    8.52    6.36
  -9 -19   7   41.08    8.11
   9 -19  -7   39.54    9.99
   9  19  -7   49.22   10.19
   7 -19  -7   37.21    8.58
  -7 -19   7   43.11    8.34
   7  19  -7   44.69    9.67
   5 -19  -7   12.62    5.68
   5  19  -7   13.22    5.90
  -5 -19   7   11.21    4.68
   3 -19  -7  148.11   16.27
  -3 -19   7  150.44   14.55
   3  19  -7  147.41   17.12
   1  19  -7   11.66    5.90
  -1 -19   7   13.39    5.49
   1 -19  -7   18.94    6.29
   1 -19   7    1.83    4.30
  -1  19  -7    1.16    4.39
  -1 -19  -7   12.69    6.10
  -3 -19  -7   -5.18    4.55
  -3  19  -7    0.85    5.30
   3 -19   7    2.77    4.25
  -5  19  -7   -2.35    4.74
   5 -19   7   -6.78    3.91
  -5 -19  -7   -6.62    4.43
  -7 -19  -7   18.69    8.42
  -7  19  -7    7.31    6.43
   7 -19   7   10.15    6.30
   9 -19   7   16.96    8.61
  -9 -19  -7   18.46   10.02
  11 -19   7   54.97   13.08
 -11 -19  -7   49.27   14.04
  16 -20  -7   -3.37    7.68
 -16 -20   7    1.23    5.83
  14 -20  -7   19.94    9.04
 -14 -20   7   14.29    6.94
 -12 -20   7    7.75    5.19
  12 -20  -7   19.07    8.71
  12  20  -7   -1.11    5.35
 -10 -20   7   -1.56    4.22
  10 -20  -7   -3.57    4.50
  10  20  -7    0.02    4.22
   8  20  -7   32.99    8.87
   8 -20  -7   31.94    8.73
  -8 -20   7   45.22    8.98
  -6 -20   7    9.48    5.29
   6  20  -7    2.47    4.70
   6 -20  -7    0.82    4.01
   4 -20  -7   13.33    5.67
  -4 -20   7   13.59    5.55
   4  20  -7    6.15    4.91
   2  20  -7    7.38    5.80
   2 -20  -7   -3.77    3.84
  -2 -20   7   11.99    5.19
   0 -20   7   17.10    5.69
   0  20  -7    2.16    5.45
   0 -20  -7    5.96    4.68
  -2  20  -7   25.44    8.24
  -2 -20  -7   17.27    6.55
   2 -20   7   42.11    8.60
  -4  20  -7  109.93   15.10
   4 -20   7   98.57   14.74
  -4 -20  -7   97.43   15.01
   6 -20   7    0.56    5.36
  -6 -20  -7  -12.35    4.55
  -6  20  -7   -0.36    5.05
  -8 -20  -7   11.72    8.15
   8 -20   7   11.86    7.53
  10 -20   7    7.81    7.03
 -10 -20  -7    2.56    8.59
  17 -21  -7   14.24   11.26
  15 -21  -7   11.63    9.34
 -15 -21   7   11.78    7.94
 -13 -21   7   35.73    9.25
  13 -21  -7   38.63   11.02
  13  21  -7   33.59   10.07
  11 -21  -7   26.11    9.64
 -11 -21   7   25.55    7.37
  11  21  -7   14.01    6.41
  -9 -21   7   30.07    7.92
   9  21  -7   27.51    8.60
   9 -21  -7   33.62    9.12
   7 -21  -7    7.31    5.28
   7  21  -7   10.34    6.08
  -7 -21   7    9.00    5.00
   5  21  -7    1.99    4.61
   5 -21  -7    1.98    3.80
  -5 -21   7    4.12    4.35
   3  21  -7   16.44    7.27
  -3 -21   7   22.73    6.45
   3 -21  -7   14.30    6.14
   1 -21  -7   35.97    8.85
  -1 -21   7   48.33    9.74
   1  21  -7   53.72   11.10
  -1  21  -7   13.67    6.56
   1 -21   7   20.09    6.77
  -1 -21  -7   14.75    6.96
  -3 -21  -7   18.82    8.05
  -3  21  -7   18.75    7.86
   3 -21   7   14.66    6.65
   5 -21   7   40.35    9.85
  -5 -21  -7   36.11   10.72
  -5  21  -7   49.56   11.22
  -7 -21  -7    3.19    6.76
  -7  21  -7   15.77   10.94
   7 -21   7    9.08    6.53
   9 -21   7   11.74    8.52
  -9 -21  -7   -2.02    7.54
  11 -21   7   22.42    8.32
 -11 -21  -7    4.38    9.35
  16 -22  -7    1.06    8.89
  14 -22  -7   -1.73    6.11
  12 -22  -7   12.53    7.80
  12  22  -7    5.86    7.04
 -12 -22   7   11.19    6.52
 -10 -22   7    2.60    4.85
  10  22  -7   12.52    7.71
  10 -22  -7   -1.29    5.32
   8 -22  -7    3.45    5.22
   8  22  -7    4.62    5.37
  -8 -22   7    5.03    4.79
  -6 -22   7    1.63    3.91
   6 -22  -7    4.48    5.09
   6  22  -7    1.35    4.70
  -4 -22   7    8.14    4.83
   4 -22  -7    0.45    4.48
   4  22  -7    0.70    4.62
   2  22  -7   12.28    6.88
  -2 -22   7    6.23    5.24
   2 -22  -7    6.72    4.92
   0 -22  -7   19.56    7.81
   0  22  -7    4.67    7.24
   0 -22   7   18.88    6.19
   2 -22   7   20.07    7.53
  -2  22  -7    9.14    7.09
  -2 -22  -7   15.41    6.96
  -4  22  -7    7.88    6.68
   4 -22   7   15.41    6.57
  -4 -22  -7   -0.55    5.77
   6 -22   7   13.43    7.88
  -6  22  -7   15.32    8.64
  -6 -22  -7    6.76    7.56
   8 -22   7    1.78    6.84
  -8 -22  -7    7.54    7.41
 -10 -22  -7    3.91    9.54
  10 -22   7    5.99    7.26
  15 -23  -7   -6.75    7.75
  13  23  -7    6.97    6.69
  13 -23  -7    5.54    7.99
  11  23  -7    0.87    6.02
 -11 -23   7   -0.29    5.08
  11 -23  -7    5.96    6.23
   9 -23  -7   -2.22    5.49
  -9 -23   7   -0.48    4.74
   9  23  -7   -2.02    5.35
   7  23  -7   27.16    9.18
  -7 -23   7   42.08    9.54
   7 -23  -7   24.91    8.78
  -5 -23   7   10.04    5.26
   5 -23  -7   12.12    6.54
   5  23  -7    5.40    5.97
  -3 -23   7    0.90    4.65
   3 -23  -7    2.22    4.84
   3  23  -7    9.03    7.42
   1  23  -7   -1.39    5.31
   1 -23  -7    9.66    6.32
  -1 -23   7    1.22    4.65
  -1  23  -7   30.14    9.35
  -1 -23  -7   32.19    9.59
   1 -23   7   12.47    7.34
  -3  23  -7   -0.87    6.47
  -3 -23  -7   -1.15    6.07
   3 -23   7    1.18    4.81
  -5  23  -7   16.80    8.39
   5 -23   7    6.15    7.17
  -5 -23  -7    9.21    7.77
  -7  23  -7    0.00    6.88
  -7 -23  -7   10.65    7.61
   7 -23   7    5.56    6.74
  -9 -23  -7   -7.00    8.85
   9 -23   7    2.47    7.80
  14 -24  -7    2.37    9.09
  12 -24  -7    0.38    6.96
  12  24  -7    4.83    6.58
  10 -24  -7   11.40    8.52
  10  24  -7    7.34    6.94
   8 -24  -7   47.98   12.21
   8  24  -7   41.80   10.94
   6  24  -7   95.93   16.10
  -6 -24   7   65.24   11.40
   6 -24  -7   70.29   13.79
  -4 -24   7   73.85   12.19
   4 -24  -7   51.97   11.45
   4  24  -7   64.78   12.86
   2  24  -7   69.31   14.13
  -2 -24   7   57.52   10.83
   2 -24  -7   53.81   11.53
   0 -24  -7   -8.39    4.39
   0 -24   7    7.63    5.54
   0  24  -7    6.71    6.91
  -2  24  -7   -5.34    5.70
   2 -24   7   -3.03    5.76
  -2 -24  -7   -1.62    4.59
  -4  24  -7    3.78    7.11
   4 -24   7    5.79    7.11
  -4 -24  -7   15.60    7.59
   6 -24   7   -2.17    6.93
  -6  24  -7    7.63    7.94
  -6 -24  -7   -7.34    5.16
  -8 -24  -7    0.29    8.24
   8 -24   7    2.46    7.16
  13  25  -7    2.29    6.99
  13 -25  -7   11.46    9.58
  11  25  -7   10.81    7.42
  11 -25  -7    7.72    8.83
   9 -25  -7   14.59    7.97
   9  25  -7    7.14    6.50
   7  25  -7   -0.36    5.35
   7 -25  -7    2.55    6.01
   5  25  -7   -1.21    5.66
   5 -25  -7    6.92    6.21
  -3 -25   7   -0.23    5.04
   3 -25  -7    9.83    6.81
   3  25  -7   -4.50    5.55
  -1 -25   7    4.87    5.20
   1 -25  -7    7.02    6.18
   1  25  -7    2.58    6.49
  -1 -25  -7   10.26    6.61
   1 -25   7    1.55    6.49
  -1  25  -7   -3.42    6.18
   3 -25   7    9.65    7.39
  -3 -25  -7    9.64    7.10
  -3  25  -7   10.05    8.29
  -5 -25  -7    9.04    8.42
   5 -25   7   15.56    8.20
  -5  25  -7   12.28    8.87
  -7 -25  -7  -11.48    7.04
  12 -26  -7   14.02    9.61
  12  26  -7   -3.63    5.84
  10  26  -7   -0.19    5.71
  10 -26  -7    4.50    7.07
   8  26  -7    0.32    6.10
   8 -26  -7    9.64    6.69
   6  26  -7   -9.57    4.69
   6 -26  -7    6.66    5.71
   4  26  -7   -5.69    5.85
   4 -26  -7   -3.77    3.92
   2  26  -7   -0.95    6.88
   2 -26  -7   -5.05    5.03
   0  26  -7   -0.34    6.53
   0 -26  -7   12.78    7.48
  -2 -26  -7   12.93    7.50
  -2  26  -7   15.69    9.30
  -4  26  -7    0.70    7.56
  -4 -26  -7   -4.08    6.33
  -6 -26  -7   -0.50    8.40
  -6  26  -7   -0.33    8.35
  11 -27  -7   10.37    9.47
  11  27  -7   -7.94    5.51
   9  27  -7    4.36    5.82
   9 -27  -7   14.31    9.41
   7 -27  -7   -0.66    6.10
   7  27  -7    7.13    6.58
   5 -27  -7    3.46    5.33
   5  27  -7   -0.43    5.62
   3 -27  -7    1.62    6.23
   3  27  -7    2.35    7.41
   1 -27  -7    0.09    5.61
   1  27  -7   10.48    8.06
  -1  27  -7   12.82    8.87
  -1 -27  -7   27.11   10.36
  -3  27  -7   20.81    9.32
  -3 -27  -7   17.30   10.00
  -5 -27  -7    2.90    8.59
  -5  27  -7    6.01    9.52
  10 -28  -7    0.04    9.12
  10  28  -7   11.31    6.96
   8 -28  -7   -3.75    6.15
   8  28  -7   -4.08    5.54
   6 -28  -7    5.60    6.74
   6  28  -7    3.19    5.64
   4 -28  -7   24.04    9.18
   4  28  -7   18.93   10.67
   2  28  -7   18.49    9.39
   2 -28  -7   21.31    9.47
   0  28  -7   17.36    9.99
   0 -28  -7  -11.69    6.25
  -2  28  -7   -5.01    7.96
  -2 -28  -7    4.98    8.31
  -4 -28  -7   10.11   10.07
  -4  28  -7   -7.98    8.60
   7  29  -7   -2.14    5.09
   7 -29  -7    8.63    8.47
   5 -29  -7    7.09    8.91
   5  29  -7   -2.59    4.58
   3 -29  -7   14.71    9.35
   3  29  -7    0.74    9.46
   1 -29  -7    1.97    7.46
   1  29  -7    2.05    9.63
  -1  29  -7   -2.96    9.88
  -1 -29  -7    5.24    7.37
   4  30  -7   14.21   12.20
   2  30  -7   -5.96    9.42
 -22   0   8    7.08    7.52
  22   0  -8    1.43    5.01
 -22   0   8   -0.93    6.55
 -20   0   8   73.23   13.56
  20   0  -8   45.76   12.08
 -20   0   8   68.06   13.58
  18   0  -8  103.74   16.38
 -18   0   8  100.25   14.38
 -18   0   8  113.86   15.41
  16   0  -8  215.20   21.08
 -16   0   8  204.61   17.51
 -16   0   8  210.60   17.35
  14   0  -8  139.09   15.37
  14   0  -8  134.72   15.33
  12   0  -8  302.32   21.27
  12   0  -8  355.28   22.02
  10   0  -8   24.99    5.74
  10   0  -8   22.23    3.53
  10   0  -8   25.81    5.60
   8   0  -8  138.35   10.94
   8   0  -8  140.64   10.05
   6   0  -8    8.20    3.29
   6   0  -8   11.15    2.74
   4   0  -8    3.74    2.47
   2   0  -8  480.64   26.59
   2   0  -8  522.68   22.98
   0   0  -8 3351.06  141.61
   0   0  -8 3329.00  145.05
  -2   0  -8 2128.72   96.13
  -2   0  -8 2130.57   93.35
  -4   0  -8   17.83    5.06
  -6   0  -8   50.47    8.96
  -8   0  -8    3.96    5.13
 -10   0  -8    3.89    5.88
 -12   0  -8    0.80    7.47
 -14   0  -8   30.14   11.48
 -16   0  -8    7.40   11.51
 -23   1   8   52.74   13.43
 -23   1   8   42.83   12.18
 -23  -1   8   48.30   11.88
  21  -1  -8   10.73    7.39
 -21   1   8    2.81    7.05
  21   1  -8   16.94    7.28
 -21  -1   8    0.98    6.67
 -21   1   8   -1.84    7.25
 -21  -1   8    5.07    7.47
 -19   1   8   -0.07    5.33
  19   1  -8    6.04    4.91
 -19  -1   8    2.76    5.70
  19  -1  -8   -0.39    5.16
 -19  -1   8   -0.09    5.24
 -19   1   8    3.36    5.98
  17   1  -8   -1.45    3.10
 -17  -1   8    1.35    4.66
  17  -1  -8   -2.58    3.77
 -17  -1   8   -4.29    4.07
 -15  -1   8    2.15    4.10
 -15  -1   8    1.09    4.13
  15  -1  -8    6.36    3.95
  15  -1  -8    4.80    4.16
  15   1  -8   -1.11    3.65
  13  -1  -8    6.99    3.74
  13   1  -8    2.44    3.35
  13  -1  -8   18.54    5.68
 -13  -1   8    3.74    3.62
 -13  -1   8    1.37    3.08
  11  -1  -8    9.00    4.02
  11   1  -8   12.99    2.75
  11  -1  -8   15.59    4.42
  11   1  -8   10.57    3.85
  11   1  -8   11.67    4.19
   9  -1  -8   31.47    5.64
   9  -1  -8   22.64    5.16
   9   1  -8   27.09    5.26
   9   1  -8   42.62    6.82
   7   1  -8  100.31    9.74
   7   1  -8   91.26    7.20
   7  -1  -8  116.96    8.21
   7  -1  -8  107.36    8.99
   5  -1  -8  162.63    9.36
   5  -1  -8  187.30   12.22
   5   1  -8  158.93   11.50
   3   1  -8    9.05    3.41
   3  -1  -8   15.07    3.96
   3  -1  -8   19.77    2.76
   1   1  -8  406.34   22.96
   1  -1  -8  401.88   23.38
   1  -1  -8  439.77   20.44
   1   1  -8  415.64   19.65
  -1   1  -8  176.37   13.67
  -1  -1  -8  213.05   14.76
  -1  -1  -8  193.89   12.25
  -1   1  -8  196.05   11.96
  -3  -1  -8    0.96    2.77
  -3   1  -8    0.80    3.07
  -3   1  -8    3.10    3.06
  -5  -1  -8   46.79    8.12
  -5   1  -8   37.92    6.96
  -5   1  -8   33.61    7.05
  -7   1  -8   34.68    7.62
  -7   1  -8   43.40    8.79
  -7  -1  -8   45.59    8.98
  -9  -1  -8   42.71   10.29
  -9   1  -8   70.64   12.13
  -9   1  -8   57.36   10.41
 -11   1  -8    3.50    5.93
 -11   1  -8    4.01    6.74
 -11  -1  -8   -1.52    6.53
 -13   1  -8    5.27    8.94
 -13  -1  -8   11.41    9.35
 -15  -1  -8   -4.94    9.04
 -15   1  -8   -4.49    8.57
  22  -2  -8   -0.83    6.01
 -22   2   8    6.95    8.64
 -22  -2   8   -4.68    6.84
 -22   2   8   -3.04    8.44
  22   2  -8    2.45    6.16
 -20  -2   8    8.36    6.97
 -20  -2   8   -6.60    5.27
  20   2  -8    0.48    5.38
 -20   2   8    3.88    7.86
 -20   2   8   -3.05    5.56
  20  -2  -8   -1.43    6.37
  18   2  -8    4.54    4.97
  18  -2  -8    9.48    5.88
 -18  -2   8   11.16    5.55
 -18  -2   8   -0.10    4.67
  16   2  -8    7.14    4.78
  16  -2  -8    8.43    4.97
 -16  -2   8   10.91    5.56
 -16  -2   8    9.42    4.71
  16  -2  -8    9.07    5.72
  14  -2  -8    4.88    3.77
  14  -2  -8    2.55    3.84
 -14  -2   8    5.45    3.72
 -14  -2   8    1.35    3.48
  14   2  -8    2.22    2.90
 -12  -2   8    0.75    2.87
  12  -2  -8   10.20    4.11
  12   2  -8   11.18    4.36
  12  -2  -8    3.50    3.59
 -12  -2   8    3.00    2.66
  10  -2  -8   14.75    4.23
 -10  -2   8   13.04    3.82
 -10  -2   8   20.50    4.46
  10   2  -8   14.23    4.32
  10  -2  -8   10.90    3.85
  10   2  -8   20.67    3.58
   8  -2  -8  100.35    9.98
   8   2  -8  116.51    9.73
   8  -2  -8  100.52    8.67
  -8  -2   8  118.05    7.99
  -8  -2   8   92.00    7.18
  -6  -2   8  171.54    8.97
   6  -2  -8  170.22   10.37
   6   2  -8  157.84   11.61
  -6  -2   8  170.43    8.52
   6  -2  -8  169.41   11.95
   4  -2  -8  122.21    7.71
   4  -2  -8  127.72   10.00
   4   2  -8  122.21    9.70
   2  -2  -8    3.62    2.25
   2   2  -8    5.71    2.69
   2  -2  -8    1.25    2.71
   0  -2  -8  466.18   23.70
   0   2  -8  504.21   26.55
   0  -2  -8  446.21   26.42
   0   2  -8  502.10   23.25
  -2   2  -8  850.44   38.30
  -2   2  -8  865.38   42.46
  -2  -2  -8  774.01   39.87
  -2   2  -8  864.19   40.06
  -4   2  -8    9.81    4.29
  -4   2  -8   12.27    4.17
  -4  -2  -8    8.16    3.68
  -6  -2  -8    9.03    5.19
  -6   2  -8   12.96    5.62
  -6   2  -8   30.91    6.86
  -8   2  -8  137.30   15.36
  -8   2  -8  118.97   13.84
  -8  -2  -8  111.69   14.20
 -10   2  -8   -2.90    4.32
 -10   2  -8   -3.49    4.28
 -10  -2  -8    1.97    5.98
 -12  -2  -8    5.39    8.28
 -12   2  -8   12.09    8.97
 -12   2  -8   18.74    8.99
 -14   2  -8    2.20    8.47
 -14  -2  -8    2.02    8.52
 -16  -2  -8   10.13   11.96
 -16   2  -8   -2.15   11.22
 -21   3   8   14.65    9.20
 -21   3   8   -1.62    6.35
  21   3  -8    9.86    7.34
  21  -3  -8    8.26    7.48
 -21  -3   8   12.79    8.46
  19  -3  -8    7.75    6.48
 -19  -3   8    6.62    6.06
  19   3  -8    7.19    5.79
 -19  -3   8    4.99    6.06
  19  -3  -8   14.79    9.23
  17   3  -8   17.49    7.03
 -17  -3   8   25.01    7.45
 -17  -3   8   19.39    6.58
  17  -3  -8    7.24    5.20
  17  -3  -8   18.60    7.33
 -15  -3   8   10.18    4.79
 -15  -3   8    6.44    4.93
  15  -3  -8    3.81    3.80
  15   3  -8    0.31    3.90
  15  -3  -8    1.20    3.86
  13  -3  -8  291.82   21.12
  13   3  -8  337.69   22.37
 -13  -3   8  310.28   20.29
  13  -3  -8  275.50   20.81
 -13  -3   8  299.23   19.15
  11   3  -8  328.06   21.32
  11   3  -8  356.16   17.68
  11  -3  -8  319.43   21.13
  11  -3  -8  348.96   21.47
 -11  -3   8  317.62   19.76
 -11  -3   8  318.50   18.92
  -9  -3   8  173.54   11.45
   9  -3  -8  172.98   12.61
   9  -3  -8  178.84   13.15
   9   3  -8  174.81   13.07
  -9  -3   8  158.87   10.51
   9   3  -8  166.08   10.82
   7  -3  -8  277.93   15.15
  -7  -3   8  246.57   13.26
   7   3  -8  237.18   15.82
   7  -3  -8  255.14   16.18
   5  -3  -8  317.09   16.19
   5  -3  -8  330.98   18.51
   5   3  -8  280.75   17.57
   3   3  -8  226.88   14.96
   3  -3  -8  253.22   13.53
   3  -3  -8  266.25   16.10
   1  -3  -8   82.24    6.89
   1   3  -8   92.88    8.91
   1   3  -8   77.20    5.40
   1   3  -8   81.27    5.71
   1  -3  -8   69.66    8.76
  -1   3  -8    4.13    2.82
  -1  -3  -8    7.16    3.43
  -1   3  -8    8.70    3.62
  -1   3  -8    9.47    3.10
  -1  -3  -8    8.57    4.07
  -3   3  -8   84.89    8.34
  -3   3  -8   65.34    8.06
  -3  -3  -8   81.89    9.03
  -5  -3  -8  112.03   11.51
  -5   3  -8   94.02   10.48
  -5   3  -8   82.00   10.55
  -7   3  -8   66.14   10.12
  -7   3  -8   46.51    9.36
  -7  -3  -8   51.68    9.58
  -9   3  -8   74.71   12.38
  -9  -3  -8   49.43   10.73
  -9   3  -8   33.25    8.50
 -11   3  -8   84.53   15.13
 -11   3  -8  101.20   15.16
 -11  -3  -8   84.82   14.86
 -13   3  -8   68.27   14.52
 -13   3  -8   40.61   11.54
 -13  -3  -8   75.51   14.91
 -15   3  -8   35.22   13.55
 -15  -3  -8   42.63   13.68
 -22   4   8    5.55    8.44
 -22  -4   8    9.84    7.05
  22  -4  -8   -5.29    6.36
 -22   4   8    1.83    9.05
  22   4  -8    2.39    5.48
  20  -4  -8   12.91    7.81
  20   4  -8   -1.89    4.98
 -20  -4   8    1.54    6.37
  20  -4  -8    3.93    7.23
  18  -4  -8   54.32   12.00
  18   4  -8   39.25   11.46
  18  -4  -8   55.76   11.94
 -18  -4   8   59.55   11.26
 -16  -4   8  252.75   19.84
  16  -4  -8  241.18   21.39
  16   4  -8  286.44   22.90
  16  -4  -8  258.03   21.66
  14  -4  -8   88.54   12.73
 -14  -4   8  112.14   11.81
  14  -4  -8  124.73   14.59
  14   4  -8  125.49   14.67
 -14  -4   8  100.40   12.31
  12  -4  -8    4.57    3.19
  12  -4  -8   12.46    5.37
  12   4  -8    4.80    3.55
 -12  -4   8   -1.20    2.80
 -12  -4   8   -1.31    2.37
  10  -4  -8    5.69    3.34
  10  -4  -8   11.22    4.15
 -10  -4   8   13.98    4.58
  10   4  -8   11.34    4.10
  10   4  -8   13.64    3.22
   8   4  -8   12.95    4.00
   8  -4  -8    2.41    1.96
  -8  -4   8    9.66    2.97
   8  -4  -8    6.69    3.67
   8   4  -8    5.91    2.72
  -6  -4   8  184.66    9.01
   6  -4  -8  153.59   11.83
   6  -4  -8  167.52   11.17
   6   4  -8  174.27   12.05
   4  -4  -8   25.40    4.04
   4  -4  -8   30.17    5.46
   4   4  -8   16.89    3.99
   2  -4  -8  128.29   10.44
   2  -4  -8  134.39    9.09
   2   4  -8  113.97    9.45
   0   4  -8  184.88   12.96
   0  -4   8  173.51   10.93
   0  -4  -8  193.08   12.09
   0  -4  -8  178.34   13.73
   2  -4   8   55.38    7.32
  -2   4  -8   63.51    8.49
  -2  -4  -8   63.96    7.72
  -4  -4  -8  102.12   10.82
  -6   4  -8   46.14    8.75
  -6   4  -8   41.82    7.84
  -6  -4  -8   54.08    9.18
  -8  -4  -8    2.35    4.68
  -8   4  -8    2.04    4.12
  -8   4  -8    8.44    5.22
 -10  -4  -8   29.15    8.61
 -10   4  -8   50.65   11.13
 -10   4  -8   33.58    8.85
 -12   4  -8    7.87    7.46
 -12  -4  -8    9.56    7.39
 -12   4  -8   16.24    8.46
 -14   4  -8    5.41    7.27
 -14   4  -8   -3.68    7.63
 -14  -4  -8    8.14    8.54
 -16   4  -8   -7.88    9.14
 -16  -4  -8    3.62   11.45
 -16   4  -8    2.84    9.45
 -21  -5   8   -0.60    6.28
  21   5  -8   -1.80    6.93
  21  -5  -8    0.28    6.61
  21  -5  -8    8.53    8.30
  19  -5  -8   53.44   12.96
 -19  -5   8   37.17    9.69
  19  -5  -8   32.98   10.63
  19   5  -8   23.41    9.56
  17  -5  -8  195.45   20.25
  17  -5  -8  160.06   19.29
 -17  -5   8  142.84   16.59
  17   5  -8  174.51   20.07
  15  -5  -8  216.45   19.17
  15  -5  -8  222.16   19.16
 -15  -5   8  245.22   18.58
  15   5  -8  253.85   20.47
  13  -5  -8  135.23   14.74
 -13  -5   8  148.45   14.20
  13   5  -8  144.37   15.15
  13  -5  -8  143.50   14.71
  11  -5  -8   34.60    7.17
 -11  -5   8   26.95    5.73
  11  -5  -8   21.10    5.29
  11   5  -8   27.31    4.70
  11   5  -8   14.09    4.66
  -9  -5   8   30.77    5.21
   9   5  -8   29.26    4.94
   9   5  -8   29.10    6.03
   9  -5  -8   30.54    6.06
   9  -5  -8   24.66    5.73
   7   5  -8    9.88    3.21
   7   5  -8    9.15    3.08
  -7  -5   8    3.68    1.97
   7  -5  -8   11.95    3.58
   7  -5  -8   10.31    3.82
  -5  -5   8    5.88    1.44
   5  -5  -8    8.40    3.28
   5   5  -8    2.37    2.20
   5  -5  -8    4.50    2.76
   3  -5  -8  106.72    9.03
   3   5  -8   98.50    8.18
   3  -5  -8   80.77    7.26
   1  -5  -8  224.42   14.24
   1  -5  -8  219.67   15.69
   1   5  -8  240.51   14.93
  -1  -5   8  244.59   12.67
  -1  -5  -8  681.97   36.73
  -1  -5  -8  702.43   34.73
   1  -5   8  703.87   33.96
  -1   5  -8  706.47   35.47
  -3  -5  -8  131.37   11.84
   3  -5   8  177.02   12.83
  -3   5  -8  183.35   13.37
  -5  -5  -8  301.15   20.43
   5  -5   8  323.73   21.30
  -7  -5  -8   19.37    6.91
  -9  -5  -8   -1.30    4.97
  -9   5  -8    3.35    5.29
  -9   5  -8    2.96    5.11
 -11   5  -8   11.60    7.01
 -11  -5  -8   17.52    7.97
 -11   5  -8    9.59    7.27
 -13   5  -8    5.09    6.84
 -13  -5  -8   -1.51    8.20
 -13   5  -8   14.03    9.27
 -15   5  -8   13.80   10.68
 -15  -5  -8   46.24   14.67
 -15   5  -8   42.79   13.80
  22  -6  -8    2.21    7.87
 -22  -6   8    4.16    6.69
  22  -6  -8    9.45    7.23
  22   6  -8   -9.12    8.13
 -20  -6   8   10.94    7.71
  20  -6  -8   32.17   10.96
  20  -6  -8   17.71    8.77
  20   6  -8   20.96    9.95
  18  -6  -8    9.06    5.99
 -18  -6   8   -5.48    4.89
  18   6  -8    4.98    6.60
  18  -6  -8    4.74    5.36
  16  -6  -8    9.34    5.33
  16  -6  -8   10.25    5.54
  16   6  -8    6.17    5.61
 -16  -6   8   12.92    5.48
 -14  -6   8   25.91    7.42
  14  -6  -8   45.42    9.12
  14  -6  -8   46.84    9.07
  14   6  -8   62.60   11.21
  12  -6  -8   67.56    9.76
  12   6  -8   67.19    7.44
  12   6  -8   61.23    9.96
  12  -6  -8   68.41   10.33
  10   6  -8  231.14   14.60
  10  -6  -8  211.17   15.91
  10   6  -8  242.21   16.87
  10  -6  -8  269.22   17.45
 -10  -6   8  240.85   15.13
  -8  -6   8  157.20    9.82
   8  -6  -8  171.31   12.20
   8   6  -8  150.66   11.72
   8  -6  -8  165.35   12.23
   8   6  -8  123.72   10.25
   6   6  -8  315.89   18.67
   6  -6  -8  341.93   19.10
   6   6  -8  310.31   18.83
  -6  -6   8  317.06   15.76
   6  -6  -8  329.24   18.50
   4  -6  -8  255.63   15.63
   4   6  -8  265.03   15.87
   4  -6  -8  269.94   16.81
  -4  -6   8  276.52   12.82
   2  -6  -8  155.28   12.12
   2   6  -8  169.41   11.52
  -2  -6   8  162.46    9.22
   2  -6  -8  174.48   11.73
   0  -6  -8   87.21   10.54
   0   6  -8   98.42    8.56
   0  -6  -8  106.96    9.60
   0  -6   8   97.31    7.68
  -2   6  -8   64.03    8.49
   2  -6   8   74.95    8.39
  -2  -6  -8   62.49    8.23
  -4  -6  -8   84.36   10.36
   6  -6   8   58.02    9.87
  -6  -6  -8   53.03    9.36
   8  -6   8   73.87   12.50
  -8  -6  -8   59.07   11.06
 -10   6  -8   30.06    8.57
 -10   6  -8   35.22    9.77
 -10  -6  -8   29.16    9.17
 -12   6  -8   14.41    8.81
 -12  -6  -8    5.69    8.35
 -12   6  -8   10.33    8.21
 -14   6  -8   16.89    9.88
 -14  -6  -8   -0.11    9.30
 -14   6  -8   17.35   10.61
  21  -7  -8    4.77    7.28
  21   7  -8   -9.05    6.86
 -21  -7   8    7.81    6.55
  21  -7  -8   -6.34    6.50
  19  -7  -8   -1.42    6.20
  19  -7  -8    3.41    6.48
 -19  -7   8    3.77    5.40
  19   7  -8    4.00    6.74
 -17  -7   8   12.20    5.80
  17  -7  -8   -2.73    5.17
  17   7  -8    2.46    4.73
  17  -7  -8   -4.09    4.87
  15  -7  -8    1.83    3.94
  15  -7  -8   10.30    5.52
 -15  -7   8    6.38    4.27
  15   7  -8    7.25    4.84
  13   7  -8    1.11    3.35
 -13  -7   8   -2.50    3.49
  13  -7  -8    3.54    3.79
  13  -7  -8   -3.11    2.56
 -11  -7   8    8.38    3.79
  11  -7  -8    5.09    4.01
  11  -7  -8    8.28    3.65
  11   7  -8   11.36    4.20
  11   7  -8   11.74    3.69
   9  -7  -8    2.60    3.18
   9   7  -8    8.29    3.38
  -9  -7   8    8.02    3.08
   9  -7  -8    3.87    2.54
   9   7  -8    1.59    1.67
   7  -7  -8  123.15    9.54
   7  -7  -8  101.61    9.93
   7   7  -8  100.33    9.55
   7   7  -8  106.92    9.12
  -7  -7   8   98.59    7.26
   5   7  -8    1.20    2.26
  -5  -7   8    5.77    1.96
   5  -7  -8    1.74    2.51
   5   7  -8    4.72    2.40
   5  -7  -8    4.95    3.21
   3  -7  -8   15.65    4.27
   3   7  -8   10.18    3.49
  -3  -7   8    9.92    2.22
   3  -7  -8    3.64    3.04
   3   7  -8    8.69    3.27
  -1  -7   8    2.22    2.22
   1   7  -8    3.50    2.54
   1  -7  -8    0.49    2.93
   1  -7  -8    3.23    2.98
  -1  -7  -8  122.49   12.25
  -1   7  -8  102.29    9.02
   1  -7   8   91.03    9.01
  -1  -7  -8  114.77   10.70
  -3  -7  -8    5.01    4.03
  -3   7  -8   10.36    3.88
   3  -7   8    7.29    4.12
   5  -7   8   60.37    9.97
  -5  -7  -8  104.11   11.78
  -7  -7  -8   43.40    9.80
   7  -7   8   52.65    9.95
   9  -7   8   11.67    6.76
  -9  -7  -8   19.81    8.38
 -11  -7  -8   36.51   10.57
 -11   7  -8   29.25    9.43
 -11   7  -8   19.50    9.73
 -13   7  -8   39.83   12.48
 -13  -7  -8   13.68    9.01
 -13   7  -8    5.63    8.56
 -15   7  -8   -4.02    9.87
 -15  -7  -8    2.12    9.96
 -15   7  -8   -1.97    9.82
  22  -8  -8   54.03   14.58
  22   8  -8   43.33   15.01
  22  -8  -8   38.07   12.10
 -22  -8   8   49.44   11.52
 -20  -8   8    4.78    6.06
  20   8  -8    7.44    7.54
  20  -8  -8   -0.46    7.88
  20  -8  -8    4.03    7.27
 -18  -8   8    5.88    5.17
  18  -8  -8   -2.63    5.96
  18   8  -8    2.22    6.02
  18  -8  -8   -3.95    4.94
  16   8  -8    9.75    5.90
  16  -8  -8    0.28    4.96
  16  -8  -8    6.96    4.81
 -16  -8   8    6.20    5.02
  14   8  -8   25.18    7.67
  14  -8  -8   49.36    9.78
 -14  -8   8   41.52    7.76
  14  -8  -8   40.26    8.66
  12  -8  -8    1.17    2.43
  12  -8  -8   -0.52    3.23
  12   8  -8    8.68    3.23
 -12  -8   8   -0.23    2.38
  12   8  -8    3.30    3.18
  10   8  -8   56.06    7.14
  10   8  -8   64.71    9.06
  10  -8  -8   79.11    9.32
 -10  -8   8   54.19    7.23
  10  -8  -8   69.25    9.70
   8  -8  -8  261.52   16.50
   8  -8  -8  270.00   17.30
   8   8  -8  251.59   16.55
  -8  -8   8  238.74   14.29
   8   8  -8  231.09   15.58
   6   8  -8  459.09   25.19
   6  -8  -8  451.80   24.71
  -6  -8   8  474.83   22.47
   6   8  -8  466.04   24.65
   6  -8  -8  441.51   25.08
   4   8  -8  169.72   11.37
   4   8  -8  155.90   12.69
   4  -8  -8  169.67   12.38
  -4  -8   8  184.24   10.09
   4  -8  -8  173.66   12.58
   2   8  -8   65.12    9.05
   2  -8  -8   71.63    8.34
   2  -8  -8   96.84    9.84
  -2  -8   8   79.63    6.08
   2   8  -8   69.52    7.27
   0  -8  -8   10.82    4.47
   0   8  -8   12.33    3.61
   0  -8  -8   10.93    4.31
   0  -8   8   14.97    3.74
  -2   8  -8  127.41   10.68
  -2  -8  -8  132.10   12.50
   2  -8   8  141.62   11.26
   4  -8   8    0.47    3.03
  -4  -8  -8   -3.95    3.33
  -4   8  -8    3.63    3.00
   6  -8   8   64.27   10.78
  -6  -8  -8   61.27   10.17
  -8  -8  -8  140.15   16.37
   8  -8   8  159.17   17.27
 -10  -8  -8   69.29   13.36
  10  -8   8   51.32   11.38
 -12  -8  -8   44.43   11.78
 -14   8  -8    7.61   10.70
 -14   8  -8    1.16    8.38
 -14  -8  -8   37.72   13.23
 -21  -9   8   35.65   11.08
  21  -9  -8   17.06   10.62
  21  -9  -8   35.96   10.85
  21   9  -8   30.77   12.42
  19  -9  -8   51.87   13.25
  19  -9  -8   67.79   13.98
 -19  -9   8   60.44   12.52
  19   9  -8   71.86   14.82
 -17  -9   8  154.30   18.25
  17   9  -8  204.47   22.04
  17  -9  -8  173.17   20.59
  17  -9  -8  196.81   20.72
  15  -9  -8   86.50   13.51
  15   9  -8   36.26    9.56
 -15  -9   8   75.65   11.18
  15  -9  -8   62.37   11.12
  13   9  -8   93.10   12.94
  13  -9  -8   73.58   11.38
 -13  -9   8   78.88   10.46
  13  -9  -8   71.82   10.64
 -11  -9   8   20.63    5.07
  11  -9  -8   14.97    4.85
  11   9  -8   26.14    5.44
  11   9  -8   22.45    5.97
  11  -9  -8   17.58    6.32
   9  -9  -8   38.39    6.54
   9   9  -8   33.96    6.56
  -9  -9   8   32.79    5.60
   9   9  -8   32.44    5.67
   9  -9  -8   27.30    6.75
   7  -9  -8    0.76    1.98
   7   9  -8    1.70    2.24
   7  -9  -8   -2.55    2.14
   7   9  -8    1.44    2.38
  -7  -9   8    1.03    2.02
   5  -9  -8    1.16    2.26
   5  -9  -8   -0.46    2.54
   5   9  -8    0.80    2.11
  -5  -9   8    0.92    1.72
   5   9  -8    1.35    2.36
   3   9  -8   54.30    8.04
  -3  -9   8   53.83    5.42
   3   9  -8   48.80    6.10
   3  -9  -8   44.42    7.22
   3  -9  -8   43.96    6.95
  -1  -9   8   83.56    7.30
   1  -9  -8  109.48   11.11
   1  -9  -8   90.73    9.67
   1   9  -8   79.10    7.88
   1   9  -8   79.22   10.33
  -1  -9  -8   61.27    9.21
   1  -9   8   51.40    7.07
  -1   9  -8   36.44    7.68
  -1   9  -8   48.73    6.65
  -1  -9  -8   49.69    8.15
  -3   9  -8  203.48   14.89
   3  -9   8  235.47   16.19
  -3  -9  -8  227.39   16.67
  -5  -9  -8   18.32    6.55
   5  -9   8   24.26    7.09
  -7  -9  -8    3.14    5.56
   7  -9   8    4.34    5.10
  -9   9  -8    6.95    5.22
  -9  -9  -8    4.89    5.97
   9  -9   8    3.24    5.02
 -11  -9  -8  -10.38    6.10
  11  -9   8    7.33    6.86
 -13  -9  -8   -2.57    8.02
 -15   9  -8   44.22   16.03
 -15   9  -8   44.02   14.73
 -15  -9  -8   15.71   12.62
  20  10  -8   -2.33    7.44
  20 -10  -8   -5.48    6.58
  20 -10  -8    0.35    6.69
 -20 -10   8   -0.57    6.87
  18  10  -8   -0.75    5.38
  18 -10  -8    5.24    6.57
  18 -10  -8    5.92    5.58
 -18 -10   8    0.15    5.87
 -16 -10   8   10.56    5.83
  16 -10  -8    7.85    5.56
  16  10  -8    4.55    4.85
  16 -10  -8   -1.20    4.37
  14 -10  -8   63.34   10.64
  14 -10  -8   54.04   10.90
  14  10  -8   64.75   11.76
 -14 -10   8   61.00    9.88
  12  10  -8   12.25    5.38
  12 -10  -8   20.50    5.22
  12  10  -8   22.71    5.60
  12 -10  -8   40.76    8.65
  10 -10  -8    5.01    4.17
  10  10  -8    4.30    2.70
  10  10  -8   -0.49    2.77
 -10 -10   8    5.61    2.95
  10 -10  -8   -4.81    1.92
  -8 -10   8   28.60    5.02
   8 -10  -8   28.25    5.55
   8 -10  -8   17.30    5.76
   8  10  -8   23.64    5.44
   8  10  -8   24.44    5.58
   6 -10  -8   -0.99    1.85
   6  10  -8    4.06    2.18
  -6 -10   8    4.49    2.29
   6  10  -8   -1.33    2.00
   6 -10  -8    2.72    3.46
  -4 -10   8    4.55    2.40
   4  10  -8    4.68    3.10
   4  10  -8    2.62    2.42
   4 -10  -8    5.37    2.99
   4 -10  -8    2.06    3.40
   2  10  -8    7.22    3.63
   2 -10  -8    6.13    4.18
   2 -10  -8    5.76    3.23
   2  10  -8    6.80    2.77
  -2 -10   8    9.56    3.14
   0  10  -8   14.04    3.72
   0  10  -8   12.98    5.11
   0 -10  -8   23.42    5.94
   0 -10  -8   14.23    5.13
   0 -10   8   21.61    4.95
  -2 -10  -8   -0.73    4.06
   2 -10   8    6.40    3.24
  -2  10  -8    3.82    2.68
  -2  10  -8    4.87    3.66
  -4  10  -8   16.80    4.54
  -4  10  -8   17.87    5.73
   4 -10   8    4.78    3.55
  -4 -10  -8    3.60    4.63
  -6 -10  -8    7.20    4.86
  -6  10  -8    3.92    4.81
   6 -10   8    4.20    5.26
  -8 -10  -8   25.22    7.97
  -8  10  -8   23.55    7.34
   8 -10   8    6.90    4.59
 -10 -10  -8    7.05    6.87
  10 -10   8    7.58    6.28
 -12 -10  -8    2.74    7.79
  12 -10   8   -2.70    7.05
 -14  10  -8    8.93   11.23
 -14 -10  -8    2.07   10.04
 -14  10  -8  -10.03    8.22
  21  11  -8   21.56   11.40
 -21 -11   8   13.35    8.38
  21 -11  -8   13.86    9.27
  19  11  -8   34.13   11.14
 -19 -11   8   40.35   10.97
  19 -11  -8   35.58   11.06
  17 -11  -8   35.15    9.66
  17  11  -8   37.45   11.13
 -17 -11   8   46.52    9.89
  17 -11  -8   44.87   11.01
 -15 -11   8   45.35    9.05
  15  11  -8   50.11   10.53
  15 -11  -8   48.86    9.77
  15 -11  -8   41.46    9.61
  13  11  -8   10.20    4.94
  13 -11  -8   21.15    5.73
  13 -11  -8   21.47    7.02
 -13 -11   8   26.02    5.69
 -11 -11   8  195.27   14.29
  11 -11  -8  194.78   15.13
  11 -11  -8  201.38   17.15
  11  11  -8  220.02   16.61
   9 -11  -8    4.19    2.45
   9  11  -8    3.62    2.93
  -9 -11   8    9.33    3.17
   9  11  -8    9.32    3.58
   9 -11  -8    0.65    3.74
   7  11  -8   99.19    9.74
   7 -11  -8   82.80   10.86
   7  11  -8   90.38   10.54
  -7 -11   8  103.92    8.40
   5 -11  -8   24.17    5.23
   5 -11  -8   30.88    6.64
  -5 -11   8   32.95    5.27
   5  11  -8   26.13    5.77
   5  11  -8   38.25    5.68
   3 -11  -8  318.90   20.66
   3 -11  -8  324.72   19.75
   3  11  -8  326.16   20.87
  -3 -11   8  322.19   17.98
   3  11  -8  323.65   17.92
   1 -11  -8  158.82   13.54
   1  11  -8  171.27   11.39
   1  11  -8  184.38   14.53
   1 -11  -8  175.78   13.76
  -1 -11   8  164.91   11.74
  -1  11  -8  171.09   11.76
  -1 -11  -8  164.01   14.19
   1 -11   8  173.88   12.80
  -1  11  -8  167.83   15.39
  -1 -11  -8  173.63   14.29
   3 -11   8  152.50   12.98
  -3  11  -8  155.73   15.11
  -3 -11  -8  162.20   15.38
  -3  11  -8  147.29   11.65
  -5 -11  -8  115.65   13.86
  -5  11  -8  131.16   11.23
   5 -11   8  107.89   13.30
  -5  11  -8  117.37   13.63
  -7 -11  -8   16.81    6.62
  -7  11  -8   28.58    7.70
   7 -11   8   32.27    8.07
   9 -11   8   22.46    8.68
  -9 -11  -8   20.33    7.69
 -11 -11  -8   58.01   12.87
  11 -11   8   62.61   12.84
 -13 -11  -8  -10.56    7.32
  13 -11   8    3.87    6.37
  20  12  -8   -2.28    6.36
  20 -12  -8   13.59   10.22
 -20 -12   8   24.50    8.54
  18  12  -8   10.12    7.30
  18 -12  -8    9.77    7.31
 -18 -12   8   -2.59    5.35
  16  12  -8   25.50    8.77
  16 -12  -8   25.93    8.29
  16 -12  -8   27.20    8.86
 -16 -12   8   16.44    7.62
 -14 -12   8    6.95    4.23
  14 -12  -8    8.13    5.52
  14  12  -8    2.17    4.14
  14 -12  -8   -3.62    3.61
  12  12  -8   -0.71    2.34
  12 -12  -8    2.95    2.43
  12 -12  -8   -0.59    3.91
  12  12  -8    5.71    4.49
 -12 -12   8   -1.04    2.71
 -10 -12   8  219.02   15.24
  10  12  -8  238.66   16.85
  10  12  -8  221.55   16.92
  10 -12  -8  228.09   18.32
   8  12  -8  399.24   22.87
  -8 -12   8  401.01   21.10
   8  12  -8  362.52   21.73
   8 -12  -8  273.55   19.92
   8 -12  -8  391.66   24.26
   6  12  -8  444.13   24.94
   6 -12  -8  463.58   27.85
  -6 -12   8  479.56   25.04
   6  12  -8  473.03   27.25
   4  12  -8  123.08    9.43
   4  12  -8  123.44   12.58
   4 -12  -8  135.68   12.86
  -4 -12   8  118.17    9.59
   2  12  -8   72.83    7.27
   2 -12  -8  102.62   11.36
   2 -12  -8  116.00   11.22
   2  12  -8   75.34   10.53
  -2 -12   8   88.63    8.64
   0  12  -8    6.66    3.13
   0 -12  -8   13.61    5.61
   0  12  -8    1.30    3.38
   0 -12  -8   15.11    5.01
   0 -12   8    8.49    3.62
  -2 -12  -8   -1.71    4.41
  -2  12  -8    2.64    3.55
   2 -12   8    2.96    3.45
  -2 -12  -8    2.88    4.38
   4 -12   8    4.00    3.76
  -4  12  -8    4.52    4.17
  -4 -12  -8   14.61    5.89
  -6 -12  -8   25.05    7.70
   6 -12   8   21.56    6.75
  -6  12  -8   31.67    7.92
  -8  12  -8   75.49   12.16
   8 -12   8   72.31   12.57
  -8 -12  -8   66.78   12.07
  10 -12   8   42.32   11.13
 -10 -12  -8   34.68   10.09
  12 -12   8   48.67   12.21
 -12 -12  -8   61.73   13.65
 -14 -12  -8  -13.28    8.51
  14 -12   8   -5.41    6.75
  21  13  -8  -11.39    8.60
 -21 -13   8  -10.13    6.31
  21 -13  -8   -2.38    8.50
  19 -13  -8   11.05    8.20
  19  13  -8   10.62    8.38
 -19 -13   8    7.04    7.18
  17 -13  -8   18.53    8.84
  17  13  -8   28.17   10.29
 -17 -13   8   20.48    7.07
  15 -13  -8   84.13   14.75
 -15 -13   8   94.30   13.05
  15  13  -8   43.33   10.99
  13 -13  -8    3.87    3.02
  13  13  -8    9.13    4.01
  13  13  -8    1.35    3.91
  13 -13  -8   18.10    6.98
 -13 -13   8    2.67    4.13
  11  13  -8    3.50    3.24
  11 -13  -8    4.97    3.31
  11 -13  -8    2.30    4.09
 -11 -13   8   -2.70    2.39
  11  13  -8    3.24    3.56
  -9 -13   8  126.55   10.53
   9  13  -8  128.53   12.95
   9 -13  -8  112.25   10.99
   9 -13  -8  101.71   13.77
   9  13  -8  128.83   12.61
   7  13  -8   77.60   10.26
   7  13  -8  101.63    9.77
   7 -13  -8   85.85    9.01
  -7 -13   8   87.59    9.15
   7 -13  -8   84.67   11.59
   5 -13  -8    3.65    4.13
   5  13  -8    2.19    3.30
   5  13  -8    9.56    3.43
  -5 -13   8    6.52    3.50
   5 -13  -8    3.97    3.09
   3  13  -8    5.77    2.80
   3 -13  -8   -0.41    2.29
  -3 -13   8    2.33    2.78
   3 -13  -8   -0.22    3.57
   3  13  -8   -1.63    2.30
   1 -13  -8   -0.02    3.38
  -1 -13   8    4.94    3.41
   1 -13  -8    5.25    4.46
   1  13  -8    0.16    2.95
  -1 -13  -8   72.55   10.50
  -1 -13  -8   86.25   11.57
  -1  13  -8   88.67   11.73
   1 -13   8   93.26   10.21
  -3 -13  -8   32.57    7.63
  -3  13  -8   50.81    9.16
  -5  13  -8   10.91    5.56
   5 -13   8   -3.29    4.01
  -5 -13  -8    3.56    5.48
   7 -13   8   -3.34    4.00
  -7 -13  -8    1.66    5.38
  -7  13  -8    6.50    5.64
  -9 -13  -8   23.48    8.88
   9 -13   8   41.93    9.88
 -11 -13  -8   25.16    9.92
  11 -13   8   32.72   10.04
 -13 -13  -8   -2.36    7.59
  13 -13   8   -2.27    7.39
 -20 -14   8   -3.18    6.81
  20  14  -8    9.09    9.72
  20 -14  -8   -3.30    7.85
  18  14  -8   19.40    8.69
  18 -14  -8   32.20   10.58
 -18 -14   8   52.09   11.57
 -16 -14   8  102.87   13.94
  16  14  -8   72.88   14.67
  16 -14  -8   91.53   16.18
  14  14  -8   74.56   13.38
  14 -14  -8   81.28   13.97
 -14 -14   8   82.26   12.15
  12 -14  -8    4.33    4.11
  12  14  -8    1.46    3.76
  12  14  -8    1.64    4.23
 -12 -14   8    1.43    3.09
  10  14  -8    4.00    3.90
  10 -14  -8    0.14    2.45
  10  14  -8    3.54    3.64
  10 -14  -8    6.44    4.10
 -10 -14   8    0.45    2.88
   8  14  -8   23.97    6.19
   8 -14  -8   23.78    5.08
  -8 -14   8   21.12    5.10
   8 -14  -8   16.00    5.75
   8  14  -8   26.34    5.94
   6  14  -8   -1.38    2.20
  -6 -14   8    3.67    2.50
   6 -14  -8   -2.78    3.59
   6 -14  -8   -1.13    2.32
   6  14  -8   -1.20    2.42
   4  14  -8   31.86    6.81
  -4 -14   8   25.76    5.33
   4 -14  -8   22.34    5.06
   4  14  -8   20.24    4.57
   4 -14  -8   13.51    5.98
   2 -14  -8   32.98    7.69
   2  14  -8   40.41    8.36
  -2 -14   8   40.83    6.87
   0 -14  -8  296.68   21.84
   0 -14   8  318.59   19.93
   0  14  -8  368.38   23.03
   0 -14  -8  290.51   20.55
   2 -14   8  227.85   17.36
  -2 -14  -8  239.99   18.42
  -2 -14  -8  275.08   19.71
  -2  14  -8  264.81   19.47
  -4 -14  -8  169.24   17.07
   4 -14   8  166.03   14.66
  -4  14  -8  160.75   16.29
  -6  14  -8   13.33    5.97
   6 -14   8   22.01    6.62
  -6 -14  -8   16.74    6.82
  -8 -14  -8    9.79    6.58
   8 -14   8   28.10    8.23
  -8  14  -8   22.47    7.87
 -10 -14  -8    4.85    7.07
  10 -14   8    3.12    6.28
 -12 -14  -8   19.12   10.16
  12 -14   8    8.85    8.10
  19  15  -8    3.40    8.29
  19 -15  -8   15.46    9.67
  17  15  -8    3.93    7.34
 -17 -15   8    2.09    5.85
  17 -15  -8    4.93    6.92
  15  15  -8   11.43    7.02
  15 -15  -8    9.53    7.02
 -15 -15   8    3.76    5.73
  13  15  -8   94.64   13.06
  13  15  -8  127.15   15.52
 -13 -15   8   73.01   11.07
  13 -15  -8  126.47   16.92
  11  15  -8   11.69    5.97
  11  15  -8    6.43    4.48
  11 -15  -8   -2.57    3.52
 -11 -15   8   -1.64    2.66
  -9 -15   8   12.82    4.85
   9  15  -8    4.35    4.20
   9 -15  -8    3.39    4.50
   9  15  -8   20.34    5.64
   7 -15  -8    7.85    4.54
   7 -15  -8    8.37    3.46
   7  15  -8    6.62    4.46
  -7 -15   8   10.86    3.97
   7  15  -8   17.94    4.93
   5  15  -8   68.52   10.72
   5 -15  -8  108.84   12.76
   5 -15  -8   81.97    9.06
  -5 -15   8  110.83   10.52
   3  15  -8   24.31    6.68
   3 -15  -8   20.31    6.43
   3 -15  -8   27.36    6.32
  -3 -15   8   21.57    5.29
   1  15  -8   25.17    7.08
  -1 -15   8   30.57    6.20
   1 -15  -8    4.21    3.29
   1 -15  -8   17.55    5.96
  -1 -15  -8   82.16   11.79
  -1 -15  -8   83.81   11.34
  -1  15  -8   83.84   11.93
   1 -15   8   74.94   10.23
  -3 -15  -8   -3.50    2.97
  -3 -15  -8   -1.92    4.23
   3 -15   8    1.62    3.26
  -3  15  -8   -2.98    3.70
  -5 -15  -8    3.38    5.36
  -5  15  -8    6.21    5.28
   5 -15   8   11.61    5.25
  -7  15  -8    8.68    6.23
   7 -15   8    1.88    4.88
  -7 -15  -8   13.18    7.88
  -9 -15  -8    4.05    7.57
   9 -15   8    7.33    5.52
 -11 -15  -8    0.91    6.93
  11 -15   8    1.51    6.58
  13 -15   8    4.60    7.97
 -13 -15  -8   10.57    9.74
  18 -16  -8   17.22    8.40
  18  16  -8   -2.04    8.21
  16 -16  -8   46.89   11.76
  16  16  -8   49.05   12.07
 -16 -16   8   62.15   11.54
  14  16  -8   40.08   10.83
 -14 -16   8   39.91    9.01
  14 -16  -8   54.59   11.98
  12 -16  -8    9.83    6.55
  12  16  -8   18.40    6.40
  12  16  -8   14.04    6.23
 -12 -16   8   17.65    6.03
  10  16  -8    0.80    3.87
  10  16  -8    8.01    4.94
  10 -16  -8    3.26    4.49
 -10 -16   8    4.17    2.69
  -8 -16   8    4.01    3.73
   8  16  -8    4.25    4.12
   8 -16  -8   -0.48    3.59
   6  16  -8    3.46    3.77
  -6 -16   8    2.85    3.51
   6 -16  -8   10.25    4.72
  -4 -16   8   -0.71    3.17
   4 -16  -8   -2.19    2.56
   4  16  -8    1.77    3.15
   4 -16  -8    2.45    3.43
   2 -16  -8   16.41    5.11
   2  16  -8   17.81    6.31
  -2 -16   8   15.11    5.39
   2 -16  -8   11.89    4.90
   0 -16  -8    0.90    3.71
   0  16  -8    1.08    3.89
   0 -16  -8   -0.67    3.19
   0 -16   8   11.49    4.98
  -2 -16  -8   28.92    8.02
  -2 -16  -8   32.83    7.44
  -2  16  -8   26.40    7.59
  -4 -16  -8   -4.35    3.80
  -4  16  -8   -1.26    4.77
   4 -16   8   16.12    5.56
  -6 -16  -8   16.24    7.65
  -6  16  -8   12.16    5.67
   6 -16   8   11.83    5.79
  -8 -16  -8    4.35    6.67
  -8  16  -8   13.46    7.67
   8 -16   8    7.03    6.13
  10 -16   8    4.92    7.08
 -10 -16  -8    5.55    7.75
 -12 -16  -8    1.12    8.11
  12 -16   8    7.76    7.06
  19  17  -8    4.78    9.56
  19 -17  -8   13.22    9.75
  17 -17  -8    5.94    8.56
  17  17  -8    0.88    6.69
  15 -17  -8   -4.05    4.98
  15  17  -8   -2.56    6.03
 -15 -17   8   -2.46    5.16
  13  17  -8   -1.65    5.32
 -13 -17   8   18.55    6.34
  13 -17  -8   15.03    7.08
  13  17  -8   10.40    6.84
  11 -17  -8   52.40   11.28
 -11 -17   8   51.71    8.92
  11  17  -8   53.14   10.34
   9 -17  -8   26.88    8.15
  -9 -17   8    8.29    3.75
   9  17  -8   16.84    6.37
   7  17  -8   44.72    9.27
   7 -17  -8   44.53    9.20
  -7 -17   8   71.06    9.55
   5 -17  -8   89.23   12.40
  -5 -17   8   94.40   10.62
   5  17  -8   73.52   11.93
   3  17  -8   37.45    8.38
  -3 -17   8   41.72    7.62
   3 -17  -8   39.06    8.25
  -1 -17   8    6.14    4.00
   1  17  -8   -1.59    3.43
   1 -17  -8    2.19    3.81
   1 -17  -8   -0.34    3.78
  -1  17  -8    4.77    4.35
   1 -17   8    3.39    3.54
  -1 -17  -8    5.77    4.68
  -1 -17  -8   -1.49    3.34
  -3 -17  -8   13.12    6.44
  -3 -17  -8    2.89    4.26
  -3  17  -8    4.03    4.95
   3 -17   8    5.53    4.65
  -5 -17  -8   15.63    7.61
   5 -17   8   24.42    7.61
  -5  17  -8   34.21    8.90
  -7  17  -8   17.52    7.31
  -7 -17  -8    9.56    8.14
   7 -17   8    8.73    5.96
   9 -17   8   51.51   11.86
  -9 -17  -8   41.07   12.23
  11 -17   8    3.35    7.57
 -11 -17  -8   -0.99    7.83
  18 -18  -8   15.57   10.96
  18  18  -8   14.03    9.99
  16  18  -8   37.51   11.22
  16 -18  -8   37.84   12.11
  14 -18  -8   43.44   11.74
  12 -18  -8   22.81    7.74
 -12 -18   8   25.89    7.21
  12  18  -8   23.56    7.98
  10  18  -8   23.57    7.33
  10 -18  -8   41.81   10.06
 -10 -18   8    9.19    4.69
   8 -18  -8   44.50    9.78
  -8 -18   8   32.54    6.83
   8  18  -8   34.01    8.34
  -6 -18   8    4.28    3.86
   6  18  -8    2.53    3.48
   6 -18  -8    0.65    3.52
   4  18  -8    4.23    4.07
   4 -18  -8    4.59    4.36
  -4 -18   8   13.40    4.68
   2  18  -8   96.73   13.76
  -2 -18   8   82.06   11.08
   2 -18  -8   95.98   13.67
   0 -18  -8   54.17   10.76
   0  18  -8   51.77   10.54
  -2  18  -8   85.23   13.48
   2 -18   8   76.91   11.80
  -2 -18  -8   94.00   14.12
  -4  18  -8   19.00    7.32
  -4 -18  -8   22.16    8.44
   4 -18   8    9.57    5.68
  -4 -18  -8    9.07    5.29
  -6  18  -8    6.46    5.55
   6 -18   8    3.37    5.38
  -6 -18  -8   -2.99    5.63
   8 -18   8   -4.67    5.04
  -8 -18  -8    1.65    7.52
 -10 -18  -8  -11.56    6.57
  10 -18   8   -0.31    7.23
 -12 -18  -8    6.00    9.78
  12 -18   8   -2.42    7.58
  17 -19  -8   10.08    8.44
  15 -19  -8  -10.25    6.68
  13 -19  -8   11.59    7.79
  13  19  -8    7.11    5.84
  11 -19  -8    1.73    5.26
  11  19  -8   -0.22    4.80
  -9 -19   8   -0.15    3.53
   9 -19  -8    5.56    5.39
   9  19  -8    6.84    5.66
  -7 -19   8    4.08    3.42
   7  19  -8    0.21    3.41
   7 -19  -8    0.14    4.27
  -5 -19   8   25.77    6.29
   5  19  -8   30.68    8.52
   5 -19  -8   28.10    7.70
   3 -19  -8   92.07   13.43
  -3 -19   8   85.58   11.68
   3  19  -8  131.40   16.23
   1 -19  -8   32.38    7.94
   1  19  -8   24.58    7.87
  -1 -19  -8    6.76    5.52
   1 -19   8    1.82    3.98
  -1  19  -8    8.06    5.56
  -3  19  -8   15.12    6.82
  -3 -19  -8   10.20    6.94
   3 -19   8    6.88    5.50
  -3 -19  -8    5.01    4.53
  -5  19  -8   17.75    7.46
   5 -19   8   12.64    6.53
  -5 -19  -8   19.84    8.28
  -7  19  -8    3.12    6.08
   7 -19   8    4.17    5.63
  -7 -19  -8    5.16    7.49
   9 -19   8    8.02    7.61
  -9 -19  -8  -10.84    5.81
 -11 -19  -8    5.87    9.21
  11 -19   8   10.20    7.89
  16 -20  -8   20.23   10.03
  14 -20  -8   41.88   11.55
  12 -20  -8    7.85    7.82
  12  20  -8   11.16    6.25
  10 -20  -8    3.38    6.02
  10  20  -8   15.73    6.95
   8 -20  -8    2.65    5.10
   8  20  -8   -3.53    3.78
   6 -20  -8    1.14    4.73
  -6 -20   8    3.16    3.36
   6  20  -8   18.77    6.55
   4  20  -8   13.59    5.76
   4 -20  -8   22.04    7.32
  -4 -20   8   -0.93    3.67
   2  20  -8   39.29    9.94
   2 -20  -8   38.95    9.46
   0  20  -8   89.51   14.00
   0 -20  -8   65.60   11.92
  -2 -20  -8   26.83    7.79
   2 -20   8   17.48    6.32
  -2  20  -8   18.04    6.95
  -4 -20  -8   55.03   12.18
  -4  20  -8   46.46   10.79
   4 -20   8   61.12   11.72
   6 -20   8    3.52    5.89
  -6  20  -8   12.17    7.52
  -6 -20  -8    2.11    6.07
  -8 -20  -8   14.56    8.61
   8 -20   8    7.03    8.06
  10 -20   8   -4.73    7.18
 -10 -20  -8   -2.71    7.56
  17 -21  -8   -8.36    7.88
  15 -21  -8   -5.19    6.45
  13 -21  -8    7.85    7.47
  13  21  -8   -2.31    5.79
  11 -21  -8   41.59   11.87
  11  21  -8   74.02   13.68
   9  21  -8   86.45   14.30
   9 -21  -8   79.69   14.74
   7  21  -8   44.96   10.61
   7 -21  -8   66.88   12.49
   5  21  -8   13.22    6.46
   5 -21  -8   22.23    7.35
   3 -21  -8    0.78    4.56
   3  21  -8    1.20    4.81
   1 -21  -8   -0.92    3.81
   1  21  -8   -2.80    4.36
  -1  21  -8    0.95    5.56
  -1 -21  -8   -1.53    4.56
   1 -21   8   -3.77    4.52
  -3  21  -8   -1.57    5.61
   3 -21   8    4.19    5.27
  -3 -21  -8    7.98    6.65
   5 -21   8    8.40    6.21
  -5  21  -8   12.02    7.42
  -5 -21  -8   -1.63    6.31
   7 -21   8   28.05    9.96
  -7 -21  -8   36.56   10.49
  -7  21  -8   41.39   11.28
  -9 -21  -8   19.69   11.39
  16 -22  -8    2.40    8.69
  14 -22  -8   -0.78    7.30
  12 -22  -8    0.08    5.68
  12  22  -8    3.11    6.61
  10 -22  -8   39.03   10.34
  10  22  -8   30.48    9.91
   8 -22  -8   -3.87    5.36
   8  22  -8   25.70    8.85
   6 -22  -8    1.18    5.40
   6  22  -8   14.01    7.03
   4 -22  -8   13.54    6.46
   4  22  -8   -1.33    4.10
   2  22  -8    2.07    5.82
   2 -22  -8   -1.82    4.60
   0 -22  -8    8.41    5.23
   0  22  -8   10.40    6.74
  -2 -22  -8    3.92    5.99
  -2  22  -8    5.95    6.92
  -4 -22  -8   19.94    8.87
  -4  22  -8    5.64    7.11
  -6  22  -8    4.66    7.30
  -6 -22  -8    6.34    7.14
  -8 -22  -8   16.47    9.81
  15 -23  -8    8.21    9.38
  13  23  -8   17.87    7.98
  13 -23  -8   27.93   11.12
  11  23  -8   13.49    8.23
  11 -23  -8   21.41    8.78
   9 -23  -8   -3.00    5.56
   9  23  -8    1.70    5.75
   7 -23  -8    5.15    6.35
   7  23  -8   10.01    6.53
   5  23  -8    3.83    5.35
   5 -23  -8    9.66    6.21
   3 -23  -8    3.93    5.59
   3  23  -8    9.62    7.01
   1  23  -8   10.35    7.97
   1 -23  -8   19.77    8.23
  -1 -23  -8   36.74    9.97
  -1  23  -8   23.87    9.40
  -3  23  -8   14.29    8.11
  -3 -23  -8   12.12    6.58
  -5  23  -8   10.35    7.99
  -5 -23  -8   29.55    9.96
  -7 -23  -8   10.05    8.90
  14  24  -8   -5.66    6.55
  14 -24  -8   -2.45    8.83
  12 -24  -8    3.37    5.87
  12  24  -8   -1.90    5.63
  10 -24  -8   11.73    7.35
  10  24  -8   -1.16    5.22
   8 -24  -8    4.65    5.44
   8  24  -8   -2.65    6.18
   6  24  -8   -6.55    4.83
   6 -24  -8    4.60    5.83
   4  24  -8   -3.14    4.75
   4 -24  -8    3.10    5.68
   2  24  -8    4.35    6.52
   2 -24  -8    7.52    6.45
   0  24  -8   10.10    7.23
   0 -24  -8   13.62    6.74
  -2  24  -8    1.19    7.03
  -2 -24  -8   19.30    8.03
  -4 -24  -8   -2.99    5.86
  -4  24  -8   -1.04    7.06
  -6 -24  -8  -15.84    5.98
  -6  24  -8   10.00    8.93
  -8 -24  -8    1.99    9.26
  13  25  -8    9.92    7.42
  13 -25  -8   13.41    9.57
  11  25  -8   16.19    8.41
  11 -25  -8   11.18    8.98
   9 -25  -8    6.65    7.15
   9  25  -8    6.70    6.42
   7  25  -8   12.03    7.32
   7 -25  -8   -2.07    4.84
   5 -25  -8    5.59    6.12
   5  25  -8    5.88    5.87
   3  25  -8    2.25    6.46
   3 -25  -8    7.65    6.32
   1  25  -8   11.70    8.18
   1 -25  -8   14.88    7.55
  -1  25  -8   15.49    7.87
  -1 -25  -8    9.25    6.23
  -3  25  -8   11.12    8.42
  -3 -25  -8   26.60    9.31
  -5 -25  -8    5.54    8.46
  -5  25  -8   13.97    8.90
  -7 -25  -8   -6.79    8.49
  12  26  -8   23.01    9.29
  12 -26  -8   16.02   10.11
  10  26  -8   14.93    8.23
  10 -26  -8   17.22    9.58
   8  26  -8   36.65   10.38
   8 -26  -8   43.19   11.75
   6 -26  -8   24.04    9.20
   6  26  -8   13.23    7.84
   4 -26  -8   23.11    7.97
   4  26  -8   19.94    9.45
   2  26  -8    7.96    7.72
   2 -26  -8   19.24    8.31
   0 -26  -8   13.35    7.46
   0  26  -8    4.19    7.55
  -2 -26  -8    8.47    6.86
  -2  26  -8    7.47    8.11
  -4  26  -8   11.15    9.56
  -4 -26  -8   31.52   11.07
  -6  26  -8    1.62    8.79
  11 -27  -8   -6.67    7.67
  11  27  -8    4.64    6.85
   9  27  -8   -0.78    6.52
   9 -27  -8    3.28    7.54
   7 -27  -8    3.93    6.99
   7  27  -8  -10.32    4.82
   5  27  -8   -2.74    6.22
   5 -27  -8   10.29    7.14
   3  27  -8    7.19    8.57
   3 -27  -8    2.89    6.30
   1  27  -8   10.32    9.19
   1 -27  -8   19.69    8.65
  -1  27  -8   -0.98    7.62
  -1 -27  -8   13.48    8.88
  -3  27  -8    1.48    9.49
  -3 -27  -8   -2.72    6.95
   8  28  -8   -4.12    4.81
   8 -28  -8   13.35    8.91
   6 -28  -8    4.01    7.84
   6  28  -8    3.00    5.82
   4  28  -8    7.28    9.37
   4 -28  -8    7.33    8.10
   2 -28  -8   11.17    8.89
   2  28  -8    2.73    8.44
   0 -28  -8    4.24    6.08
   0  28  -8   13.57    9.87
  -2  28  -8    8.73    9.83
  -2 -28  -8    4.05    9.17
   7 -29  -8   -7.24    8.18
   7  29  -8   -1.17    5.63
   5 -29  -8    4.35    7.63
   5  29  -8    2.37    5.44
   3  29  -8    0.95   10.60
   3 -29  -8   24.49   11.23
   1 -29  -8    5.94    7.79
   1  29  -8   10.55   11.04
 -22   0   9   -7.55    6.57
 -22   0   9    7.47    8.20
  22   0  -9   -0.96    5.36
 -20   0   9   -0.18    6.06
  20   0  -9    3.82    6.34
 -20   0   9    2.00    5.73
  18   0  -9   -4.25    4.02
 -18   0   9    2.40    4.59
 -18   0   9    1.31    5.32
 -16   0   9    2.54    3.33
 -16   0   9   -4.69    3.58
  16   0  -9    4.69    4.23
  14   0  -9   -0.10    2.55
  14   0  -9   -5.37    3.52
  12   0  -9   -0.83    3.01
  12   0  -9    1.15    2.30
  10   0  -9   -1.83    1.35
  10   0  -9    0.65    2.77
   8   0  -9    3.10    2.53
   8   0  -9    2.05    2.60
   6   0  -9    0.04    2.08
   6   0  -9   -2.18    1.63
   4   0  -9    1.40    1.85
   2   0  -9    2.10    2.12
   2   0  -9    1.46    2.25
   0   0  -9    6.57    3.62
   0   0  -9    5.79    3.01
  -2   0  -9    6.34    3.71
  -2   0  -9    4.63    3.13
  -4   0  -9    2.71    3.45
  -6   0  -9    1.19    4.04
  -8   0  -9   -2.81    4.58
 -10   0  -9    4.15    6.01
 -12   0  -9   -9.29    6.59
 -14   0  -9    6.58    9.09
 -23  -1   9   16.68    8.72
  23  -1  -9   -4.25    5.42
  23   1  -9    4.01    5.54
 -23   1   9   32.84   12.02
 -23   1   9    9.39    8.69
 -21  -1   9    4.46    6.83
 -21   1   9    0.89    6.40
  21   1  -9    0.09    5.65
 -21  -1   9   17.81    8.25
  21  -1  -9    6.27    7.16
 -21   1   9   17.44    8.97
  19  -1  -9   -1.68    4.46
 -19  -1   9    7.25    6.01
 -19   1   9   -2.71    4.98
 -19  -1   9   -3.85    4.34
  19   1  -9    7.48    5.79
 -19   1   9    2.31    4.78
 -17  -1   9   13.93    5.70
  17  -1  -9    9.61    6.03
  17   1  -9   13.08    5.03
 -17  -1   9   14.66    5.24
  15  -1  -9   45.96    9.59
 -15  -1   9   55.08    9.09
 -15  -1   9   60.53    9.07
  15  -1  -9   45.07    9.57
  15   1  -9   61.08   10.88
  13  -1  -9  138.63   14.09
  13   1  -9  157.39   15.33
  13  -1  -9  136.42   14.47
  11  -1  -9  629.43   35.10
  11  -1  -9  548.74   32.98
  11   1  -9  686.14   35.65
  11   1  -9  662.76   33.78
  11   1  -9  666.58   30.04
   9  -1  -9   53.10    6.88
   9  -1  -9   52.95    7.83
   9   1  -9   50.04    7.76
   9   1  -9   53.07    6.52
   7   1  -9   67.44    5.63
   7   1  -9   79.10    8.67
   7  -1  -9   79.52    8.58
   7  -1  -9   62.00    6.21
   5  -1  -9  109.25    6.84
   5  -1  -9  115.10    9.75
   5   1  -9  114.91    9.61
   3   1  -9  125.29   10.57
   3  -1  -9  134.37   10.97
   3  -1  -9  145.15    8.10
   1  -1  -9    3.47    2.58
   1  -1  -9    4.18    2.67
   1   1  -9    5.57    2.95
   1   1  -9    2.58    2.18
  -1  -1  -9  257.94   17.83
  -1  -1  -9  239.12   14.80
  -1   1  -9  244.98   17.37
  -1   1  -9  255.02   14.72
  -3   1  -9  311.95   18.98
  -3  -1  -9  314.70   19.00
  -5   1  -9  107.36   11.82
  -5  -1  -9   99.52   11.60
  -7   1  -9   47.13    9.40
  -7  -1  -9   36.80    8.63
  -9  -1  -9   57.60   11.56
  -9   1  -9   56.05   11.76
 -11   1  -9   39.38   11.47
 -11  -1  -9   45.42   11.85
 -13   1  -9   15.83    9.67
 -13  -1  -9   21.68   10.99
 -15   1  -9   -2.80    9.78
 -15  -1  -9   -5.82    9.22
 -22   2   9   23.63    8.71
  22  -2  -9   19.50    8.64
 -22   2   9   15.61    9.58
 -22  -2   9   16.99    8.81
  20   2  -9   62.53   14.47
  20  -2  -9   60.51   13.74
 -20   2   9   62.28   13.28
 -20  -2   9   43.91   10.79
 -20  -2   9   63.51   12.58
 -20   2   9   53.05   11.45
  18  -2  -9  166.93   19.79
  18   2  -9  104.32   16.47
 -18  -2   9  114.59   14.61
  18  -2  -9  127.41   18.03
 -18  -2   9  100.24   14.55
  16   2  -9  152.60   17.65
  16  -2  -9  161.10   17.29
 -16  -2   9  131.39   14.21
  16  -2  -9  149.77   17.29
 -16  -2   9  113.01   14.17
  14  -2  -9   29.52    7.22
  14  -2  -9    8.85    4.87
 -14  -2   9   17.32    5.39
  14   2  -9   21.18    6.49
 -14  -2   9   20.11    5.50
 -12  -2   9    9.28    3.35
  12  -2  -9    4.69    3.07
  12   2  -9    5.87    3.54
  12  -2  -9    4.89    3.86
 -12  -2   9   12.08    4.01
 -10  -2   9   34.57    5.35
  10  -2  -9   36.61    6.62
 -10  -2   9   36.01    5.72
  10   2  -9   33.92    5.10
  10   2  -9   39.77    7.24
  10  -2  -9   33.23    6.30
  -8  -2   9   30.35    4.16
   8  -2  -9   38.44    6.47
  -8  -2   9   33.39    4.00
   8  -2  -9   34.57    5.36
   8   2  -9   30.31    6.12
   6  -2  -9   23.97    4.01
   6   2  -9   30.27    5.63
   6  -2  -9   32.06    5.87
   4   2  -9  370.61   20.88
   4  -2  -9  360.46   21.20
   4  -2  -9  366.41   17.74
   2  -2  -9  805.15   40.88
   2  -2  -9  809.55   37.07
   2   2  -9  810.79   35.29
   2   2  -9  844.28   40.61
   0  -2  -9 1904.08   80.54
   0   2  -9 1815.73   79.53
   0   2  -9 1764.18   83.53
   0  -2  -9 1866.65   84.46
  -2   2  -9  579.86   29.68
  -2   2  -9  568.95   32.21
  -2   2  -9  576.54   28.41
  -2  -2  -9  601.47   33.12
  -2  -2  -9  606.27   30.20
  -4   2  -9   90.47   10.02
  -4   2  -9   80.02    8.97
  -4  -2  -9   89.16   10.08
  -6  -2  -9    6.87    4.66
  -6   2  -9   -1.78    4.17
  -6   2  -9    1.94    3.90
  -8   2  -9    7.34    5.34
  -8  -2  -9    6.80    5.28
  -8   2  -9    2.31    5.04
 -10  -2  -9   19.46    8.52
 -10   2  -9    7.23    5.62
 -10   2  -9   10.84    6.65
 -12   2  -9    4.66    8.38
 -12  -2  -9   22.88    9.96
 -14  -2  -9   29.97   11.59
 -14   2  -9   24.02   12.18
 -23  -3   9    7.27    7.59
 -23   3   9    6.97    8.50
 -23   3   9   -6.92    8.87
  23  -3  -9    3.49    7.22
  23   3  -9    9.40    6.77
 -21  -3   9   13.85    7.45
  21   3  -9   10.20    6.70
 -21   3   9   30.38   10.02
 -21   3   9    5.27    8.57
  21  -3  -9    8.86    8.68
  19  -3  -9   42.61   11.84
  19  -3  -9   27.35    9.85
  19   3  -9   55.94   12.62
 -19  -3   9   36.95    9.51
 -19  -3   9   47.05   10.27
  17   3  -9   11.42    6.70
  17  -3  -9    0.92    4.48
 -17  -3   9    6.83    5.43
 -17  -3   9   13.97    6.09
  17  -3  -9   29.02    8.25
 -15  -3   9  151.77   12.55
  15  -3  -9  152.41   16.31
  15   3  -9  127.49   15.86
 -15  -3   9  126.67   13.96
  15  -3  -9  118.87   15.18
  13  -3  -9    1.86    3.07
 -13  -3   9   -1.16    2.46
  13  -3  -9    4.35    4.37
  13   3  -9   -1.80    2.79
 -13  -3   9    5.20    3.25
 -11  -3   9    3.85    3.36
  11  -3  -9    3.97    2.71
 -11  -3   9    0.89    2.67
  11  -3  -9    4.84    3.52
  11   3  -9    7.51    3.76
  11   3  -9    3.85    2.33
   9  -3  -9   -0.15    2.87
   9  -3  -9    4.16    2.40
   9   3  -9    5.86    2.83
  -9  -3   9    4.88    2.64
   9   3  -9   -2.42    1.90
  -9  -3   9    1.76    2.09
   7   3  -9   11.21    3.81
   7  -3  -9   17.43    4.52
  -7  -3   9   16.82    2.59
   7  -3  -9   10.63    3.36
   5  -3  -9    8.39    3.30
   5  -3  -9    4.81    2.54
   5   3  -9    9.57    3.24
   3  -3  -9   51.97    7.60
   3  -3  -9   51.59    5.41
   3   3  -9   48.60    6.97
   1  -3  -9  704.71   33.67
   1   3  -9  738.77   31.99
   1  -3  -9  683.69   36.76
   1   3  -9  696.32   35.93
  -1   3  -9   35.96    5.27
  -1  -3  -9   28.06    6.52
  -1  -3  -9   31.65    5.61
  -1   3  -9   27.70    4.58
  -1   3  -9   37.52    6.96
  -3  -3  -9  118.70   10.84
  -3   3  -9  134.95   13.32
  -3   3  -9  141.90   10.82
  -3   3  -9  137.79   11.15
  -5  -3  -9   -4.79    3.26
  -5   3  -9    4.34    3.78
  -5   3  -9   -0.78    3.59
  -7   3  -9   93.57   12.73
  -7  -3  -9  104.74   13.24
  -7   3  -9  117.42   12.94
  -9   3  -9   25.27    8.93
  -9   3  -9   30.45    8.41
  -9  -3  -9   16.85    7.47
 -11  -3  -9   -0.59    6.52
 -11   3  -9   16.32    8.55
 -11   3  -9   14.66    8.00
 -13   3  -9   -4.37    6.92
 -13   3  -9    3.46    8.34
 -13  -3  -9    0.44    7.77
 -15   3  -9    7.72   11.25
 -15  -3  -9    8.56   10.43
 -22   4   9    7.96    9.33
  22  -4  -9   13.69    8.72
 -22  -4   9    6.41    7.67
 -22   4   9   -3.90    7.36
  22   4  -9   -5.45    4.79
  20  -4  -9   24.49    9.58
  20  -4  -9   23.63   10.17
 -20  -4   9   40.45   10.22
  20   4  -9   20.78    8.82
  18  -4  -9   22.09    8.23
  18  -4  -9   16.16    7.74
  18   4  -9   19.00    7.95
 -18  -4   9   19.76    7.57
 -16  -4   9  102.37   12.97
  16  -4  -9   65.78   12.14
  16  -4  -9   92.05   14.21
  16   4  -9  108.35   15.52
  14   4  -9    1.38    3.56
  14  -4  -9    3.90    3.72
 -14  -4   9   -2.16    3.65
  14  -4  -9    2.24    4.05
  12  -4  -9   21.96    5.91
  12   4  -9   31.08    6.85
 -12  -4   9   41.83    6.96
  12  -4  -9   26.70    6.32
  10   4  -9  252.72   14.86
  10   4  -9  244.84   17.44
  10  -4  -9  242.01   16.36
  10  -4  -9  225.46   16.75
 -10  -4   9  261.61   15.38
   8  -4  -9   29.82    5.69
   8   4  -9   37.17    6.53
   8  -4  -9   49.20    7.28
  -8  -4   9   42.22    4.52
   6  -4  -9    2.47    2.56
   6  -4  -9   -1.37    1.95
   6   4  -9    1.59    1.92
   4  -4  -9   55.41    5.69
   4  -4  -9   38.91    6.62
   4   4  -9   41.49    6.50
   2   4  -9   -0.33    1.99
   2  -4  -9    9.11    3.99
   2  -4  -9   11.28    3.75
   0  -4  -9   86.05    8.29
   0   4  -9   92.96    9.68
   0  -4  -9   82.75   10.48
   0   4  -9   79.61    6.80
   0   4  -9   86.01    6.71
  -2   4  -9   74.77    7.85
  -2   4  -9   92.47   10.66
  -2  -4  -9   90.48   11.26
  -2  -4  -9   67.32    8.27
  -2   4  -9   74.46    8.14
  -4  -4  -9   38.56    7.44
  -4   4  -9   49.07    7.42
  -4   4  -9   37.72    7.20
  -6   4  -9   44.36    8.81
  -6   4  -9   51.95    8.76
  -6  -4  -9   42.36    8.74
  -8  -4  -9   28.85    8.37
  -8   4  -9    7.94    5.56
  -8   4  -9   26.73    8.18
 -10  -4  -9   42.27   10.88
 -10   4  -9   31.19    9.00
 -10   4  -9   54.05   12.01
 -12  -4  -9    5.67    7.82
 -12   4  -9   11.93    8.08
 -12   4  -9    0.69    7.94
 -14   4  -9   13.60   10.39
 -14  -4  -9    9.60    9.43
 -14   4  -9    7.49    9.01
 -21  -5   9    0.92    5.92
  21   5  -9    6.29    7.71
  21  -5  -9   -2.18    5.61
  21  -5  -9   -1.43    7.00
  19   5  -9    7.16    6.24
  19  -5  -9    8.92    6.86
 -19  -5   9   -3.57    4.96
  19  -5  -9    7.99    6.54
  17  -5  -9   11.20    6.81
  17  -5  -9    5.72    4.52
  17   5  -9    3.79    5.55
 -17  -5   9    3.18    4.60
  15  -5  -9   26.84    7.90
  15   5  -9   53.72   10.57
 -15  -5   9   37.78    8.01
  15  -5  -9   39.10    8.62
  13  -5  -9  101.21   12.84
  13   5  -9  159.53   15.43
 -13  -5   9  117.31   12.26
  13  -5  -9  134.87   14.24
 -11  -5   9  168.24   12.67
  11   5  -9  189.68   14.86
  11  -5  -9  184.61   14.48
  11   5  -9  192.68   12.30
  11  -5  -9  165.36   13.95
   9  -5  -9  626.93   33.42
  -9  -5   9  656.46   30.21
   9  -5  -9  613.96   32.33
   9   5  -9  590.20   32.87
  -7  -5   9  229.35   12.16
   7  -5  -9  262.07   15.40
   7   5  -9  285.20   16.71
   7  -5  -9  214.84   15.46
   7   5  -9  240.85   15.71
   5  -5  -9   21.44    4.34
   5  -5  -9   21.00    4.77
   5   5  -9   20.65    4.60
   3  -5  -9   19.19    5.04
   3  -5  -9   24.08    4.66
   3   5  -9   28.58    5.39
   1  -5  -9  170.90   11.91
  -1  -5   9  171.51   10.28
   1  -5  -9  183.55   14.09
   1   5  -9  183.89   12.85
  -1  -5  -9   38.92    7.67
  -1   5  -9   35.82    6.56
   1  -5   9   32.92    5.64
  -1  -5  -9   33.87    6.17
   3  -5   9   47.05    7.40
  -3   5  -9   49.72    8.17
  -3  -5  -9   55.24    8.20
  -5  -5  -9   64.64   10.08
  -7   5  -9    6.09    5.22
  -7  -5  -9   12.60    6.40
  -7   5  -9    7.05    4.69
  -9  -5  -9   11.23    7.55
  -9   5  -9   14.61    7.23
  -9   5  -9   30.29    8.59
 -11  -5  -9   -1.08    7.17
 -11   5  -9    7.54    7.15
 -11   5  -9   -0.95    5.63
 -13  -5  -9   -0.73    8.08
 -13   5  -9    0.58    8.71
 -13   5  -9    1.66    7.62
 -15  -5  -9   -5.01   10.79
 -15   5  -9    4.41    9.56
 -15   5  -9   -6.04    9.79
 -22  -6   9    3.78    7.09
  22  -6  -9    3.42    7.60
  22   6  -9   -1.47    8.56
  22  -6  -9   -3.19    7.49
  20  -6  -9   15.55    8.80
 -20  -6   9   16.64    8.20
  20   6  -9   12.54    8.76
  20  -6  -9   14.95    7.80
  18   6  -9    1.51    4.55
  18  -6  -9    9.73    6.89
 -18  -6   9   11.86    6.55
  18  -6  -9   13.76    7.03
  16  -6  -9   86.80   13.88
 -16  -6   9   77.01   11.50
  16   6  -9   72.49   12.90
  16  -6  -9   63.17   11.61
  14  -6  -9    9.21    4.86
 -14  -6   9    1.58    3.35
  14  -6  -9    8.05    4.19
  14   6  -9   15.71    5.69
  12  -6  -9   27.89    6.59
  12   6  -9   47.94    6.18
 -12  -6   9   37.61    6.53
  12   6  -9   42.50    8.18
  12  -6  -9   23.82    6.75
  10  -6  -9  117.75   12.08
 -10  -6   9  144.74   10.35
  10   6  -9  158.82   12.78
  10  -6  -9  127.43   12.49
  10   6  -9  132.86   10.18
   8   6  -9  327.20   20.87
  -8  -6   9  368.94   18.03
   8  -6  -9  341.95   21.08
   8  -6  -9  345.38   20.49
   8   6  -9  380.55   20.71
   6  -6  -9    5.95    3.46
  -6  -6   9    5.37    1.66
   6   6  -9    4.55    2.54
   6  -6  -9    8.34    3.13
   6   6  -9   10.62    3.47
   4  -6  -9    4.63    3.10
   4  -6  -9    5.02    3.16
   4   6  -9    6.94    2.83
   2   6  -9   61.51    7.35
   2  -6  -9   48.27    7.80
  -2  -6   9   54.74    4.64
   2  -6  -9   67.29    7.62
   0  -6  -9    3.05    3.57
   0  -6   9   10.68    3.35
   0  -6  -9    3.68    3.75
   0   6  -9   10.69    3.80
   2  -6   9   38.42    6.53
  -2   6  -9   33.32    6.68
  -2  -6  -9   25.14    6.54
  -2  -6  -9   25.99    6.11
  -4  -6  -9    0.99    4.05
  -4   6  -9   -3.07    2.36
   4  -6   9    6.18    4.29
   6  -6   9   93.12   12.68
  -6  -6  -9   80.86   11.89
  -8  -6  -9   80.84   13.14
  -8   6  -9   83.15   12.13
  -8   6  -9   97.22   13.68
 -10   6  -9   21.90    8.77
 -10   6  -9   28.79    9.58
 -10  -6  -9   42.58   10.58
 -12   6  -9   -0.55    8.03
 -12  -6  -9   -4.25    7.44
 -12   6  -9   10.09    8.04
 -14   6  -9   13.75   10.66
 -14   6  -9   18.64   10.43
 -14  -6  -9   10.28   10.60
  21  -7  -9   26.43   10.56
 -21  -7   9   55.49   11.94
  21   7  -9   38.32   12.80
  21  -7  -9   63.94   15.21
  19   7  -9  112.22   18.30
  19  -7  -9   75.46   15.16
  19  -7  -9   53.70   13.46
 -19  -7   9   90.46   13.97
  17  -7  -9  161.96   19.64
  17   7  -9  188.20   21.02
 -17  -7   9  236.35   18.51
  17  -7  -9  209.28   21.45
  15  -7  -9   18.72    6.95
  15   7  -9   32.16    8.52
  15  -7  -9   22.16    6.64
 -15  -7   9   40.16    7.48
  13  -7  -9   41.73    8.56
  13   7  -9   56.43    9.94
  13  -7  -9   59.94    9.83
 -13  -7   9   68.44    9.22
  11  -7  -9   -2.75    2.77
 -11  -7   9    0.75    2.77
  11   7  -9    4.06    2.41
  11  -7  -9   -2.41    1.96
  11   7  -9    0.87    2.50
   9  -7  -9   21.09    5.04
   9   7  -9   13.83    4.51
   9  -7  -9   19.68    5.57
   9   7  -9    9.86    3.46
  -9  -7   9   16.25    3.71
   7   7  -9  153.12   12.22
   7   7  -9  186.22   13.18
   7  -7  -9  191.71   13.27
   7  -7  -9  167.39   12.59
  -7  -7   9  176.47   10.03
   5   7  -9  269.52   17.67
   5  -7  -9  252.33   15.89
  -5  -7   9  278.25   12.89
   5   7  -9  233.70   15.50
   5  -7  -9  255.89   16.75
   3  -7  -9  639.10   33.33
   3  -7  -9  595.95   31.19
  -3  -7   9  654.66   28.43
   3   7  -9  603.55   31.54
   1   7  -9  304.81   18.20
   1  -7  -9  314.87   18.45
   1  -7  -9  305.84   19.90
  -1  -7   9  286.52   16.18
  -1  -7  -9  654.76   33.21
  -1   7  -9  613.71   32.74
  -1  -7  -9  638.00   35.09
   1  -7   9  611.03   31.72
   3  -7   9  105.23   10.90
  -3   7  -9  101.49   11.21
  -3  -7  -9  109.89   11.49
  -5  -7  -9   47.54    9.02
  -7  -7  -9   -2.76    4.86
   7  -7   9   10.40    5.01
  -9  -7  -9   -3.45    5.17
 -11   7  -9   31.99    9.76
 -11   7  -9   27.24    9.37
 -11  -7  -9   15.90    9.11
 -13   7  -9   16.97    9.88
 -13   7  -9   32.21   11.21
 -13  -7  -9    7.69    8.97
  22   8  -9   -7.10    7.45
  22  -8  -9    8.76    9.16
  22  -8  -9   11.22    8.31
 -22  -8   9   -1.36    6.75
  20  -8  -9    7.38    6.90
  20  -8  -9   -4.04    6.29
  20   8  -9   -5.64    6.07
 -20  -8   9   -2.67    6.46
  18  -8  -9    6.32    5.46
  18   8  -9    5.37    6.09
  18  -8  -9    1.67    5.33
 -18  -8   9   -8.08    4.10
  16  -8  -9    6.54    4.55
  16   8  -9   -3.70    3.68
  16  -8  -9    3.28    5.02
 -16  -8   9    3.96    4.71
 -14  -8   9   -6.48    2.38
  14   8  -9    0.54    3.47
  14  -8  -9    1.90    4.06
  14  -8  -9    2.82    3.51
  12   8  -9   79.07    8.75
  12  -8  -9   71.73   10.27
  12   8  -9   58.36    9.96
 -12  -8   9   67.05    8.85
  12  -8  -9   73.56   10.83
  10   8  -9   63.89    9.25
 -10  -8   9   76.98    7.67
  10  -8  -9   85.21   10.53
  10  -8  -9   64.45    9.08
   8  -8  -9  150.68   12.39
   8  -8  -9  147.55   11.94
   8   8  -9  140.00   11.56
  -8  -8   9  151.43    9.80
   8   8  -9  162.22   12.27
   6   8  -9   43.25    7.15
   6  -8  -9   73.91    8.40
   6   8  -9   50.07    6.99
  -6  -8   9   51.41    4.94
   6  -8  -9   52.18    7.55
   4  -8  -9   66.13    8.42
   4   8  -9   50.64    6.77
   4   8  -9   48.10    7.75
  -4  -8   9   50.92    4.42
   4  -8  -9   62.95    7.71
   2  -8  -9    3.53    3.19
   2  -8  -9   -2.57    2.90
  -2  -8   9   -0.70    2.04
   2   8  -9    1.10    2.36
   0  -8  -9    4.50    3.78
   0  -8  -9    3.50    3.59
   0  -8   9    6.98    3.28
   0   8  -9    4.94    2.80
   2  -8   9   34.86    6.39
  -2  -8  -9   28.28    6.82
  -2  -8  -9   30.31    7.07
  -2   8  -9   36.65    6.69
  -4  -8  -9   25.55    6.61
  -4   8  -9   11.63    4.75
   4  -8   9   22.12    6.37
   6  -8   9    5.70    5.13
  -6  -8  -9    3.87    5.04
   8  -8   9   33.40    8.89
  -8  -8  -9   41.40    9.37
 -10  -8  -9   -6.25    6.03
 -12   8  -9    2.35    6.56
 -12   8  -9    7.05    7.78
 -12  -8  -9    0.44    7.43
 -14   8  -9    2.18    9.84
 -14  -8  -9  -10.07    7.99
 -14   8  -9    7.62    9.60
  21   9  -9    8.66    8.65
 -21  -9   9    4.85    6.30
  21  -9  -9   -7.39    6.69
  21  -9  -9    9.22    9.16
  19  -9  -9   15.06    7.85
  19   9  -9   20.35    9.19
 -19  -9   9   32.99    9.19
  19  -9  -9   31.29   10.19
  17   9  -9   15.31    7.55
  17  -9  -9   22.60    7.53
 -17  -9   9   33.78    8.34
  17  -9  -9   24.92    8.78
 -15  -9   9    0.25    4.20
  15   9  -9    2.81    4.45
  15  -9  -9   -0.53    3.66
  15  -9  -9    6.23    5.01
 -13  -9   9    2.34    3.78
  13  -9  -9    1.34    3.37
  13  -9  -9    0.78    3.66
  13   9  -9    1.53    4.03
 -11  -9   9    9.03    3.48
  11   9  -9    2.94    2.73
  11   9  -9    6.72    4.16
  11  -9  -9    3.40    4.11
  11  -9  -9    5.70    2.87
   9  -9  -9   12.74    4.20
   9  -9  -9   20.63    5.81
   9   9  -9   15.38    4.40
   9   9  -9   18.31    5.16
  -9  -9   9   17.79    4.19
   7  -9  -9    9.05    4.07
  -7  -9   9    3.59    2.13
   7   9  -9    9.50    3.48
   7   9  -9    7.01    3.29
   7  -9  -9    0.63    2.32
  -5  -9   9   26.36    3.77
   5  -9  -9   33.70    6.35
   5  -9  -9   39.40    6.64
   5   9  -9   20.76    4.90
   5   9  -9   36.04    5.77
   3  -9  -9  194.14   14.02
   3   9  -9  203.68   15.46
   3   9  -9  190.09   12.75
   3  -9  -9  198.64   14.52
  -3  -9   9  194.15   11.45
   1   9  -9   35.41    7.42
   1   9  -9   48.13    6.49
   1  -9  -9   47.47    8.00
  -1  -9   9   53.53    6.19
   1  -9  -9   41.32    7.43
  -1  -9  -9   14.30    5.55
   1  -9   9   17.13    5.03
  -1  -9  -9   20.10    6.09
  -1   9  -9   24.25    5.09
  -3  -9  -9   16.98    6.27
  -3   9  -9   16.54    4.81
   3  -9   9   20.29    5.41
   5  -9   9    4.09    3.84
  -5  -9  -9    0.44    3.94
  -5   9  -9    4.94    3.76
  -7  -9  -9   -6.24    3.39
   7  -9   9   -1.52    4.64
   9  -9   9    2.36    5.27
  -9  -9  -9    7.89    6.40
 -11  -9  -9    7.84    7.68
 -13   9  -9    4.34    9.09
 -13   9  -9   11.71    8.84
 -13  -9  -9    3.63    8.43
  20 -10  -9   19.08    8.92
 -20 -10   9    1.28    6.48
  20 -10  -9    5.89    7.11
  20  10  -9   -0.20    6.46
  18 -10  -9    4.04    7.03
  18 -10  -9    7.24    6.08
  18  10  -9    1.14    5.57
 -18 -10   9   -1.13    5.01
  16 -10  -9    6.54    5.25
  16 -10  -9    6.61    5.13
 -16 -10   9    7.53    4.99
  16  10  -9    7.75    5.82
  14 -10  -9   22.65    6.82
  14  10  -9   27.76    7.82
  14 -10  -9   49.10   10.26
  12 -10  -9   17.53    5.06
  12  10  -9   23.37    5.41
  12 -10  -9   24.69    6.53
  12  10  -9    8.75    4.64
 -12 -10   9   22.13    5.28
  10  10  -9  257.54   18.54
  10  10  -9  260.24   17.60
  10 -10  -9  307.65   20.53
 -10 -10   9  267.30   16.44
  10 -10  -9  282.58   18.75
   8  10  -9  184.41   13.46
  -8 -10   9  169.24   11.00
   8 -10  -9  145.50   13.17
   8  10  -9  135.35   11.99
   8 -10  -9  159.98   12.48
   6  10  -9  454.63   25.86
   6  10  -9  412.48   23.81
  -6 -10   9  453.02   22.26
   6 -10  -9  401.15   24.24
   6 -10  -9  476.98   26.22
   4 -10  -9   47.38    7.72
   4  10  -9   60.69    6.89
  -4 -10   9   51.58    5.45
   4  10  -9   60.12    8.71
   4 -10  -9   54.06    8.08
   2 -10  -9    3.63    3.47
   2  10  -9    3.52    2.66
   2  10  -9    4.50    3.73
   2 -10  -9    4.76    3.63
  -2 -10   9   10.34    3.44
   0 -10  -9   39.09    7.56
   0 -10  -9   29.63    6.75
   0 -10   9   42.89    6.46
   0  10  -9   41.51    6.22
   0  10  -9   37.45    7.72
  -2  10  -9    3.47    3.97
  -2 -10  -9   -3.29    4.01
  -2  10  -9   -3.98    1.97
   2 -10   9    4.47    3.34
  -2 -10  -9   -1.39    3.31
   4 -10   9  140.40   14.16
  -4  10  -9  139.11   13.27
  -4  10  -9  155.11   15.77
  -4 -10  -9  152.52   15.02
  -6  10  -9  152.87   14.88
   6 -10   9  175.59   17.17
  -6 -10  -9  174.14   17.16
  -6  10  -9  167.47   16.98
   8 -10   9  153.78   17.69
  -8  10  -9  135.89   16.80
  -8 -10  -9  131.20   16.53
 -10 -10  -9   34.83   10.80
  10 -10   9   43.13   10.52
 -12 -10  -9   48.79   12.92
 -14  10  -9    4.20    9.98
 -14 -10  -9   11.87   10.62
 -14  10  -9    8.03   11.23
  21 -11  -9   44.23   13.24
  21  11  -9   31.51   12.30
  19 -11  -9   71.90   14.56
  19 -11  -9   50.02   12.25
  19  11  -9   27.12   10.86
  17 -11  -9   60.48   12.25
 -17 -11   9   68.25   12.01
  17 -11  -9   78.14   14.41
  17  11  -9   76.83   14.69
  15 -11  -9   35.37    9.44
  15  11  -9   40.32    9.81
 -15 -11   9   54.67    9.45
  15 -11  -9   23.59    7.50
  13  11  -9    2.73    4.04
  13 -11  -9   -1.06    2.56
 -13 -11   9    1.92    3.39
  13 -11  -9    3.17    4.64
  13  11  -9    7.95    3.52
 -11 -11   9    2.78    3.31
  11  11  -9    7.41    4.17
  11 -11  -9    3.13    4.17
  11 -11  -9    4.58    3.06
  11  11  -9    5.22    3.50
  -9 -11   9  103.48    8.64
   9 -11  -9   84.70   11.79
   9  11  -9  107.17   11.21
   9 -11  -9   78.55    9.91
   9  11  -9  115.17   11.35
   7  11  -9    7.23    3.50
   7  11  -9    9.72    3.46
   7 -11  -9    8.10    4.65
   7 -11  -9    6.95    3.14
  -7 -11   9    0.61    2.56
  -5 -11   9   55.80    6.03
   5  11  -9   53.96    6.91
   5 -11  -9   41.71    7.87
   5 -11  -9   44.23    7.39
   5  11  -9   42.13    7.75
   3  11  -9  372.64   20.55
   3 -11  -9  360.98   22.40
  -3 -11   9  372.02   19.89
   3 -11  -9  364.02   22.94
   3  11  -9  398.55   24.28
   1  11  -9  147.61   10.79
  -1 -11   9  149.06   10.95
   1 -11  -9  154.29   13.53
   1 -11  -9  128.14   13.43
   1  11  -9  157.61   15.02
  -1 -11  -9  132.60   13.82
   1 -11   9   90.08    9.76
  -1  11  -9  116.45   13.33
  -1 -11  -9  111.83   12.38
  -1  11  -9   94.71    9.41
  -3  11  -9   67.11   10.97
  -3 -11  -9   87.60   11.89
   3 -11   9   96.54   11.08
  -3  11  -9   85.83    9.63
  -5 -11  -9   -1.37    4.63
   5 -11   9    4.31    4.38
  -5  11  -9    8.49    5.29
   7 -11   9    5.49    5.12
  -7 -11  -9    3.73    5.78
  -7  11  -9    6.37    6.12
  -9 -11  -9    2.99    5.92
   9 -11   9    3.59    4.99
 -11 -11  -9   -5.92    6.81
  11 -11   9    0.68    6.96
 -13 -11  -9   -0.82    8.62
  20 -12  -9   13.41   10.21
  20  12  -9   21.12   10.08
  18 -12  -9   47.31   12.17
  18  12  -9   26.89   10.13
  16 -12  -9   48.88   11.13
  16 -12  -9   61.98   11.41
  16  12  -9   67.34   13.12
 -16 -12   9   55.33   10.32
  14 -12  -9   72.89   11.58
  14  12  -9   73.86   12.62
  14 -12  -9   83.87   13.39
  12 -12  -9    3.11    2.78
  12  12  -9   -2.61    3.01
  12  12  -9    6.08    3.13
  12 -12  -9   -0.63    3.81
 -12 -12   9   -0.93    3.17
  10  12  -9    7.23    3.42
  10  12  -9   21.51    6.02
  10 -12  -9   19.43    6.36
 -10 -12   9   18.85    4.86
  10 -12  -9   18.31    4.90
  -8 -12   9   14.42    3.92
   8  12  -9    9.55    3.85
   8 -12  -9    4.87    3.20
   8 -12  -9   12.02    5.33
   8  12  -9    7.34    3.73
   6 -12  -9   96.14   11.86
   6  12  -9  121.72    9.83
   6  12  -9  127.24   12.88
   6 -12  -9   96.12   10.29
  -6 -12   9  116.10    9.39
   4 -12  -9  164.98   13.86
   4  12  -9  174.67   14.30
   4 -12  -9  153.25   12.69
  -4 -12   9  168.80   11.68
   4  12  -9  163.27   11.69
   2  12  -9  174.83   11.27
   2  12  -9  178.45   16.03
   2 -12  -9  134.76   14.21
  -2 -12   9  150.86   11.44
   2 -12  -9  142.83   13.95
   0 -12   9   99.93    9.95
   0 -12  -9   81.20   11.37
   0  12  -9  108.20   12.83
   0 -12  -9   89.22   11.57
   0  12  -9  113.87    8.92
   2 -12   9   40.20    7.47
  -2  12  -9   24.90    6.68
  -2 -12  -9   41.33    9.15
  -2 -12  -9   34.73    7.98
   4 -12   9   -1.98    3.94
  -4  12  -9    8.70    5.31
  -4 -12  -9    3.44    5.26
   6 -12   9   -2.98    3.97
  -6  12  -9   -5.11    4.65
  -6 -12  -9   -1.25    4.92
   8 -12   9   10.27    6.14
  -8  12  -9   13.59    7.40
  -8 -12  -9    1.64    5.65
  10 -12   9   25.78    8.39
 -10 -12  -9   20.82    9.50
 -12 -12  -9   -7.28    7.29
  12 -12   9    9.93    8.63
  21 -13  -9   60.19   15.12
  21  13  -9   60.23   16.73
  19  13  -9   21.33    9.93
  19 -13  -9   40.15   11.01
  17  13  -9   23.28    9.32
  17 -13  -9   28.75    9.89
  15 -13  -9   34.51    8.66
  15  13  -9   46.43   10.71
  15 -13  -9   28.91    8.82
  13  13  -9   35.73    8.63
  13 -13  -9   56.38   10.76
  13 -13  -9    5.57    3.78
 -13 -13   9   26.03    5.66
  11  13  -9   55.86    9.02
 -11 -13   9   68.61    8.91
  11 -13  -9   72.45   11.80
  11  13  -9   40.34    8.35
   9 -13  -9    5.74    2.42
   9  13  -9    9.36    3.78
   9  13  -9    3.73    3.46
  -9 -13   9    6.64    3.29
   9 -13  -9    5.03    5.41
  -7 -13   9   31.85    5.76
   7 -13  -9   28.74    7.53
   7  13  -9   22.78    5.99
   7  13  -9   26.11    5.57
  -5 -13   9   53.27    7.14
   5 -13  -9   47.93    9.18
   5  13  -9   66.24   10.01
   5  13  -9   70.09    7.83
  -3 -13   9    6.99    3.59
   3  13  -9   12.02    3.59
   3  13  -9    9.04    3.83
   3 -13  -9   10.06    5.54
   3 -13  -9    9.17    4.25
  -1 -13   9   15.77    4.53
   1 -13  -9   21.37    6.02
   1 -13  -9    5.67    5.15
   1  13  -9   16.93    5.65
  -1 -13  -9    2.24    4.46
  -1  13  -9   -0.68    3.59
   1 -13   9    2.99    3.53
  -1 -13  -9   -2.86    3.61
  -3 -13  -9   54.31    9.92
   3 -13   9   49.97    8.49
  -3 -13  -9   53.57    9.40
  -3  13  -9   57.43   10.23
  -5  13  -9    5.66    5.16
   5 -13   9    7.63    4.10
  -5 -13  -9    3.90    5.34
  -7  13  -9    2.33    5.30
  -7 -13  -9    3.99    5.57
   7 -13   9    6.12    5.56
   9 -13   9   -0.36    5.46
  -9 -13  -9    0.05    7.32
  11 -13   9   24.12    9.44
 -11 -13  -9   16.36    8.87
 -13 -13  -9    6.22    9.31
  13 -13   9    4.45    6.84
  20 -14  -9    2.36    8.37
  20  14  -9   10.60    9.12
  18  14  -9   -0.01    5.78
  18 -14  -9   -3.68    6.09
  16  14  -9   -3.61    5.08
  16 -14  -9   -3.71    5.49
  14  14  -9   26.61    8.19
  14 -14  -9   18.10    7.35
  12 -14  -9    1.75    4.06
  12 -14  -9   -3.69    2.82
  12  14  -9    3.98    4.23
  12  14  -9   -0.39    3.81
  10  14  -9  105.90   12.10
  10 -14  -9   99.36   13.37
  10  14  -9   95.77   12.37
  10 -14  -9   80.20    9.92
   8 -14  -9  106.71   13.19
   8  14  -9   82.23   11.47
   8  14  -9   95.60   10.72
   8 -14  -9  115.36   10.92
   6  14  -9   -0.25    3.54
   6 -14  -9    3.55    4.43
   6  14  -9    2.55    2.54
   6 -14  -9   -2.89    2.33
   4 -14  -9    4.99    4.86
   4  14  -9    3.09    3.16
  -4 -14   9    0.65    2.88
   4 -14  -9    1.18    3.00
  -2 -14   9   10.82    3.92
   2  14  -9   16.98    5.85
   2 -14  -9   20.68    6.40
   2 -14  -9   18.67    5.96
   0 -14  -9   10.98    5.37
   0 -14   9   12.71    4.84
   0  14  -9   14.34    6.07
   0 -14  -9    7.15    4.71
  -2  14  -9    3.24    4.53
  -2 -14  -9    3.56    3.85
   2 -14   9    5.82    4.24
  -2 -14  -9    4.05    4.42
  -4 -14  -9   30.85    8.12
  -4  14  -9   33.41    8.37
  -6  14  -9   13.11    6.61
  -6 -14  -9   11.02    6.43
   6 -14   9    3.04    4.64
   8 -14   9   31.78    9.56
  -8 -14  -9   31.11    9.98
  -8  14  -9   45.56   10.51
 -10 -14  -9   35.19   10.27
  10 -14   9   38.08   10.76
 -12 -14  -9    0.80    9.00
  12 -14   9    1.52    7.62
  19  15  -9   11.74    9.24
  19 -15  -9    1.10    7.48
  17 -15  -9    0.66    5.90
  17  15  -9    2.25    6.27
  15 -15  -9    0.36    5.28
  15  15  -9   -0.87    5.64
  13  15  -9   72.70   12.20
  13  15  -9   50.55    9.83
  13 -15  -9   40.05    9.63
  11  15  -9   27.84    7.74
  11  15  -9   22.78    6.91
  11 -15  -9   40.11    8.86
   9 -15  -9   40.14    8.81
   9 -15  -9   35.74    6.65
   9  15  -9   29.37    6.75
   9  15  -9   33.87    7.48
   7  15  -9  122.38   13.85
   7 -15  -9   96.52   12.97
   7  15  -9  118.91   11.31
   7 -15  -9  111.21   10.59
   5 -15  -9    6.49    4.15
   5 -15  -9   11.72    4.39
   5  15  -9    5.22    4.21
   3 -15  -9    1.13    2.98
   3  15  -9    5.67    3.67
   3 -15  -9    6.82    4.72
  -1 -15   9    3.61    3.47
   1 -15  -9    8.86    4.98
   1 -15  -9    9.68    5.16
   1  15  -9    9.46    5.23
  -1 -15  -9    6.29    4.64
  -1  15  -9    4.09    4.63
   1 -15   9    1.49    3.95
  -1 -15  -9   -0.12    4.07
   3 -15   9   29.89    7.23
  -3 -15  -9   18.69    6.97
  -3  15  -9   27.24    7.89
  -3 -15  -9   17.62    6.60
   5 -15   9   19.90    6.95
  -5 -15  -9   22.55    7.21
  -5  15  -9   27.04    8.32
   7 -15   9   80.13   13.03
  -7 -15  -9   93.00   15.04
  -7  15  -9   99.78   14.41
   9 -15   9   81.02   14.33
  -9 -15  -9   64.64   13.90
 -11 -15  -9   -1.84    7.86
  11 -15   9   11.71    8.41
  18 -16  -9   69.42   15.37
  18  16  -9   55.28   14.73
  16 -16  -9   21.23    8.78
  16  16  -9   27.66   10.12
  14 -16  -9   63.29   12.76
  14  16  -9   44.09   10.57
  12  16  -9   14.03    6.63
  12 -16  -9   12.30    6.16
  12  16  -9    7.93    4.98
  10 -16  -9    9.07    6.01
  10  16  -9    6.31    4.55
  10  16  -9   12.72    5.66
   8 -16  -9    7.19    5.06
   8  16  -9    9.91    5.20
   6  16  -9    2.97    3.97
   6 -16  -9   12.81    3.78
   6 -16  -9    5.87    4.59
   4  16  -9  190.23   18.75
   4 -16  -9  200.49   16.73
   4 -16  -9  208.48   15.17
   2  16  -9   89.00   13.17
   2 -16  -9  121.40   14.14
   0  16  -9  273.40   21.35
   0 -16  -9  284.46   20.21
   0 -16  -9  270.94   21.04
  -2 -16  -9  271.69   20.95
  -2  16  -9  274.47   21.03
   2 -16   9  262.95   19.29
  -2 -16  -9  230.13   19.27
  -4 -16  -9   10.81    6.57
   4 -16   9    6.53    4.45
  -4  16  -9   13.49    6.32
  -4 -16  -9   29.07    7.90
  -6  16  -9    6.64    6.35
  -6 -16  -9   21.82    8.42
   6 -16   9   17.93    6.80
   8 -16   9    3.65    5.25
  -8 -16  -9   -2.46    6.25
 -10 -16  -9   -0.14    6.91
 -12 -16  -9   36.04   13.70
  19 -17  -9   -2.66    8.17
  19  17  -9    2.78    9.29
  17 -17  -9    7.31    7.95
  17  17  -9    0.82    7.06
  15  17  -9    1.43    5.88
  15 -17  -9    5.60    6.24
  13  17  -9   12.30    6.39
  13  17  -9   24.37    7.72
  13 -17  -9   18.32    7.94
  11  17  -9   -0.98    3.93
  11 -17  -9    2.89    5.06
   9 -17  -9   40.69    9.40
   9  17  -9   25.81    7.62
   7  17  -9   -0.52    3.77
   7 -17  -9    3.09    4.00
   5 -17  -9    4.18    4.01
   5  17  -9   -0.27    3.87
   3 -17  -9   34.04    7.19
   3  17  -9   22.34    7.09
   3 -17  -9   26.83    6.97
   1 -17  -9    8.25    4.21
   1  17  -9    3.41    4.88
   1 -17  -9    8.54    4.65
  -1  17  -9    0.91    4.51
  -1 -17  -9   -6.54    4.13
  -1 -17  -9    5.75    5.21
  -3 -17  -9   15.42    6.07
  -3  17  -9   11.04    6.54
  -3 -17  -9   19.86    7.20
  -5 -17  -9  -14.06    4.14
  -5  17  -9   -0.96    5.00
  -7 -17  -9   -2.96    6.42
  -7  17  -9    5.73    6.36
  -9 -17  -9   -8.87    6.96
 -11 -17  -9   13.54    9.70
  18  18  -9   28.52   12.25
  18 -18  -9   17.68    9.70
  16 -18  -9   29.68   10.84
  14 -18  -9   13.16    7.58
  12 -18  -9   14.37    6.75
  12  18  -9   31.15    8.60
  10  18  -9    0.44    3.98
  10 -18  -9    8.13    5.61
   8 -18  -9    1.31    3.65
   8  18  -9    0.75    4.56
   6  18  -9   13.86    5.98
   6 -18  -9   25.80    7.29
   4 -18  -9    4.19    4.26
   4  18  -9    3.66    3.97
   2  18  -9   30.94    8.39
   2 -18  -9   23.75    7.01
   0  18  -9   70.72   12.32
   0 -18  -9   44.69    9.98
   0 -18  -9   30.75    7.15
  -2 -18  -9    1.14    4.17
  -2  18  -9   -4.00    4.66
  -2 -18  -9    1.45    4.56
  -4  18  -9    5.97    5.60
  -4 -18  -9   -4.12    5.49
  -4 -18  -9    7.59    4.76
  -6  18  -9   10.90    6.78
  -6 -18  -9   -3.74    6.02
  -8 -18  -9   -1.09    5.89
 -10 -18  -9    6.98    9.36
  17 -19  -9    8.42    8.11
  15 -19  -9   11.25    8.23
  13  19  -9   21.01    8.00
  13 -19  -9   19.52    9.11
  11  19  -9   81.91   13.55
  11 -19  -9   81.02   14.35
   9  19  -9  115.23   15.83
   9 -19  -9  160.95   18.46
   7  19  -9   67.25   11.93
   7 -19  -9   52.52   10.34
   5  19  -9   21.25    7.07
   5 -19  -9   12.95    5.66
   3  19  -9    9.78    5.84
   3 -19  -9    8.09    5.15
   1 -19  -9   12.38    5.71
   1  19  -9   13.24    6.24
  -1 -19  -9   12.10    5.91
  -1  19  -9    0.51    5.13
  -3 -19  -9   -4.38    4.91
  -3 -19  -9    6.80    5.92
  -3  19  -9   13.86    7.24
  -5  19  -9   42.36   10.93
  -5 -19  -9   47.05   11.55
  -5 -19  -9   47.54   10.07
  -7 -19  -9   26.99    9.84
  -7  19  -9   21.87    9.89
  -9 -19  -9   16.23    9.32
  16 -20  -9    6.26    6.92
  14 -20  -9    7.29    6.70
  12 -20  -9   14.65    7.81
  12  20  -9    7.30    6.46
  10  20  -9    6.77    5.03
  10 -20  -9    7.56    5.96
   8 -20  -9   98.37   15.16
   8  20  -9  100.43   15.03
   6  20  -9    3.57    4.68
   6 -20  -9    8.15    5.19
   4  20  -9    4.31    4.49
   4 -20  -9    7.10    5.08
   2 -20  -9  119.15   15.87
   2  20  -9  118.63   16.39
   0  20  -9    6.97    5.52
   0 -20  -9    6.69    5.06
  -2 -20  -9    4.79    5.48
  -2  20  -9   -0.86    5.47
  -4  20  -9   16.12    7.80
  -4 -20  -9    8.55    6.75
  -6  20  -9    4.87    7.49
  -6 -20  -9    9.58    7.12
  -6 -20  -9   -0.52    5.40
  -8 -20  -9   -1.50    6.69
 -10 -20  -9    1.87   10.29
  17 -21  -9   25.77   12.59
  15 -21  -9   16.73    9.50
  13 -21  -9   18.86    9.74
  13  21  -9   20.24    8.72
  11  21  -9    4.88    6.13
  11 -21  -9   22.26    8.92
   9  21  -9   16.91    7.36
   9 -21  -9   24.34    8.18
   7 -21  -9   20.96    7.65
   7  21  -9   22.05    7.86
   5  21  -9   17.91    6.99
   5 -21  -9   22.19    7.74
   3 -21  -9   60.07   11.61
   3  21  -9   80.46   14.21
   1 -21  -9   56.76   11.42
   1  21  -9   53.27   11.92
  -1 -21  -9   12.60    7.46
  -1  21  -9   17.96    8.02
  -3 -21  -9   30.84    9.65
  -3  21  -9   17.95    8.74
  -5 -21  -9   13.54    7.47
  -5  21  -9    7.14    7.14
  -7 -21  -9   -1.08    7.19
  -7  21  -9   -2.73    7.21
  -9 -21  -9  -10.99    7.71
  16 -22  -9   -6.85    8.90
  14  22  -9   11.20    8.55
  14 -22  -9    9.22    8.49
  12 -22  -9   -1.04    5.87
  12  22  -9    0.95    5.79
  10 -22  -9   -1.97    5.53
  10  22  -9   -2.58    5.54
   8  22  -9   -1.72    5.19
   8 -22  -9    4.51    5.46
   6  22  -9   12.07    6.67
   6 -22  -9   27.98    9.09
   4  22  -9   18.03    7.95
   4 -22  -9   23.10    8.15
   2 -22  -9   18.19    7.09
   2  22  -9   28.87    9.09
   0  22  -9    2.23    6.61
   0 -22  -9   -0.79    5.05
  -2 -22  -9    1.54    5.70
  -2  22  -9    0.23    6.55
  -4 -22  -9   25.83   10.37
  -4  22  -9   20.70    8.53
  -6 -22  -9    8.85    7.99
  -6  22  -9    0.08    6.86
  -8 -22  -9    2.46    8.36
  15 -23  -9   -4.47    9.42
  13  23  -9    0.47    6.91
  13 -23  -9   -2.81    6.81
  11 -23  -9   16.23    8.21
  11  23  -9    9.36    7.06
   9  23  -9    3.28    6.93
   9 -23  -9   19.59    8.85
   7 -23  -9    3.03    5.52
   7  23  -9    0.05    5.32
   5  23  -9   -0.13    4.67
   5 -23  -9    3.11    5.28
   3 -23  -9    6.09    6.11
   3  23  -9    7.53    6.99
   1 -23  -9    1.80    6.18
   1  23  -9   10.19    7.94
  -1  23  -9   -2.24    6.09
  -1 -23  -9    1.30    5.45
  -3 -23  -9    9.67    6.74
  -3  23  -9   16.22    8.14
  -5  23  -9   10.71    8.15
  -5 -23  -9   -1.78    7.31
  -7 -23  -9    6.10    7.49
  14 -24  -9   -7.83    7.10
  14  24  -9    8.87    7.28
  12 -24  -9   10.01    7.32
  12  24  -9   14.50    8.47
  10  24  -9   56.23   13.01
  10 -24  -9   67.70   13.97
   8  24  -9   21.78    9.19
   8 -24  -9   30.39    9.29
   6  24  -9   29.67    9.73
   6 -24  -9   11.95    7.44
   4  24  -9   -7.99    4.20
   4 -24  -9   -0.60    5.79
   2 -24  -9   -0.26    5.61
   2  24  -9   -0.66    5.73
   0  24  -9    9.17    7.22
   0 -24  -9    1.95    5.44
  -2  24  -9    1.38    7.26
  -2 -24  -9    8.07    6.11
  -4  24  -9   -1.96    6.95
  -4 -24  -9    1.83    7.53
  -6  24  -9   24.17   10.70
  -6 -24  -9    5.33    9.95
  13 -25  -9   -1.64    7.58
  13  25  -9    6.85    7.64
  11  25  -9    8.76    6.71
  11 -25  -9    0.08    7.50
   9 -25  -9    4.64    7.12
   9  25  -9    3.24    6.84
   7  25  -9   13.62    8.47
   7 -25  -9    9.75    6.35
   5  25  -9    1.96    6.29
   5 -25  -9    8.20    6.27
   3 -25  -9    1.56    4.94
   3  25  -9   25.58   10.42
   1 -25  -9    6.10    5.32
   1  25  -9    2.96    6.49
  -1 -25  -9   19.51    8.99
  -1  25  -9   20.71    9.96
  -3  25  -9    0.62    7.55
  -3 -25  -9    6.20    8.05
  -5 -25  -9  -11.08    7.32
  -5  25  -9    1.49    8.03
  12 -26  -9   11.63    9.37
  12  26  -9    2.42    6.67
  10  26  -9    7.63    6.85
  10 -26  -9   -2.31    7.08
   8 -26  -9   -4.28    6.30
   8  26  -9   11.60    6.77
   6  26  -9    9.48    6.95
   6 -26  -9   12.81    8.28
   4 -26  -9    2.98    7.00
   4  26  -9   -2.13    6.77
   2 -26  -9   -4.03    5.98
   2  26  -9   12.03    8.92
   0 -26  -9   -4.36    7.10
   0  26  -9    0.85    7.35
  -2 -26  -9   10.25    8.13
  -2  26  -9    8.46    8.80
  -4  26  -9   13.92    9.82
  -4 -26  -9   -0.07    8.15
  11  27  -9    7.66    7.43
   9  27  -9   19.49    7.78
   9 -27  -9   -3.29    7.14
   7 -27  -9    4.27    6.97
   7  27  -9    5.38    6.66
   5  27  -9    4.09    6.96
   5 -27  -9    9.54    8.00
   3  27  -9    7.53    8.66
   3 -27  -9   -1.61    6.00
   1 -27  -9   13.00    8.86
   1  27  -9   22.30   10.64
  -1 -27  -9    8.05    8.82
  -1  27  -9    0.35    8.72
  -3  27  -9   -2.20    9.06
  -3 -27  -9  -11.13    7.69
   8  28  -9   -8.17    4.88
   8 -28  -9   16.75    9.35
   6  28  -9    2.82    5.25
   6 -28  -9    1.52    7.86
   4 -28  -9   11.99    8.34
   4  28  -9   -1.06    8.90
   2  28  -9   -2.99    7.75
   2 -28  -9    4.19    7.67
   0  28  -9    2.58    8.90
   0 -28  -9    0.30    8.01
   5  29  -9    3.61    6.21
   5 -29  -9   -4.21    8.18
   3  29  -9   -1.66    9.49
   3 -29  -9    7.53    8.21
 -22   0  10   56.59   12.73
  22   0 -10   20.25    9.39
 -22   0  10   59.63   12.71
 -20   0  10  235.39   20.87
 -20   0  10  259.74   21.33
  20   0 -10  243.95   26.11
 -18   0  10  122.47   15.31
  18   0 -10  126.67   18.32
 -18   0  10  156.32   16.87
 -16   0  10  209.51   17.04
 -16   0  10  220.65   17.03
  16   0 -10  218.11   21.09
  14   0 -10  139.04   15.42
  14   0 -10  140.38   14.71
  12   0 -10   -4.28    1.90
  12   0 -10   -1.87    3.09
  10   0 -10   10.22    4.20
  10   0 -10    7.00    3.86
   8   0 -10   92.70   10.23
   8   0 -10   97.06    7.44
   6   0 -10  186.62    9.93
   6   0 -10  179.48   13.35
   4   0 -10  554.18   29.81
   2   0 -10   58.61    8.75
   2   0 -10   70.47    5.66
   0   0 -10  911.97   42.03
   0   0 -10  915.37   46.59
  -2   0 -10  265.71   16.15
  -2   0 -10  242.65   18.48
  -4   0 -10   61.80    9.03
  -6   0 -10    2.54    4.22
  -8   0 -10   28.69    8.88
 -10   0 -10   37.03   10.37
 -12   0 -10   34.91   11.32
 -14   0 -10   41.00   13.60
 -23  -1  10   -1.58    6.36
  23   1 -10    1.15    4.69
 -23   1  10    0.61    7.81
 -23  -1  10    6.34    7.00
  23  -1 -10   -5.03    5.06
 -23   1  10   16.28    8.31
 -21   1  10    7.65    6.96
 -21  -1  10   22.77    9.39
  21  -1 -10    0.17    6.24
 -21   1  10   15.71    7.43
 -21  -1  10   14.67    7.81
  21   1 -10   22.10    9.20
 -19  -1  10    1.10    5.29
 -19   1  10   -8.21    4.74
  19  -1 -10    1.29    5.11
 -19  -1  10   -3.52    4.36
  19   1 -10    3.56    5.41
 -19   1  10    0.16    4.64
 -17  -1  10   -7.52    3.75
 -17  -1  10   -3.45    4.37
  17   1 -10    6.14    4.09
  17  -1 -10    2.35    3.13
 -15  -1  10    2.04    3.42
  15   1 -10    0.36    3.23
 -15  -1  10    2.41    3.15
  15  -1 -10    1.48    4.25
  15  -1 -10    1.04    3.47
 -13  -1  10  447.64   24.48
  13   1 -10  421.62   27.50
  13  -1 -10  460.36   28.32
 -13  -1  10  449.03   25.60
  13  -1 -10  417.00   26.49
  11  -1 -10  218.15   15.01
  11  -1 -10  225.73   16.26
  11   1 -10  220.60   13.26
  11   1 -10  166.54   14.87
   9  -1 -10    5.77    3.32
   9   1 -10    2.72    2.91
   9   1 -10    3.96    2.83
   9  -1 -10    6.71    3.31
   7  -1 -10   -0.66    1.83
   7   1 -10    1.64    1.99
   7  -1 -10    3.01    2.29
   5   1 -10   50.65    7.76
   5  -1 -10   76.21    8.87
   5  -1 -10   48.64    4.49
   3   1 -10    5.11    3.29
   3  -1 -10   -1.27    2.39
   3  -1 -10    2.15    2.11
   1   1 -10  126.65   12.40
   1  -1 -10  148.25    9.55
   1   1 -10  141.08    8.90
   1  -1 -10  137.70   12.09
  -1   1 -10    5.88    4.00
  -1  -1 -10   15.22    4.66
  -1  -1 -10   19.34    6.10
  -1   1 -10    6.07    3.56
  -3   1 -10   11.74    5.11
  -3  -1 -10   19.52    5.35
  -3   1 -10   18.77    5.06
  -3  -1 -10   17.78    5.66
  -5   1 -10   59.89    9.40
  -5  -1 -10   81.46   10.55
  -7  -1 -10   53.69   10.26
  -7   1 -10   53.29   10.04
  -9   1 -10   -1.22    5.01
  -9  -1 -10    0.24    5.71
 -11   1 -10    2.49    7.02
 -11  -1 -10   -0.58    7.55
 -13   1 -10   11.96   10.31
 -13  -1 -10   12.25    9.22
 -22   2  10    2.38    7.08
 -22  -2  10   -4.23    6.44
  22   2 -10   -8.89    4.97
 -22   2  10   -2.44    7.04
  22  -2 -10   -0.86    6.12
 -20   2  10    5.34    6.96
 -20  -2  10   -8.06    5.31
 -20  -2  10    5.65    6.09
  20  -2 -10   -0.74    5.45
  20   2 -10    9.30    6.16
 -20   2  10    2.99    5.57
 -18  -2  10   17.63    6.76
  18  -2 -10   12.94    6.23
  18  -2 -10   13.29    7.25
 -18  -2  10   11.52    5.74
  18   2 -10    8.61    5.49
  16  -2 -10    6.90    4.57
  16   2 -10   -0.11    3.42
 -16  -2  10    1.91    3.90
 -16  -2  10   -0.24    4.16
  16  -2 -10   -2.91    4.19
  14  -2 -10    3.73    4.12
 -14  -2  10   -2.14    3.18
  14   2 -10    0.53    3.52
  14  -2 -10    0.78    3.05
 -14  -2  10   -0.95    3.32
 -12  -2  10  103.56    9.25
  12   2 -10   70.87   10.61
  12  -2 -10   58.54    9.75
  12  -2 -10   76.51    9.84
 -12  -2  10   72.08    8.71
  10  -2 -10   27.38    5.54
 -10  -2  10   31.93    5.25
  10   2 -10   29.31    6.60
 -10  -2  10   34.12    5.06
  10  -2 -10   26.98    6.19
  -8  -2  10    5.78    2.27
   8   2 -10    7.41    3.11
  -8  -2  10    4.47    1.93
   8  -2 -10   -1.52    1.96
   8  -2 -10   -1.22    1.94
   6  -2 -10   11.03    3.81
   6  -2 -10    7.06    2.80
   6   2 -10    7.37    3.36
   4  -2 -10   79.84    6.31
   4  -2 -10   96.05   10.28
   4   2 -10  113.42   10.47
   2  -2 -10  216.53   12.93
   2   2 -10  234.75   11.42
   2  -2 -10  229.96   16.40
   2   2 -10  215.95   15.67
   0  -2 -10  304.41   20.65
   0  -2 -10  295.32   17.26
   0   2 -10  311.71   16.66
   0   2 -10  340.18   20.83
  -2  -2 -10    2.23    3.41
  -2  -2 -10    4.74    4.09
  -2   2 -10    6.63    3.97
  -2   2 -10    4.32    4.01
  -4  -2 -10   29.13    6.80
  -4   2 -10   38.07    7.51
  -6   2 -10   48.97    8.94
  -6  -2 -10   68.52   10.61
  -6   2 -10   49.40    9.30
  -8   2 -10   54.37   11.01
  -8  -2 -10   49.19   10.43
 -10  -2 -10   13.19    8.40
 -10   2 -10   22.97    8.69
 -12  -2 -10    7.20    8.20
 -12   2 -10    5.43    9.12
 -14   2 -10  -10.58    9.16
 -14  -2 -10    8.14    9.96
 -23   3  10   11.52    9.51
  23   3 -10    6.29    5.68
 -23   3  10   16.46    9.60
  23  -3 -10    3.16    6.46
 -21   3  10    3.86    7.08
  21   3 -10    2.67    6.09
  21  -3 -10    1.45    6.25
 -21  -3  10    3.00    7.28
 -21   3  10   -7.36    6.67
  19  -3 -10   -1.81    5.08
  19   3 -10    5.44    5.37
  19  -3 -10    0.11    6.12
 -19  -3  10  -13.49    4.15
 -17  -3  10    1.09    4.36
  17  -3 -10   -0.85    4.60
  17  -3 -10   -1.38    3.66
 -17  -3  10   -0.55    5.04
  17   3 -10    2.71    4.79
  15  -3 -10  184.07   18.97
  15   3 -10  216.91   18.77
  15  -3 -10  218.22   18.14
 -13  -3  10  233.66   14.77
 -13  -3  10  197.83   14.83
  13  -3 -10  193.22   15.89
  13   3 -10  194.08   16.41
  13  -3 -10  178.53   16.01
  11  -3 -10  216.97   16.58
  11   3 -10  220.55   13.84
 -11  -3  10  227.18   14.62
 -11  -3  10  203.85   13.41
  11  -3 -10  214.20   15.60
  11   3 -10  258.04   17.82
  -9  -3  10  177.78   11.08
   9   3 -10  183.04   14.08
   9  -3 -10  188.78   14.38
   9  -3 -10  191.96   12.83
   7   3 -10  116.95   11.26
   7  -3 -10  125.25    9.31
   7  -3 -10  150.72   11.66
   5  -3 -10    9.60    3.78
   5  -3 -10    8.58    2.89
   5   3 -10    4.93    3.11
   3  -3 -10    8.39    3.29
   3   3 -10    0.67    2.44
   3  -3 -10    7.72    3.74
   1   3 -10    3.59    2.83
   1  -3 -10   -3.59    2.60
   1  -3 -10    1.51    2.99
   1   3 -10   -0.68    2.25
  -1   3 -10   42.27    5.57
  -1  -3 -10   34.00    7.57
  -1   3 -10   49.04    6.14
  -1  -3 -10   41.81    6.51
  -1   3 -10   41.52    7.71
  -3   3 -10   72.89    9.13
  -3   3 -10   88.37    9.03
  -3  -3 -10  107.16   12.86
  -3   3 -10   88.09   11.55
  -3  -3 -10   96.24   10.43
  -5   3 -10   98.11   10.87
  -5  -3 -10   66.11   10.32
  -5   3 -10  112.98   12.31
  -7   3 -10   31.07    8.44
  -7   3 -10   35.56    8.11
  -7  -3 -10   21.03    7.50
  -9   3 -10   19.24    8.19
  -9   3 -10   15.73    6.87
  -9  -3 -10   20.49    8.16
 -11   3 -10   -4.73    6.97
 -11  -3 -10    6.84    7.89
 -13  -3 -10   25.74   11.68
 -13   3 -10    5.18    9.42
  22  -4 -10   16.30    8.28
 -22   4  10   27.12   11.14
 -22   4  10   33.52   11.93
  22   4 -10   -3.48    4.34
 -20  -4  10   42.06    9.69
  20  -4 -10   49.26   13.44
  20   4 -10   52.70   13.03
  20  -4 -10   43.10   11.69
  18  -4 -10   18.19    7.89
 -18  -4  10   24.42    7.73
  18  -4 -10   19.68    8.10
  18   4 -10   33.79   10.14
  16  -4 -10   12.25    5.97
 -16  -4  10    4.90    4.58
  16   4 -10   17.06    6.81
  16  -4 -10   20.95    7.28
 -14  -4  10   18.74    5.95
  14   4 -10   18.92    6.35
  14  -4 -10    9.65    5.16
  14  -4 -10    9.91    4.96
 -12  -4  10   37.20    6.61
  12   4 -10   33.51    5.20
  12  -4 -10   25.32    6.53
  12   4 -10   52.33    9.21
  12  -4 -10   23.98    5.85
  10   4 -10   62.41    8.91
  10  -4 -10   56.95    8.67
  10  -4 -10   41.79    7.07
  10   4 -10   45.00    6.51
 -10  -4  10   56.11    6.54
  -8  -4  10   89.55    5.87
   8  -4 -10   87.17    9.77
   8  -4 -10   83.74    8.37
   8   4 -10   87.33   10.05
   6  -4 -10   83.13    9.69
   6  -4 -10   88.52    7.44
   6   4 -10   91.28    9.60
   4   4 -10  340.03   21.57
   4  -4 -10  414.48   23.36
   4  -4 -10  398.83   20.03
   2  -4 -10  683.29   32.50
   2  -4 -10  692.33   36.08
   2   4 -10  641.27   34.58
   0   4 -10  446.84   23.41
   0  -4 -10  530.03   26.52
   0   4 -10  493.46   24.71
   0   4 -10  502.79   28.18
   0  -4 -10  581.42   30.69
  -2  -4 -10    0.97    3.45
  -2  -4 -10    8.37    3.90
  -2   4 -10   -4.36    3.10
  -2   4 -10    2.18    3.35
  -2   4 -10    8.84    4.27
  -4   4 -10   -2.43    3.34
  -4  -4 -10   -0.28    3.78
  -4   4 -10    0.97    2.93
  -4   4 -10   -0.69    3.83
  -6   4 -10   17.92    6.08
  -6  -4 -10   15.15    6.23
  -6   4 -10   16.89    6.57
  -8   4 -10    8.56    6.27
  -8  -4 -10    4.58    6.34
  -8   4 -10   17.66    7.53
 -10  -4 -10    5.83    7.17
 -10   4 -10    5.73    6.78
 -10   4 -10   -0.04    5.76
 -12  -4 -10   17.63    9.68
 -12   4 -10    8.51    7.72
 -12   4 -10   17.93    9.09
 -14  -4 -10   33.39   13.00
 -14   4 -10   48.93   15.27
  21  -5 -10   88.64   16.99
  21   5 -10   88.91   17.82
  21  -5 -10   99.01   17.89
  19  -5 -10   52.18   11.69
 -19  -5  10   48.19   10.45
  19   5 -10   84.52   15.68
  19  -5 -10   67.77   13.64
 -17  -5  10   -2.92    4.77
  17   5 -10    8.39    6.11
  17  -5 -10    6.70    5.07
  17  -5 -10    9.87    6.14
  15   5 -10    9.72    4.95
  15  -5 -10    4.51    4.65
 -15  -5  10    1.90    3.90
  15  -5 -10    2.55    4.08
  13  -5 -10   54.73    9.92
  13  -5 -10   70.73   10.57
 -13  -5  10   53.35    8.44
  13   5 -10   39.70    8.46
  11  -5 -10   11.39    4.25
 -11  -5  10   -1.11    3.31
  11   5 -10    6.00    3.56
  11  -5 -10    6.74    4.15
  11   5 -10    6.78    3.06
   9  -5 -10   10.25    3.85
  -9  -5  10   15.42    3.25
   9   5 -10   15.17    4.52
   9  -5 -10   14.50    4.52
   9   5 -10    3.16    1.89
   7  -5 -10  239.22   15.40
   7   5 -10  267.70   17.01
   7  -5 -10  266.61   17.27
   5  -5 -10  483.62   27.73
   5   5 -10  496.96   26.92
   5  -5 -10  515.42   25.48
   3   5 -10  489.60   26.95
   3  -5 -10  495.85   28.34
   3  -5 -10  504.75   25.76
   1  -5 -10  931.76   47.76
   1   5 -10  910.21   46.00
   1   5 -10  937.75   40.27
   1   5 -10  967.50   42.11
   1  -5 -10  929.91   44.40
  -1   5 -10   26.31    6.23
  -1  -5 -10   20.07    5.33
  -1  -5 -10   17.27    5.67
  -1   5 -10   21.90    4.87
  -1   5 -10   25.96    4.75
  -3   5 -10   27.80    6.57
  -3   5 -10   26.50    5.81
  -3  -5 -10   18.52    5.64
  -3   5 -10   29.16    6.05
  -5   5 -10    9.51    5.07
  -5   5 -10   12.03    4.90
  -5  -5 -10    5.60    5.33
  -7   5 -10    5.35    5.37
  -7   5 -10    8.53    5.18
  -7  -5 -10    4.53    5.49
  -9   5 -10   -2.73    5.01
  -9  -5 -10   -0.04    6.05
  -9   5 -10   -1.69    4.90
 -11   5 -10   16.75    8.68
 -11   5 -10    5.68    7.90
 -11  -5 -10    8.01    8.27
 -13  -5 -10   16.49   11.04
 -13   5 -10   16.82   10.20
 -13   5 -10    7.65    9.73
  22   6 -10    3.90    9.22
  22  -6 -10   27.51   11.47
  22  -6 -10   13.76    8.82
  20   6 -10   11.38    8.10
  20  -6 -10    1.54    6.72
  20  -6 -10    9.33    7.74
  18  -6 -10   21.76    8.59
  18  -6 -10   25.63    8.31
 -18  -6  10   27.04    8.31
  18   6 -10   20.07    8.47
  16   6 -10   58.16   11.51
  16  -6 -10   63.33   11.80
  16  -6 -10   62.69   11.56
  14  -6 -10   -6.53    3.75
 -14  -6  10   -2.53    3.95
  14  -6 -10    4.26    3.78
  14   6 -10    7.38    4.04
  12  -6 -10   40.67    7.89
  12   6 -10   21.70    6.19
  12   6 -10   40.48    6.38
 -12  -6  10   23.18    5.50
  12  -6 -10   38.47    7.68
 -10  -6  10   43.31    5.44
  10   6 -10   20.66    4.51
  10  -6 -10   32.70    6.23
  10  -6 -10   23.41    5.65
  10   6 -10   17.39    5.13
   8   6 -10  144.11   11.56
   8  -6 -10  149.47   11.79
   8  -6 -10  128.58   10.74
   8   6 -10  123.93   11.10
   6  -6 -10   25.43    5.24
   6   6 -10   19.60    4.77
   6  -6 -10   21.79    5.21
   4  -6 -10   13.66    4.50
   4  -6 -10   12.12    4.24
   4   6 -10   19.30    4.49
   2   6 -10   28.98    5.66
   2  -6 -10   24.52    5.66
   2  -6 -10   27.78    6.18
   0  -6  10   98.08    7.89
   0  -6 -10   83.48    9.45
   0   6 -10   94.10   10.20
   0  -6 -10  102.02   12.33
  -2  -6 -10  222.32   15.78
   2  -6  10  194.28   14.51
  -2   6 -10  224.06   16.35
  -2  -6 -10  236.04   17.89
  -4   6 -10   60.86    9.71
  -4  -6 -10   60.14    9.34
  -6   6 -10  146.03   15.68
  -6   6 -10  191.08   15.35
  -6  -6 -10  213.91   17.20
  -8   6 -10   91.56   13.79
  -8  -6 -10  110.32   15.27
  -8   6 -10  101.38   13.59
 -10  -6 -10   34.25   10.80
 -10   6 -10   27.46    9.13
 -10   6 -10   35.64    9.28
 -12  -6 -10   47.25   12.80
 -12   6 -10   17.84    9.55
 -12   6 -10   33.16   10.66
 -14   6 -10   17.67   11.76
 -14   6 -10   11.75   10.26
 -14  -6 -10    7.87   10.42
  21  -7 -10    2.97    6.75
  21   7 -10    2.12    7.90
  21  -7 -10   -2.14    5.90
  19   7 -10   -1.29    5.55
  19  -7 -10    5.35    6.19
  19  -7 -10    2.67    6.32
  17  -7 -10   17.95    6.88
  17  -7 -10    2.00    6.40
 -17  -7  10   15.64    5.90
  17   7 -10   21.50    8.32
  15  -7 -10    1.21    4.22
  15  -7 -10    0.06    4.11
  15   7 -10   -1.39    3.34
 -15  -7  10   -7.59    3.29
  13   7 -10    3.56    3.86
 -13  -7  10    7.38    4.02
  13  -7 -10   -1.26    2.88
  13  -7 -10    0.10    3.51
  11  -7 -10   24.34    5.91
  11   7 -10   14.68    5.28
 -11  -7  10   21.70    4.70
  11   7 -10   19.18    4.54
  11  -7 -10   13.91    5.30
   9  -7 -10   21.02    5.67
   9  -7 -10   14.03    4.25
   9   7 -10   13.05    4.30
   9   7 -10    7.74    3.59
   7   7 -10   15.21    4.38
   7  -7 -10   15.80    4.66
   7   7 -10   19.14    4.93
   7  -7 -10   14.70    4.21
   5   7 -10   44.25    6.62
   5  -7 -10   27.25    5.56
   5  -7 -10   21.18    5.48
   5   7 -10   30.47    6.26
   3  -7 -10    5.04    3.61
   3   7 -10    3.74    2.81
   3  -7 -10    8.20    4.13
   1   7 -10    2.42    2.89
  -1  -7  10    2.77    2.80
   1  -7 -10    3.62    3.27
   1  -7 -10    6.37    4.07
  -1  -7 -10   36.50    8.42
  -1   7 -10   34.61    6.55
  -1  -7 -10   38.95    7.55
   1  -7  10   42.16    6.58
  -3   7 -10    9.09    4.31
   3  -7  10   13.58    5.00
  -3  -7 -10   12.57    5.77
  -3  -7 -10    8.34    4.73
  -5   7 -10   13.04    4.78
  -5  -7 -10    7.41    5.18
   5  -7  10    9.56    5.10
  -7  -7 -10   13.83    7.11
  -9   7 -10   -0.02    5.62
  -9  -7 -10   -6.66    6.23
  -9   7 -10    1.00    5.53
 -11  -7 -10   -7.93    6.61
 -11   7 -10   13.30    8.40
 -11   7 -10   -3.51    6.47
 -13   7 -10   25.78   11.29
 -13   7 -10   25.19   10.86
 -13  -7 -10   12.51   12.09
  22  -8 -10    8.27    8.54
  22  -8 -10   -5.45    7.46
  22   8 -10   17.61   10.27
  20  -8 -10    3.07    6.72
  20   8 -10   -0.52    6.30
  20  -8 -10   -1.37    6.31
  18   8 -10    0.93    5.60
  18  -8 -10   -8.53    5.15
  18  -8 -10    5.39    5.75
  16  -8 -10    3.92    5.09
  16  -8 -10    6.03    5.31
  16   8 -10    3.72    4.58
  14  -8 -10   41.83    9.08
  14  -8 -10   22.83    6.94
  14   8 -10   41.24    9.07
  12  -8 -10  275.07   19.41
  12  -8 -10  246.21   18.89
  12   8 -10  276.94   17.25
  12   8 -10  253.03   19.28
  10   8 -10  181.86   13.19
  10  -8 -10  173.96   13.89
  10   8 -10  167.41   14.02
  10  -8 -10  161.37   13.97
   8   8 -10   51.39    8.05
   8   8 -10   61.17    8.44
   8  -8 -10   59.90    8.36
   8  -8 -10   50.59    7.82
   6  -8 -10    3.58    3.13
   6   8 -10   -2.63    2.46
   6  -8 -10    2.74    3.13
   6   8 -10    0.57    2.01
   4  -8 -10   55.85    7.63
   4   8 -10   44.04    6.67
   4  -8 -10   61.15    8.89
   4   8 -10   50.97    8.48
   2  -8 -10    5.44    3.46
   2  -8 -10    1.48    3.85
   2   8 -10    2.59    2.43
   0   8 -10    5.51    3.21
   0  -8  10    1.34    3.11
   0  -8 -10    1.50    3.96
   0  -8 -10    1.11    3.81
  -2  -8 -10   11.37    4.81
  -2  -8 -10   20.76    5.95
  -2   8 -10   23.81    6.02
   2  -8  10   15.24    4.77
  -4  -8 -10   28.55    7.38
  -4   8 -10   38.49    7.85
   4  -8  10   24.70    6.91
  -6  -8 -10  113.29   13.75
  -6   8 -10   87.92   12.12
  -8  -8 -10   17.91    7.61
 -10   8 -10   -0.26    5.59
 -10  -8 -10   10.45    7.67
 -10   8 -10   -4.46    6.22
 -12  -8 -10   14.73   10.08
 -12   8 -10    8.74    8.66
 -12   8 -10    2.52    8.63
  21  -9 -10   75.76   15.79
  21  -9 -10   49.06   12.99
  21   9 -10   45.39   13.63
  19  -9 -10  169.59   21.42
  19  -9 -10  185.37   22.07
  19   9 -10  168.12   22.04
  17  -9 -10   26.55    8.11
  17   9 -10   78.75   14.25
  17  -9 -10   73.92   13.41
  15  -9 -10   87.59   13.66
  15   9 -10   78.19   12.88
  15  -9 -10   92.81   13.42
  13  -9 -10   20.31    6.51
  13  -9 -10   10.42    4.62
  13   9 -10   13.21    5.45
  11   9 -10   -3.49    2.27
  11  -9 -10   -1.24    3.57
  11  -9 -10    9.18    3.43
  11   9 -10    0.50    2.88
   9   9 -10    3.95    3.02
   9  -9 -10    7.66    4.56
   9   9 -10    5.45    3.59
   9  -9 -10   11.75    3.99
   7   9 -10  298.05   18.26
   7   9 -10  281.72   18.92
   7  -9 -10  255.56   17.72
   7  -9 -10  284.83   18.49
   5  -9 -10  593.89   32.06
   5  -9 -10  602.88   31.31
   5   9 -10  607.24   30.55
   5   9 -10  533.44   32.04
   3  -9 -10  411.43   22.45
   3   9 -10  369.34   21.16
   3   9 -10  361.65   23.81
   3  -9 -10  340.02   22.76
   1  -9 -10  316.24   21.07
   1   9 -10  289.79   18.17
   1  -9 -10  301.61   19.48
  -1  -9 -10  109.67   11.95
   1  -9  10  130.40   10.79
  -1   9 -10  122.61   10.73
  -1  -9 -10  113.36   13.93
   3  -9  10    7.54    4.65
  -3  -9 -10   10.93    5.99
  -3  -9 -10   13.26    5.48
  -3   9 -10   16.49    5.48
  -5  -9 -10    0.22    4.82
   5  -9  10    6.44    4.78
  -5   9 -10    0.53    3.57
   7  -9  10    3.10    4.87
  -7  -9 -10    3.06    5.16
  -7   9 -10   -7.34    2.90
  -9  -9 -10    4.37    7.15
 -11   9 -10   51.56   12.93
 -11   9 -10   22.65   10.64
 -11  -9 -10   39.28   11.65
 -13   9 -10   34.40   12.23
 -13  -9 -10   49.39   14.56
 -13   9 -10   32.75   11.34
  20 -10 -10   11.23    7.53
  20  10 -10    1.74    6.98
  20 -10 -10   -6.75    6.36
  18 -10 -10   10.95    7.65
  18 -10 -10   -0.37    4.62
  18  10 -10    6.00    6.57
  16 -10 -10   10.98    5.82
  16 -10 -10    6.64    5.58
  16  10 -10   11.23    5.81
  14  10 -10   -1.71    3.75
  14 -10 -10   -1.08    3.97
  14 -10 -10    1.13    3.12
  12 -10 -10   35.51    8.36
  12  10 -10   41.98    8.74
  12 -10 -10   38.52    7.55
  12  10 -10   19.77    4.99
  10  10 -10    5.81    3.04
  10 -10 -10    1.37    4.62
  10 -10 -10   19.75    4.94
  10  10 -10    3.95    3.19
   8  10 -10   20.11    5.30
   8 -10 -10   24.76    5.48
   8 -10 -10   20.45    6.12
   8  10 -10   16.58    4.85
   6 -10 -10   42.93    7.58
   6  10 -10   39.73    6.60
   6 -10 -10   36.22    7.30
   6  10 -10   34.92    6.79
   4  10 -10   10.44    3.33
   4 -10 -10    8.59    4.40
   4  10 -10    5.29    3.37
   4 -10 -10    5.54    3.84
   2 -10 -10  118.02   12.88
   2  10 -10  142.22   14.43
   2  10 -10  125.06   10.13
   2 -10 -10  110.41   11.83
   0  10 -10   10.05    4.88
   0  10 -10    4.09    3.09
   0 -10 -10    2.24    4.46
   0 -10 -10    1.53    3.58
  -2  10 -10   10.52    5.39
   2 -10  10   20.90    5.88
  -2 -10 -10    9.04    4.82
  -2 -10 -10   16.23    6.67
  -2  10 -10   18.86    5.11
   4 -10  10   -0.15    4.59
  -4  10 -10   -1.41    3.20
  -4 -10 -10    1.68    4.22
  -6 -10 -10    3.38    5.65
   6 -10  10   -3.25    3.57
  -6  10 -10    1.05    5.12
  -6  10 -10    9.83    5.08
   8 -10  10   33.68    8.98
  -8 -10 -10   20.12    7.97
  -8  10 -10   15.10    7.71
  10 -10  10    1.18    6.31
 -10 -10 -10    1.32    7.00
 -12 -10 -10   -2.71    8.24
 -12  10 -10   12.35    9.94
 -12  10 -10   14.84    9.23
  21 -11 -10   23.12   11.18
  21  11 -10    4.91    8.74
  19 -11 -10   10.90    8.23
  19  11 -10    2.09    7.24
  19 -11 -10    8.49    7.13
  17 -11 -10    5.29    5.97
  17  11 -10   17.45    7.77
  17 -11 -10   12.64    6.54
  15 -11 -10   -5.09    3.88
  15  11 -10    1.52    4.47
  15 -11 -10    2.29    4.65
  13  11 -10   11.90    5.39
  13 -11 -10   10.98    5.03
  13 -11 -10    8.39    4.94
  13  11 -10    4.88    3.50
  11  11 -10    2.77    3.06
  11  11 -10   -2.66    2.71
  11 -11 -10    1.75    4.37
  11 -11 -10    7.61    3.38
   9  11 -10   35.91    7.06
   9  11 -10   39.04    7.39
   9 -11 -10   46.97    7.71
   9 -11 -10   36.89    7.83
   7 -11 -10    9.47    5.27
   7  11 -10   12.94    4.32
   7 -11 -10   12.60    3.97
   7  11 -10    9.94    3.87
   5  11 -10   72.81   10.23
   5 -11 -10   63.09    9.11
   5 -11 -10   62.82    9.13
   5  11 -10   56.17    7.59
   3 -11 -10  111.63   12.28
   3  11 -10  125.26   13.74
   3 -11 -10  136.38   13.38
   3  11 -10  130.23   10.07
   1 -11 -10  149.39   14.73
   1  11 -10  137.41   10.87
   1 -11 -10  157.68   13.56
   1  11 -10  116.94   14.26
  -1  11 -10   -1.00    2.92
  -1  11 -10    5.60    4.13
  -1 -11 -10   -6.26    2.89
  -1 -11 -10    0.92    4.68
   3 -11  10   67.43    9.91
  -3  11 -10   70.78    9.34
  -3 -11 -10   55.88   10.33
  -3  11 -10   52.94   10.28
  -3 -11 -10   81.91   11.84
   5 -11  10    2.51    4.23
  -5 -11 -10    2.97    4.65
  -5  11 -10    4.76    4.92
   7 -11  10   -9.01    3.97
  -7 -11 -10   -3.05    5.59
  -7  11 -10    2.16    5.20
  -9 -11 -10   -6.08    6.47
   9 -11  10   -1.88    4.86
 -11 -11 -10    0.40    7.92
  11 -11  10   17.29    8.68
 -13 -11 -10   16.71   11.40
  20 -12 -10    6.42    7.91
  20  12 -10    2.46    7.71
  18  12 -10   -1.13    5.81
  18 -12 -10   15.45    7.38
  18 -12 -10    3.09    5.66
  16 -12 -10   25.66    8.45
  16 -12 -10   29.44    8.08
  16  12 -10   18.60    7.71
  14 -12 -10  186.32   18.97
  14  12 -10  149.97   17.36
  14 -12 -10  158.58   16.27
  12 -12 -10   15.57    4.49
  12  12 -10    2.38    3.90
  12  12 -10   20.98    5.43
  12 -12 -10   12.76    5.83
  10  12 -10  147.67   14.06
  10 -12 -10  162.09   13.06
  10  12 -10  134.95   13.62
  10 -12 -10  144.37   15.40
   8 -12 -10  105.48   10.62
   8  12 -10   96.30   10.64
   8 -12 -10   87.87   11.63
   8  12 -10   71.87   10.46
   6 -12 -10   44.09    7.62
   6  12 -10   45.92    8.09
   6 -12 -10   45.91    8.49
   6  12 -10   40.09    6.80
   4  12 -10   -1.08    2.81
   4  12 -10    2.36    2.62
   4 -12 -10    4.75    3.95
   4 -12 -10    4.80    4.47
   2  12 -10   14.67    5.58
   2 -12 -10   25.13    7.21
   2 -12 -10   21.92    6.46
   2  12 -10   11.53    3.86
   0 -12 -10   46.44    9.19
   0  12 -10   36.02    8.47
   0 -12 -10   57.55    9.87
   0  12 -10   56.55    7.31
  -2 -12 -10   29.37    7.27
  -2  12 -10   16.71    6.46
  -2 -12 -10   29.44    7.34
  -4 -12 -10  157.98   16.63
  -4  12 -10  174.05   17.95
  -6  12 -10   71.34   12.62
  -6 -12 -10   58.78   11.59
  -8 -12 -10  101.79   15.96
  -8  12 -10   87.44   15.08
 -10 -12 -10   10.68    8.44
 -12 -12 -10   -8.35    7.23
  21 -13 -10   -8.71    8.96
  21  13 -10   16.34   10.37
  19 -13 -10   -5.28    6.44
  19  13 -10    1.11    7.44
  17  13 -10    4.74    6.55
  17 -13 -10   -4.38    6.19
  15 -13 -10   12.08    6.58
  15 -13 -10    7.85    5.67
  15  13 -10   17.51    7.24
  13  13 -10    2.42    3.62
  13  13 -10   35.14    8.65
  13 -13 -10   37.10    8.06
  13 -13 -10   12.52    5.79
  11  13 -10    3.11    3.47
  11 -13 -10    3.94    3.50
  11 -13 -10   10.54    4.26
  11  13 -10    9.59    4.62
   9  13 -10    5.38    3.56
   9 -13 -10    5.48    3.43
   9  13 -10    7.01    4.04
   9 -13 -10    6.48    5.27
   7  13 -10    5.51    3.75
   7 -13 -10    9.05    4.09
   7 -13 -10   12.79    5.74
   7  13 -10    6.56    3.62
   5 -13 -10  111.28   11.47
   5  13 -10   76.97   11.43
   5 -13 -10   96.81   11.83
   5  13 -10   95.20    9.44
   3  13 -10   69.75    7.57
   3  13 -10   46.38    9.01
   3 -13 -10   88.30   11.66
   3 -13 -10   61.13    9.52
   1 -13 -10  153.44   14.88
   1 -13 -10  126.91   13.99
   1  13 -10  134.54   15.60
  -1 -13 -10   11.73    5.13
  -1  13 -10   11.25    5.50
  -1 -13 -10   18.23    5.63
  -3 -13 -10   66.46   11.33
  -3 -13 -10   62.84   10.89
  -3  13 -10   65.58   11.61
  -5  13 -10   52.45   10.72
  -5 -13 -10   51.95   10.75
  -7 -13 -10    6.61    6.19
  -7  13 -10   -1.21    5.40
  -9 -13 -10   43.36   11.44
 -11 -13 -10   16.39   10.15
  20 -14 -10   24.53   10.73
  20  14 -10   78.83   16.94
  18 -14 -10   53.82   12.22
  18  14 -10   32.53   10.99
  16  14 -10   17.14    8.13
  16 -14 -10   23.74    8.57
  14 -14 -10    0.75    5.05
  14  14 -10    3.20    4.59
  12 -14 -10    2.06    2.87
  12  14 -10   14.32    5.65
  12 -14 -10    6.43    5.43
  12  14 -10    5.55    4.35
  10  14 -10   20.05    5.82
  10 -14 -10   13.84    5.74
  10  14 -10   18.39    6.18
   8 -14 -10    6.02    4.06
   8  14 -10    7.35    4.20
   8 -14 -10   -0.01    2.13
   8  14 -10    4.61    4.36
   6  14 -10   71.71   11.23
   6  14 -10   82.00    9.23
   6 -14 -10   51.86   10.25
   4  14 -10  245.88   18.59
   4 -14 -10  202.10   16.91
   4 -14 -10  198.45   15.61
   2  14 -10  180.27   17.33
   2 -14 -10  153.63   14.94
   2 -14 -10  125.59   14.35
   0 -14 -10   84.41   12.31
   0  14 -10   94.33   13.26
   0 -14 -10   76.04   11.70
  -2 -14 -10    3.70    4.92
  -2 -14 -10    3.47    4.60
  -2  14 -10   15.88    5.87
  -4 -14 -10    7.71    5.77
  -4  14 -10   10.02    6.46
  -4 -14 -10    6.92    5.42
  -6  14 -10   10.27    7.01
  -6 -14 -10    7.28    6.21
  -8 -14 -10    3.54    6.96
  -8  14 -10    8.87    7.77
 -10 -14 -10    1.30    7.11
 -12 -14 -10    6.84   10.20
  19  15 -10    7.80    8.48
  19 -15 -10    0.54    7.46
  17  15 -10   26.53    9.35
  17 -15 -10   27.69   10.00
  15 -15 -10   -5.98    5.14
  15  15 -10   -1.39    4.76
  13 -15 -10   20.59    6.95
  13  15 -10    4.86    5.53
  13  15 -10    7.00    5.04
  11  15 -10    6.92    4.60
  11  15 -10    6.58    4.61
  11 -15 -10    1.13    5.10
   9  15 -10    0.34    3.52
   9 -15 -10    2.74    3.53
   9  15 -10   -2.09    3.06
   9 -15 -10    0.86    3.20
   7 -15 -10   69.14   11.17
   7 -15 -10   86.69   10.09
   7  15 -10  102.43   13.51
   5 -15 -10    6.46    3.78
   5 -15 -10   -1.02    2.64
   5  15 -10   10.26    4.57
   3 -15 -10   38.32    7.73
   3  15 -10   37.24    8.38
   3 -15 -10   29.66    7.54
   1  15 -10    7.16    5.24
   1 -15 -10    0.83    4.01
   1 -15 -10   -0.35    4.23
  -1 -15 -10   33.12    8.32
  -1 -15 -10   15.00    5.77
  -1  15 -10   15.82    6.39
  -3  15 -10   17.31    6.77
  -3 -15 -10   29.66    7.75
  -3 -15 -10   13.20    6.61
  -5 -15 -10    3.86    5.61
  -5  15 -10    7.50    6.41
  -7  15 -10    9.16    6.73
  -7 -15 -10  -10.52    6.11
  -9 -15 -10   -1.56    6.69
 -11 -15 -10   13.26   10.82
  18 -16 -10    6.74    9.17
  18  16 -10    8.24    8.27
  16 -16 -10    0.74    6.26
  16  16 -10    7.87    8.01
  14  16 -10    3.13    5.70
  14 -16 -10    0.77    5.73
  12  16 -10   -1.08    4.29
  12 -16 -10    1.90    4.40
  12  16 -10    0.01    4.44
  10 -16 -10   -4.48    3.64
  10  16 -10   -1.94    3.76
   8  16 -10   10.38    5.24
   8 -16 -10    7.74    5.23
   6 -16 -10   -1.22    3.45
   6  16 -10    3.01    4.28
   6 -16 -10    5.11    4.23
   4  16 -10  110.48   14.53
   4 -16 -10  109.39   13.29
   4 -16 -10   74.48   10.23
   2 -16 -10   72.10   11.34
   2  16 -10   67.45   11.80
   2 -16 -10   76.43   11.01
   0  16 -10    6.67    5.60
   0 -16 -10   10.97    5.77
   0 -16 -10   10.94    6.10
  -2  16 -10    8.71    6.36
  -2 -16 -10   12.40    5.28
  -2 -16 -10   18.88    6.83
  -4  16 -10    9.72    6.33
  -4 -16 -10    7.72    5.06
  -4 -16 -10    7.72    5.54
  -6  16 -10    5.99    6.20
  -6 -16 -10   -6.11    4.80
  -8 -16 -10    1.92    7.10
 -10 -16 -10    7.15    8.95
  19 -17 -10   -3.73    8.00
  19  17 -10   -6.07    8.11
  17 -17 -10    6.00    6.34
  17  17 -10   -1.06    7.21
  15 -17 -10   49.66   12.05
  15  17 -10   68.19   13.80
  13  17 -10  156.33   17.30
  13 -17 -10  136.75   19.00
  11 -17 -10  109.10   15.99
  11  17 -10  119.45   15.26
   9  17 -10   83.27   13.09
   9 -17 -10   98.80   14.13
   7 -17 -10   48.56    9.87
   7  17 -10   47.44    9.98
   5 -17 -10   35.41    8.25
   5  17 -10   34.54    8.64
   3  17 -10    7.96    5.33
   3 -17 -10    5.39    4.10
   3 -17 -10    3.67    4.39
   1 -17 -10   20.52    6.77
   1 -17 -10   30.31    7.08
   1  17 -10   25.92    7.88
  -1  17 -10   -1.07    4.50
  -1 -17 -10    9.65    6.31
  -1 -17 -10    5.69    5.01
  -3 -17 -10   45.26   10.02
  -3  17 -10   63.98   11.99
  -3 -17 -10   75.30   12.87
  -5  17 -10   36.29    9.70
  -5 -17 -10   31.13    9.90
  -5 -17 -10   34.77    8.87
  -7  17 -10   77.51   13.82
  -7 -17 -10   45.09   11.80
  -9 -17 -10    4.08    7.80
  18 -18 -10   46.28   12.26
  18  18 -10    8.07    8.60
  16 -18 -10    0.78    7.34
  14 -18 -10   12.03    7.35
  12  18 -10   -1.86    4.83
  12 -18 -10    4.05    5.24
  10  18 -10   27.86    8.07
  10 -18 -10   21.35    7.77
   8 -18 -10    1.19    4.41
   8  18 -10   -0.02    4.33
   6 -18 -10   14.24    6.09
   6  18 -10   17.80    7.29
   4  18 -10   -0.63    3.96
   4 -18 -10   -0.43    4.03
   2 -18 -10   48.82   10.42
   2  18 -10   42.73   10.25
   0 -18 -10   45.68   10.25
   0 -18 -10   53.67   10.15
   0  18 -10   35.05    9.51
  -2 -18 -10   16.85    6.45
  -2 -18 -10    2.35    5.04
  -2  18 -10    5.10    5.33
  -4 -18 -10    1.56    4.41
  -4  18 -10    4.17    6.07
  -4 -18 -10    0.57    5.56
  -6 -18 -10    4.76    5.73
  -6  18 -10   10.28    7.77
  -6 -18 -10  -10.90    5.48
  -8 -18 -10    3.14    7.79
 -10 -18 -10   17.65   10.89
  17 -19 -10    2.43    8.26
  15 -19 -10   -9.26    6.15
  13 -19 -10    3.84    5.63
  13  19 -10   -2.92    5.32
  11  19 -10    0.99    4.49
  11 -19 -10    1.03    4.76
   9  19 -10   13.06    6.23
   9 -19 -10   11.63    6.45
   7  19 -10   13.98    6.27
   7 -19 -10   27.16    7.87
   5  19 -10   13.08    6.16
   5 -19 -10    8.90    5.40
   3  19 -10   15.85    7.34
   3 -19 -10    6.62    4.90
   1 -19 -10   -5.15    4.01
   1  19 -10    0.25    5.26
  -1  19 -10   -0.92    5.53
  -1 -19 -10   -3.25    4.75
  -3  19 -10   13.82    7.48
  -3 -19 -10    8.10    6.34
  -3 -19 -10   21.10    7.74
  -5 -19 -10    4.42    6.33
  -5 -19 -10    3.33    5.52
  -5  19 -10   -1.14    6.32
  -7  19 -10    4.63    7.74
  -7 -19 -10   -5.08    6.14
  -9 -19 -10    0.44    8.41
  16 -20 -10    5.46    8.63
  14 -20 -10   10.59    7.17
  12  20 -10    0.36    5.22
  12 -20 -10   -0.10    6.16
  10 -20 -10   -7.31    5.14
  10  20 -10   -5.25    4.07
   8 -20 -10    2.42    5.10
   8  20 -10   15.51    6.41
   6 -20 -10    2.35    4.33
   6  20 -10    8.49    5.72
   4 -20 -10   55.50   11.05
   4  20 -10   39.61    9.84
   2  20 -10   65.05   13.42
   2 -20 -10   94.57   14.72
   0  20 -10   66.37   13.02
   0 -20 -10   63.64   12.07
  -2 -20 -10    3.31    6.27
  -2  20 -10   16.04    7.95
  -4  20 -10   17.50    8.56
  -4 -20 -10   10.24    7.25
  -6 -20 -10   -5.82    6.72
  -6  20 -10    3.57    7.76
  -6 -20 -10    2.27    6.52
  -8 -20 -10  -12.44    6.24
  17 -21 -10   -6.39    8.08
  15 -21 -10    9.22    8.63
  13 -21 -10   19.68    8.98
  13  21 -10   19.65    8.03
  11  21 -10   62.01   12.78
  11 -21 -10   72.97   14.43
   9 -21 -10   31.16    9.60
   9  21 -10   16.22    7.30
   7 -21 -10   19.83    7.61
   7  21 -10   34.13    9.45
   5 -21 -10   -2.85    5.11
   5  21 -10    4.74    5.80
   3  21 -10    3.95    6.33
   3 -21 -10    5.69    5.79
   1  21 -10   15.70    8.08
   1 -21 -10   16.56    6.41
  -1  21 -10    9.82    7.24
  -1 -21 -10    7.60    6.55
  -3 -21 -10   13.67    7.80
  -3  21 -10   11.16    7.60
  -5  21 -10   11.98    8.19
  -5 -21 -10    1.51    7.29
  -7 -21 -10    9.78    8.23
  16 -22 -10    9.00    9.86
  14  22 -10   -4.25    6.50
  14 -22 -10    8.59    7.94
  12 -22 -10   57.27   13.07
  12  22 -10   33.51   10.27
  10 -22 -10   28.05    9.92
  10  22 -10   17.39    8.20
   8 -22 -10   18.12    8.02
   8  22 -10   13.21    7.12
   6  22 -10   -2.74    5.38
   6 -22 -10    4.92    6.51
   4  22 -10   21.75    7.89
   4 -22 -10   28.61    8.33
   2  22 -10   41.54   11.71
   2 -22 -10   31.82    9.35
   0  22 -10    2.55    6.06
   0 -22 -10    0.89    5.35
  -2 -22 -10    5.70    6.87
  -2  22 -10    7.29    6.70
  -4  22 -10   -4.29    6.17
  -4 -22 -10   -0.39    7.57
  -6  22 -10   26.48   10.29
  -6 -22 -10   41.72   12.52
  15 -23 -10   14.06   10.70
  13  23 -10    8.48    6.98
  13 -23 -10    5.47    7.24
  11 -23 -10    3.09    6.83
  11  23 -10    2.61    6.27
   9  23 -10    7.37    7.46
   9 -23 -10    6.93    6.49
   7 -23 -10    4.89    5.38
   7  23 -10    5.17    6.38
   5 -23 -10   23.21    8.15
   5  23 -10   27.37    9.04
   3  23 -10   41.62   12.07
   3 -23 -10   26.38    8.65
   1  23 -10   15.41    8.59
   1 -23 -10   17.71    8.03
  -1 -23 -10   18.48    7.43
  -1  23 -10   13.89    8.42
  -3 -23 -10   11.19    7.79
  -3  23 -10    5.43    7.52
  -5 -23 -10    1.49    7.92
  -5  23 -10   13.11    9.00
  14  24 -10   -3.57    6.14
  14 -24 -10    4.95    9.15
  12 -24 -10    1.24    6.98
  12  24 -10    2.97    6.83
  10  24 -10    4.10    7.59
  10 -24 -10    3.44    6.28
   8 -24 -10   12.23    7.09
   8  24 -10   -0.01    5.94
   6 -24 -10    5.17    7.07
   6  24 -10   -0.83    5.92
   4 -24 -10   -3.66    5.65
   4  24 -10   11.13    7.06
   2 -24 -10   -3.40    4.77
   2  24 -10    5.43    6.80
   0 -24 -10   -2.28    5.46
   0  24 -10    2.11    6.76
  -2  24 -10  -11.94    6.41
  -2 -24 -10   -1.27    6.49
  -4 -24 -10    3.84    7.54
  -4  24 -10   -0.51    8.06
  -6  24 -10   -0.29    9.60
  13 -25 -10  -10.34    8.18
  13  25 -10   -0.25    6.19
  11 -25 -10   -0.91    7.62
  11  25 -10    2.57    6.20
   9 -25 -10    4.26    6.16
   9  25 -10    0.16    6.37
   7 -25 -10   10.73    6.77
   7  25 -10    1.56    6.12
   5 -25 -10   13.06    7.85
   5  25 -10   13.39    7.76
   3  25 -10    4.40    6.99
   3 -25 -10    7.58    6.71
   1  25 -10   26.46   11.09
   1 -25 -10   19.41    8.85
  -1  25 -10   -8.04    6.98
  -1 -25 -10    6.87    6.96
  -3  25 -10    4.12    9.11
  -3 -25 -10    3.08    7.74
  12 -26 -10   23.74   11.20
  12  26 -10   21.46    9.91
  10 -26 -10   30.20   10.84
  10  26 -10   35.13   10.61
   8 -26 -10   21.20   10.52
   8  26 -10   37.31   10.76
   6 -26 -10    6.91    6.68
   6  26 -10    5.54    6.91
   4  26 -10    8.21    8.22
   4 -26 -10    7.32    7.22
   2  26 -10    1.50    7.42
   2 -26 -10   -5.39    5.49
   0  26 -10    6.95    8.91
   0 -26 -10   -2.00    7.38
  -2  26 -10   10.37   10.25
  -2 -26 -10   11.25    8.85
   9  27 -10   -1.77    5.60
   9 -27 -10   13.55   10.07
   7 -27 -10    5.64    7.55
   7  27 -10    1.34    5.86
   5 -27 -10   -1.28    7.60
   5  27 -10   -3.68    5.36
   3 -27 -10   -1.86    7.31
   3  27 -10   -2.29    8.55
   1  27 -10    2.79    7.92
   1 -27 -10    8.61    7.87
  -1  27 -10    4.63    9.73
  -1 -27 -10    6.21    8.15
   8  28 -10   -1.91    5.23
   6  28 -10   -9.26    4.96
   6 -28 -10    2.84    8.26
   4  28 -10    7.02   10.06
   4 -28 -10   11.67    8.46
   2 -28 -10    6.40    8.98
   2  28 -10    3.41   10.02
  22   0 -11   -2.39    5.61
  20   0 -11    7.31    6.52
 -20   0  11   -0.60    6.03
 -20   0  11    7.53    5.50
 -18   0  11   -3.55    5.03
  18   0 -11    6.23    5.45
 -18   0  11    3.32    4.61
  16   0 -11    0.94    3.85
 -16   0  11    2.65    3.64
 -16   0  11    1.27    3.16
  14   0 -11    3.11    3.67
  14   0 -11   -0.77    3.82
  12   0 -11   -2.80    3.11
  12   0 -11    2.37    3.15
  10   0 -11   -5.96    1.78
  10   0 -11   -0.81    3.00
   8   0 -11   -0.20    2.12
   6   0 -11    1.66    2.37
   4   0 -11   -2.22    1.84
   2   0 -11    0.34    2.79
   2   0 -11    3.02    3.27
   0   0 -11    1.88    3.02
   0   0 -11   -1.69    3.25
  -2   0 -11    2.19    3.55
  -2   0 -11   -2.06    3.13
  -4   0 -11   -2.08    3.49
  -4   0 -11   -4.96    2.99
  -6   0 -11    0.89    4.50
  -8   0 -11    1.65    5.72
 -10   0 -11    2.24    7.37
 -12   0 -11   14.70    9.56
  23   1 -11    1.73    5.52
  23  -1 -11    6.04    5.56
 -21   1  11    2.88    7.04
  21  -1 -11    3.81    7.15
  21   1 -11    1.81    6.17
 -21   1  11    3.58    6.37
  19   1 -11    6.68    5.26
 -19   1  11    4.05    5.90
 -19  -1  11    3.98    5.93
  19  -1 -11   11.08    6.67
 -19   1  11    5.34    5.56
 -19  -1  11   -5.01    5.66
 -17  -1  11   26.18    6.55
  17  -1 -11   37.99    9.16
  17   1 -11   40.43    9.56
 -17  -1  11   31.94    7.56
  15  -1 -11   91.07   13.42
  15   1 -11   72.08   12.17
 -15  -1  11   87.43   10.97
 -15  -1  11   86.90   10.53
  15  -1 -11   77.44   11.88
  13   1 -11  110.09   13.99
 -13  -1  11  161.20   11.62
  13  -1 -11  145.78   13.73
 -13  -1  11  169.43   12.34
  13  -1 -11  141.20   15.36
  11  -1 -11  138.57   11.36
  11   1 -11  141.70   13.98
  11  -1 -11  122.57   13.40
   9   1 -11  130.80   12.84
   9  -1 -11  127.09    9.47
   9  -1 -11  118.77   12.37
   7   1 -11   43.52    7.46
   7  -1 -11   28.56    6.16
   7  -1 -11   34.07    4.38
   5  -1 -11    3.34    2.93
   5  -1 -11    1.45    1.97
   5   1 -11   -1.74    1.93
   3   1 -11  142.70   12.44
   3  -1 -11  157.02    9.53
   3  -1 -11  165.61   13.34
   1  -1 -11  208.68   15.96
   1   1 -11  200.71   11.83
   1   1 -11  195.56   15.59
   1  -1 -11  217.33   12.63
  -1   1 -11  264.27   15.47
  -1  -1 -11  264.71   19.25
  -1   1 -11  261.04   18.96
  -1  -1 -11  232.57   15.38
  -3   1 -11  317.39   19.31
  -3   1 -11  326.34   22.28
  -3  -1 -11  280.44   18.74
  -3  -1 -11  271.72   21.24
  -5   1 -11   79.68   11.05
  -5  -1 -11   78.10   10.68
  -7   1 -11   29.56    8.85
  -7  -1 -11   18.58    7.58
  -9   1 -11    5.46    7.28
  -9  -1 -11   -1.00    6.35
 -11  -1 -11   -3.94    7.74
 -11   1 -11    5.88    8.39
 -13   1 -11   -7.62    7.77
 -13  -1 -11    6.50    9.21
 -22   2  11   52.00   12.46
 -22   2  11   84.40   15.06
  20  -2 -11   40.12   11.39
 -20   2  11   34.11    9.35
  20   2 -11   52.07   13.22
 -20   2  11   32.33    8.93
  18  -2 -11   14.14    6.36
  18   2 -11    4.86    5.21
  18  -2 -11    8.31    6.71
 -16  -2  11    5.99    4.16
 -16  -2  11    3.18    3.30
  16  -2 -11   10.35    5.59
  16  -2 -11   11.75    5.85
  16   2 -11    9.80    5.17
  14   2 -11   57.28   10.47
 -14  -2  11   52.63    8.48
  14  -2 -11   49.87    8.96
  14  -2 -11   52.73    9.96
 -14  -2  11   58.87    8.04
  12  -2 -11    7.23    4.14
  12   2 -11    5.81    3.66
  12  -2 -11    7.16    3.97
  10   2 -11   12.31    4.29
  10  -2 -11   15.79    4.20
  10  -2 -11    8.12    4.05
   8  -2 -11   14.20    3.80
   8   2 -11    7.32    3.47
   8  -2 -11   21.02    5.11
   6  -2 -11  144.18    8.98
   6  -2 -11  146.45   12.17
   6   2 -11  130.19   11.41
   4  -2 -11  257.68   13.19
   4  -2 -11  235.90   16.85
   4   2 -11  212.32   16.06
   2  -2 -11  155.15   14.48
   2  -2 -11  155.81   10.07
   2   2 -11  106.56   12.22
   0  -2 -11    0.98    3.19
   0   2 -11    4.50    3.58
   0  -2 -11    2.92    3.34
   0   2 -11    2.90    2.93
  -2   2 -11   -2.73    2.98
  -2  -2 -11    1.61    3.60
  -2  -2 -11    7.38    4.37
  -2   2 -11   -1.88    2.76
  -4  -2 -11    4.85    4.10
  -4  -2 -11    5.16    4.41
  -4   2 -11    1.86    3.71
  -4   2 -11    5.47    4.27
  -6   2 -11   10.09    6.02
  -6  -2 -11    4.72    5.52
  -8   2 -11   23.30    8.95
  -8  -2 -11   15.39    7.39
 -10  -2 -11   75.28   14.09
 -10   2 -11   41.40   11.32
 -12   2 -11   97.76   17.57
 -12  -2 -11   93.20   17.70
  23   3 -11   -2.66    5.36
  23  -3 -11   -2.02    5.29
 -23   3  11   57.31   13.38
 -21   3  11   11.73    7.95
  21   3 -11   18.68    8.38
 -21   3  11   12.76    8.57
  21  -3 -11   17.02    7.86
  19  -3 -11   -2.43    5.03
  19   3 -11    5.27    5.47
  19  -3 -11    4.67    6.34
  17  -3 -11   -1.63    4.80
  17  -3 -11    7.92    4.32
  17   3 -11   -1.22    3.54
  15  -3 -11   46.66    9.61
  15  -3 -11   31.54    8.23
  15   3 -11   31.68    8.34
  13  -3 -11  156.95   13.95
  13   3 -11  163.13   16.50
  13  -3 -11  183.49   15.92
  11  -3 -11   75.09   10.37
  11   3 -11   56.97    9.30
  11  -3 -11   55.80    8.24
  11   3 -11   54.76    7.21
   9  -3 -11   29.65    5.44
   9   3 -11   42.54    7.62
   9  -3 -11   33.28    6.73
   7  -3 -11   25.18    4.43
   7   3 -11   30.82    6.53
   7  -3 -11   20.18    5.29
   5  -3 -11  260.54   17.48
   5  -3 -11  230.96   13.47
   5   3 -11  244.06   16.53
   3  -3 -11   16.86    5.05
   3   3 -11   28.70    6.13
   3  -3 -11   22.88    4.44
   1  -3 -11   17.69    5.39
   1   3 -11   13.74    4.94
   1  -3 -11   14.27    4.48
  -1  -3 -11   10.47    5.15
  -1   3 -11   12.96    4.79
  -1  -3 -11    7.55    3.89
  -1   3 -11    8.69    3.91
  -3   3 -11    4.24    3.60
  -3  -3 -11    1.85    3.60
  -3  -3 -11   -2.81    3.33
  -3   3 -11    1.20    3.61
  -5  -3 -11   50.74    9.25
  -5   3 -11   32.35    7.88
  -5   3 -11   39.23    8.72
  -5   3 -11   40.48    7.97
  -7   3 -11    1.69    5.12
  -7  -3 -11   11.72    6.54
  -9  -3 -11    1.87    6.42
  -9   3 -11    8.15    7.32
 -11  -3 -11   19.94    9.73
 -11   3 -11   -2.19    7.92
 -13  -3 -11   24.61   12.06
 -13   3 -11   19.89   11.17
  22   4 -11   -9.20    4.49
  22  -4 -11   20.67    8.87
 -22   4  11   13.37    7.89
 -22   4  11    0.06    8.13
  20   4 -11   17.83    8.76
  20  -4 -11    6.41    8.36
  20  -4 -11    9.82    6.79
  18  -4 -11  118.15   16.22
  18  -4 -11  105.30   16.36
  18   4 -11   97.13   16.64
  16  -4 -11  209.73   20.87
  16   4 -11  223.01   19.66
  16  -4 -11  217.39   18.98
  14   4 -11   96.20   13.01
  14  -4 -11   72.22   11.75
  14  -4 -11   77.89   11.46
  12   4 -11  208.70   17.00
  12  -4 -11  203.31   16.59
  12   4 -11  232.03   14.19
  12  -4 -11  185.33   15.11
  10  -4 -11  131.72   10.77
  10  -4 -11  132.27   13.34
  10   4 -11  148.11   13.75
  10   4 -11  122.79   10.43
   8   4 -11  135.46   11.73
   8  -4 -11  133.72   12.67
   8  -4 -11  127.42   10.02
   6  -4 -11   25.75    6.07
   6   4 -11   33.97    6.39
   6  -4 -11   34.75    5.00
   4  -4 -11  340.81   17.89
   4   4 -11  306.60   19.78
   4  -4 -11  311.43   20.81
   2   4 -11  135.75   11.51
   2  -4 -11  110.41   12.74
   2  -4 -11  112.97    9.38
   0  -4 -11  114.85    9.83
   0  -4 -11   98.85   12.85
   0   4 -11  111.02   11.86
  -2   4 -11   51.44    7.02
  -2  -4 -11   62.59    8.57
  -2   4 -11   71.45   10.50
  -2  -4 -11   62.11   10.42
  -2   4 -11   61.18    7.82
  -4  -4 -11    4.59    4.67
  -4   4 -11    4.23    3.97
  -4   4 -11    1.22    3.43
  -4   4 -11    1.24    4.41
  -6   4 -11   55.46   10.16
  -6   4 -11   82.98   10.86
  -6  -4 -11   63.04   10.85
  -8   4 -11   15.58    7.91
  -8  -4 -11   11.83    7.01
  -8   4 -11   10.88    6.62
 -10  -4 -11   25.02    9.86
 -10   4 -11    2.21    6.53
 -10   4 -11   13.82    8.32
 -12   4 -11   -5.95    8.63
 -12  -4 -11    0.56    9.10
  21   5 -11   -1.24    5.88
  21  -5 -11    0.66    7.18
  21  -5 -11    7.22    6.80
  19  -5 -11    6.17    5.88
  19  -5 -11   -0.09    5.67
  19   5 -11    9.23    7.39
  17  -5 -11    2.74    5.27
  17   5 -11    3.69    4.82
  17  -5 -11    4.89    5.22
  15  -5 -11   50.57    9.94
  15   5 -11   53.26   10.98
  15  -5 -11   66.42   11.17
  13  -5 -11  166.82   14.66
  13   5 -11  179.82   17.20
  13  -5 -11  187.53   17.51
  11  -5 -11   51.96    8.64
  11   5 -11   36.43    7.75
  11   5 -11   46.49    6.86
  11  -5 -11   35.32    6.68
   9  -5 -11   79.28    8.62
   9   5 -11   82.56   10.08
   9   5 -11   57.12    8.39
   9  -5 -11   87.54   10.59
   7  -5 -11    1.36    2.66
   7  -5 -11    5.08    3.62
   7   5 -11    2.94    3.20
   5   5 -11   83.19    9.56
   5  -5 -11   84.66    7.90
   5  -5 -11   74.51   10.07
   3  -5 -11   68.43    7.55
   3   5 -11   48.34    7.77
   3  -5 -11   56.04    9.05
   1  -5 -11    6.33    4.05
   1   5 -11    6.85    3.67
   1  -5 -11    7.72    4.20
  -1   5 -11   58.98    9.31
  -1  -5 -11   71.85    8.52
  -1  -5 -11   52.91    9.81
  -3  -5 -11   42.05    7.91
  -3  -5 -11   28.63    8.07
  -3   5 -11   23.35    6.45
  -3   5 -11   42.28    7.24
  -3   5 -11   38.42    6.53
  -5   5 -11   32.61    7.22
  -5   5 -11   26.32    6.88
  -5   5 -11   19.68    6.67
  -5  -5 -11   25.61    6.71
  -7   5 -11   21.41    7.23
  -7  -5 -11   25.27    8.05
  -7   5 -11   16.71    7.14
  -9   5 -11    4.90    6.38
  -9  -5 -11    2.49    6.56
  -9   5 -11   -2.06    6.34
 -11   5 -11    9.03    9.04
 -11  -5 -11    5.14    8.18
 -11   5 -11   -2.61    7.51
 -13  -5 -11   -2.11   10.03
 -13   5 -11   -3.34    9.94
  22   6 -11    5.57    8.99
  22  -6 -11   21.35    9.27
  22  -6 -11    9.43    9.90
  20  -6 -11    6.65    6.69
  20  -6 -11    3.11    6.26
  20   6 -11    4.47    6.66
  18   6 -11    1.83    5.93
  18  -6 -11   -2.00    4.78
  18  -6 -11   -2.53    5.54
  16   6 -11   23.95    7.76
  16  -6 -11   20.96    7.16
  16  -6 -11   16.00    6.34
  14   6 -11    0.81    3.62
  14  -6 -11   -5.54    3.27
  14  -6 -11    1.03    3.13
  12   6 -11   78.04    8.65
  12   6 -11   66.05   10.54
  12  -6 -11   62.79    9.97
  12  -6 -11   68.54    9.86
  10   6 -11   69.66    9.68
  10  -6 -11   57.57    8.23
  10  -6 -11   63.84    9.61
   8  -6 -11  189.41   14.53
   8  -6 -11  178.80   13.15
   8   6 -11  178.19   14.08
   8   6 -11  195.71   14.53
   6  -6 -11   96.17    8.98
   6   6 -11   76.04    9.28
   6  -6 -11   90.11   10.81
   4  -6 -11  143.32   12.61
   4   6 -11  134.77   11.59
   4  -6 -11  141.93   11.02
   2   6 -11    3.75    3.10
   2  -6 -11    7.63    4.31
   2  -6 -11    1.14    3.58
   0  -6 -11   -1.71    3.64
   0   6 -11   -1.11    2.93
   0  -6 -11    0.78    3.26
  -2  -6 -11   38.80    7.39
  -2  -6 -11   25.01    6.66
  -2   6 -11   47.25    8.50
  -4   6 -11  149.05   15.12
  -4  -6 -11  110.27   12.73
  -6   6 -11   51.73    9.78
  -6   6 -11   48.07    9.35
  -6   6 -11   51.43    9.54
  -6  -6 -11   46.09    9.49
  -8  -6 -11   -7.33    5.31
  -8   6 -11   13.67    7.10
  -8   6 -11    7.20    6.35
 -10   6 -11    1.73    7.44
 -10  -6 -11  -10.22    7.11
 -10   6 -11    1.23    7.07
 -12  -6 -11    6.09    8.58
  21  -7 -11   41.73   12.31
  21  -7 -11   55.02   13.34
  21   7 -11   42.40   13.16
  19  -7 -11   40.79   12.01
  19   7 -11   62.68   13.88
  19  -7 -11   37.49   10.82
  17   7 -11   -0.97    4.53
  17  -7 -11   -0.51    5.23
  17  -7 -11   -1.87    3.79
  15  -7 -11   33.85    8.61
  15   7 -11   30.31    8.60
  15  -7 -11   41.89    9.19
  13  -7 -11   23.51    6.51
  13   7 -11   24.24    6.97
  13  -7 -11   25.51    7.20
  11   7 -11    3.17    3.26
  11   7 -11   -0.81    2.05
  11  -7 -11   -1.78    3.32
  11  -7 -11   -3.37    2.12
   9  -7 -11   80.80   10.43
   9   7 -11  102.46   10.71
   9  -7 -11   83.47    9.72
   9   7 -11  100.05   11.08
   7  -7 -11  525.27   29.79
   7   7 -11  559.78   30.60
   7   7 -11  549.37   29.56
   7  -7 -11  509.71   28.10
   5  -7 -11  796.89   38.75
   5   7 -11  794.51   39.67
   5  -7 -11  777.45   41.16
   3  -7 -11  493.98   26.63
   3   7 -11  496.99   27.00
   3  -7 -11  453.44   28.32
   1  -7 -11  117.77   11.16
   1   7 -11  112.93   11.35
   1  -7 -11  125.94   13.92
  -1  -7 -11    3.40    3.32
  -1   7 -11    9.72    4.10
  -1  -7 -11   14.19    5.72
  -3  -7 -11    4.31    4.82
  -3   7 -11    6.13    4.26
  -3  -7 -11    5.98    4.11
  -5   7 -11   17.01    6.12
  -5  -7 -11   19.56    6.78
  -7  -7 -11   10.77    6.30
  -7   7 -11    0.67    3.80
  -9  -7 -11   40.48   10.93
 -11  -7 -11   57.00   13.71
 -13  -7 -11   24.58   12.28
  22  -8 -11   -2.92    6.74
  22   8 -11    4.07    8.89
  22  -8 -11   12.78    9.33
  20  -8 -11   -0.79    6.08
  20   8 -11    8.00    7.55
  20  -8 -11   -3.25    6.06
  18   8 -11   30.35   10.06
  18  -8 -11   22.29    8.32
  18  -8 -11   24.90    8.96
  16  -8 -11   23.86    7.20
  16   8 -11    9.52    5.75
  16  -8 -11   11.59    5.87
  14  -8 -11   -0.20    3.27
  14   8 -11    1.36    4.10
  14  -8 -11   11.17    5.20
  12  -8 -11   39.27    8.40
  12  -8 -11   58.01   10.05
  12   8 -11   65.74   10.65
  12   8 -11   70.47    8.92
  10  -8 -11    4.57    4.42
  10   8 -11   -0.56    2.41
  10  -8 -11    3.99    2.95
  10   8 -11    3.81    2.75
   8   8 -11   14.47    4.63
   8  -8 -11   15.64    4.62
   8  -8 -11   29.76    6.49
   8   8 -11   16.60    5.03
   6  -8 -11    2.73    3.45
   6   8 -11    3.09    2.85
   6  -8 -11   -1.03    3.25
   6   8 -11    4.08    3.14
   4  -8 -11    4.94    4.25
   4   8 -11   -0.24    2.09
   4  -8 -11   12.90    4.83
   2   8 -11    2.60    2.82
   2  -8 -11    1.13    3.61
   2  -8 -11   -0.35    3.28
   0  -8 -11   12.74    5.24
   0   8 -11   20.24    5.32
   0  -8 -11   15.59    5.41
  -2  -8 -11    5.48    4.43
  -2  -8 -11   24.11    7.01
  -2   8 -11   17.84    5.94
  -4   8 -11   49.92    9.14
  -4  -8 -11   64.02   10.17
  -4  -8 -11   51.05   10.00
  -6   8 -11   36.64    8.78
  -6  -8 -11   46.63    9.93
  -8  -8 -11    5.69    6.54
 -10  -8 -11    5.31    7.11
 -12  -8 -11    3.02    8.82
  21  -9 -11    4.77    7.71
  21   9 -11   10.87    9.72
  21  -9 -11   19.99    9.56
  19  -9 -11    4.55    6.55
  19  -9 -11    1.27    6.38
  19   9 -11    1.98    5.83
  17   9 -11    0.90    5.22
  17  -9 -11    2.70    5.01
  17  -9 -11   -6.65    4.36
  15   9 -11    2.78    4.36
  15  -9 -11   -1.64    4.07
  15  -9 -11    0.13    3.94
  13   9 -11   90.60   12.56
  13  -9 -11   80.15   11.49
  13  -9 -11   54.38    9.88
  11   9 -11   51.18    9.19
  11  -9 -11   54.99    9.45
  11   9 -11   54.50    8.09
  11  -9 -11   42.78    7.90
   9  -9 -11   12.78    5.33
   9  -9 -11    9.65    3.80
   9   9 -11   15.14    4.87
   9   9 -11    4.82    3.35
   7  -9 -11   15.46    5.34
   7   9 -11   12.32    4.22
   7  -9 -11    6.97    3.33
   7   9 -11   24.65    5.63
   5   9 -11   86.30   11.56
   5  -9 -11   79.06   10.72
   5  -9 -11  100.37   10.51
   5   9 -11  118.51    9.81
   3  -9 -11    3.45    4.05
   3   9 -11   -4.53    2.59
   3  -9 -11    5.21    3.57
   3   9 -11    2.65    2.97
   1  -9 -11    0.46    4.29
   1  -9 -11   -3.04    2.78
   1   9 -11   -3.85    2.47
  -1   9 -11   11.69    4.76
  -1  -9 -11    4.46    4.87
  -1  -9 -11   10.18    5.30
  -3  -9 -11   47.59    9.27
  -3  -9 -11   38.02    8.98
  -3   9 -11   42.84    8.24
  -5  -9 -11    6.04    5.37
  -5   9 -11   10.82    5.16
  -7   9 -11    4.73    4.47
  -7  -9 -11    5.41    6.08
  -9  -9 -11   -2.06    6.72
 -11  -9 -11   -9.95    7.37
  20 -10 -11   12.58    7.98
  20  10 -11   -1.36    6.96
  20 -10 -11   13.45    8.28
  18  10 -11   39.55   10.78
  18 -10 -11   16.90    7.13
  18 -10 -11   41.90   11.05
  16 -10 -11  107.75   15.45
  16 -10 -11  157.16   17.51
  16  10 -11  102.66   15.71
  14 -10 -11   95.80   13.16
  14  10 -11  100.36   14.14
  14 -10 -11  117.09   14.65
  12 -10 -11   74.39   11.39
  12  10 -11   50.27    9.52
  12 -10 -11   62.10    9.99
  10  10 -11  188.94   14.99
  10  10 -11  158.32   13.69
  10 -10 -11  198.76   14.97
  10 -10 -11  147.87   15.09
   8  10 -11    1.07    2.77
   8 -10 -11    6.28    3.47
   8  10 -11    6.75    3.70
   8 -10 -11    3.58    4.40
   6 -10 -11    2.79    3.61
   6  10 -11    7.39    4.11
   6  10 -11    6.90    3.46
   6 -10 -11    5.93    4.44
   4  10 -11    2.24    2.70
   4  10 -11    5.66    4.04
   4 -10 -11    7.58    4.76
   4 -10 -11    8.85    4.63
   2  10 -11   20.77    6.40
   2 -10 -11   49.72    8.80
   2  10 -11   26.99    5.82
   2 -10 -11   43.28    8.60
   0 -10 -11   33.81    7.61
   0  10 -11   45.49    9.23
   0 -10 -11   39.06    8.61
   0  10 -11   44.40    7.38
  -2  10 -11  109.63   11.61
  -2 -10 -11   97.05   12.42
  -2 -10 -11  104.60   14.34
  -4 -10 -11  141.37   15.70
  -4 -10 -11  147.06   17.36
  -4  10 -11  171.16   14.72
  -6  10 -11   47.06    9.71
  -6 -10 -11   50.68   10.54
  -8 -10 -11   30.55    9.00
  -8  10 -11   33.87   10.69
 -10 -10 -11    1.30    7.07
 -12 -10 -11   -3.60    8.39
  21 -11 -11   37.25   11.85
  21  11 -11   39.92   13.66
  19 -11 -11   15.39    8.72
  19  11 -11   21.49    9.41
  19 -11 -11   23.65    9.20
  17  11 -11    5.65    5.90
  17 -11 -11   18.62    7.62
  17 -11 -11   -8.50    4.36
  15  11 -11   26.05    8.03
  15 -11 -11   19.38    6.71
  15 -11 -11   34.07    8.69
  13 -11 -11   51.51    9.96
  13  11 -11   33.49    8.22
  13  11 -11   35.52    7.18
  13 -11 -11   30.19    7.28
  11 -11 -11    9.94    4.32
  11  11 -11   12.55    4.14
  11 -11 -11   15.85    6.34
  11  11 -11    8.72    4.88
   9 -11 -11   -2.47    4.05
   9 -11 -11   -0.11    2.68
   9  11 -11   -3.02    2.75
   9  11 -11    2.11    3.32
   7 -11 -11   58.05    9.42
   7  11 -11   64.68    8.71
   7 -11 -11   62.72    9.09
   7  11 -11   55.61    9.36
   5 -11 -11  155.58   14.16
   5  11 -11  107.67   13.41
   5 -11 -11  136.97   13.09
   5  11 -11  110.36   11.00
   3  11 -11  108.58   10.51
   3 -11 -11  133.82   13.05
   3  11 -11  119.82   14.44
   3 -11 -11  136.17   14.05
   1  11 -11   76.81   11.83
   1 -11 -11   60.88   10.07
   1  11 -11   64.06    8.34
   1 -11 -11   88.88   12.06
  -1 -11 -11    1.48    4.06
  -1  11 -11    2.07    4.06
  -1  11 -11    5.21    3.30
  -1 -11 -11    0.29    5.12
  -3  11 -11    8.95    4.58
  -3 -11 -11    9.10    5.25
  -3 -11 -11    9.00    5.47
  -3  11 -11    4.68    4.94
  -5  11 -11   -1.98    4.80
  -5 -11 -11    7.42    6.05
  -7 -11 -11    4.85    6.04
  -7  11 -11    4.65    6.72
  -9 -11 -11   10.35    8.07
 -11 -11 -11   33.89   11.73
  20  12 -11   19.60   10.27
  20 -12 -11   49.92   12.37
  18  12 -11   -3.25    5.75
  18 -12 -11   12.26    6.25
  18 -12 -11   16.11    7.86
  16 -12 -11    7.08    5.63
  16  12 -11    9.11    5.87
  16 -12 -11    0.26    4.68
  14  12 -11   -3.33    4.31
  14 -12 -11   14.22    5.39
  14 -12 -11    6.29    6.16
  12 -12 -11    8.73    4.53
  12 -12 -11   10.92    4.97
  12  12 -11   11.39    5.38
  12  12 -11   13.77    5.27
  10 -12 -11   51.57    8.76
  10  12 -11   60.66    9.69
  10  12 -11   79.36   11.09
  10 -12 -11   69.70   11.45
   8  12 -11   21.03    5.63
   8 -12 -11   22.15    6.90
   8 -12 -11   15.45    4.71
   8  12 -11   13.80    5.01
   6 -12 -11  294.95   20.26
   6  12 -11  344.92   19.78
   6  12 -11  293.49   21.53
   6 -12 -11  268.10   20.07
   4  12 -11  110.17   10.27
   4 -12 -11  103.72   12.37
   4 -12 -11  129.51   13.26
   4  12 -11   90.44   12.92
   2  12 -11  179.61   13.04
   2 -12 -11  193.34   15.67
   2  12 -11  149.68   16.84
   2 -12 -11  172.96   15.24
   0  12 -11   64.77   11.44
   0 -12 -11   46.82    9.38
   0  12 -11   48.87    7.40
   0 -12 -11   47.01    9.31
  -2 -12 -11   -2.01    4.04
  -2 -12 -11    0.81    4.04
  -2  12 -11   -6.65    3.72
  -4 -12 -11   13.41    6.16
  -4  12 -11   13.71    6.47
  -4 -12 -11   15.32    6.87
  -6  12 -11   23.24    8.79
  -6 -12 -11   34.77    9.45
  -8  12 -11    9.05    8.32
  -8 -12 -11    3.24    7.59
 -10 -12 -11    7.15    8.28
 -12 -12 -11   27.86   12.54
  21 -13 -11   -3.51    8.72
  21  13 -11   -0.43    9.06
  19 -13 -11   11.94    8.73
  19  13 -11   -0.50    6.49
  17 -13 -11   64.30   13.74
  17  13 -11   54.19   12.71
  15 -13 -11   16.45    6.95
  15 -13 -11    6.54    5.39
  15  13 -11    2.43    4.84
  13 -13 -11   17.00    6.01
  13 -13 -11   27.49    7.60
  13  13 -11   21.53    7.48
  13  13 -11   20.98    6.46
  11 -13 -11   -0.85    3.69
  11  13 -11   -1.61    3.36
  11 -13 -11    3.38    3.50
  11  13 -11   -3.11    2.75
   9 -13 -11  117.72   14.23
   9  13 -11  113.36   13.88
   9 -13 -11  138.83   11.95
   9  13 -11  140.78   13.44
   7  13 -11   44.27    7.52
   7  13 -11   21.92    6.43
   7 -13 -11   25.34    6.20
   7 -13 -11   42.85    9.05
   5  13 -11  125.31   14.40
   5 -13 -11   98.52   11.87
   5 -13 -11   99.86   12.34
   5  13 -11  104.44   10.43
   3  13 -11   49.75    7.08
   3 -13 -11   38.94    7.89
   3 -13 -11   45.38    9.07
   3  13 -11   45.37    9.51
   1  13 -11   31.82    8.40
   1 -13 -11   20.28    6.31
   1 -13 -11   20.00    6.85
  -1 -13 -11   11.83    5.61
  -1 -13 -11   11.00    5.48
  -1  13 -11    8.24    5.91
  -3 -13 -11   20.72    6.83
  -3  13 -11   40.82    9.69
  -3 -13 -11   31.83    9.04
  -5 -13 -11   -3.19    5.47
  -5  13 -11    5.58    6.08
  -5 -13 -11   11.50    5.39
  -7  13 -11  -10.25    5.61
  -7 -13 -11    0.79    5.68
  -9 -13 -11   10.22    7.61
 -11 -13 -11    3.96    9.12
  20 -14 -11    1.29    7.95
  20  14 -11    0.75    8.34
  18 -14 -11    6.10    6.43
  18  14 -11    7.73    7.66
  16  14 -11   25.21    9.18
  16 -14 -11   41.59   10.64
  14 -14 -11  113.29   16.44
  14  14 -11  140.66   16.85
  12 -14 -11   97.14   14.24
  12  14 -11   58.43   10.92
  12  14 -11   82.89   12.09
  12 -14 -11   94.83   11.78
  10  14 -11   12.90    5.64
  10  14 -11   29.77    7.24
  10 -14 -11   30.92    8.51
  10 -14 -11   42.80    8.03
   8 -14 -11   13.90    4.62
   8  14 -11   11.73    4.43
   8  14 -11   10.37    5.27
   8 -14 -11    8.53    4.56
   6 -14 -11    0.49    4.59
   6 -14 -11    3.64    3.74
   6  14 -11    0.47    3.60
   6  14 -11    8.40    4.08
   4 -14 -11    9.60    4.84
   4 -14 -11    9.64    5.79
   4  14 -11    9.11    4.92
   2 -14 -11    2.64    3.87
   2 -14 -11    7.58    4.54
   2  14 -11    4.25    4.89
   0 -14 -11   15.88    5.96
   0  14 -11   18.60    6.67
   0 -14 -11   18.85    6.66
  -2 -14 -11   84.75   12.57
  -2  14 -11   96.33   14.18
  -2 -14 -11   66.66   11.56
  -4  14 -11   11.97    6.99
  -4 -14 -11   16.60    7.06
  -4 -14 -11   14.58    6.29
  -6  14 -11   27.18    8.70
  -6 -14 -11   16.70    8.42
  -8 -14 -11    3.17    7.03
 -10 -14 -11   10.34    8.66
  19  15 -11    4.50    8.31
  19 -15 -11    8.26    8.38
  17  15 -11   12.47    7.85
  17 -15 -11    2.19    6.97
  15 -15 -11  117.76   17.34
  15  15 -11   90.92   15.03
  13  15 -11   63.59   11.05
  13  15 -11   56.08   11.13
  13 -15 -11   66.24   12.66
  11  15 -11   40.13    8.99
  11  15 -11   44.19    9.50
  11 -15 -11   52.60   10.58
   9 -15 -11    4.50    4.22
   9  15 -11    5.18    4.14
   9  15 -11    2.33    4.01
   9 -15 -11    2.18    2.53
   7 -15 -11   -2.17    2.54
   7  15 -11    1.78    4.34
   7 -15 -11   -1.79    3.48
   5 -15 -11   -1.26    3.36
   5 -15 -11    6.87    4.26
   5  15 -11   -1.68    3.84
   3 -15 -11    1.33    3.69
   3  15 -11   -0.88    3.86
   3 -15 -11    1.83    4.17
   1 -15 -11   12.20    5.57
   1  15 -11   28.20    8.57
   1 -15 -11   15.16    5.69
  -1 -15 -11   10.64    5.59
  -1  15 -11   15.94    7.15
  -1 -15 -11   13.48    5.93
  -3 -15 -11  170.68   19.00
  -3 -15 -11  188.68   19.27
  -3  15 -11  205.17   20.48
  -5 -15 -11   54.18   11.54
  -5 -15 -11   41.90   10.10
  -5  15 -11   48.03   11.20
  -7 -15 -11    9.94    7.74
  -7  15 -11    6.90    7.39
  -9 -15 -11    6.58    7.45
  18 -16 -11   28.61    9.51
  18  16 -11    5.38    7.92
  16 -16 -11    8.37    7.41
  16  16 -11    6.16    7.17
  14  16 -11    5.29    6.16
  14 -16 -11    3.72    6.09
  12 -16 -11   -1.55    5.06
  12  16 -11    7.04    5.29
  12  16 -11   12.01    5.88
  10 -16 -11   -0.03    4.11
  10  16 -11    1.90    4.08
   8 -16 -11   12.77    4.42
   8  16 -11    8.99    4.78
   8 -16 -11   13.42    6.02
   6  16 -11   95.55   14.14
   6 -16 -11   98.31   13.39
   4 -16 -11  105.62   12.54
   4 -16 -11  120.03   14.00
   4  16 -11   73.50   12.66
   2 -16 -11  116.08   14.02
   2 -16 -11  105.46   13.45
   2  16 -11   90.22   14.14
   0  16 -11   19.74    7.31
   0 -16 -11   26.36    7.44
   0 -16 -11   19.22    6.95
  -2 -16 -11    7.05    6.15
  -2 -16 -11    7.32    5.66
  -2  16 -11   -0.21    4.42
  -4 -16 -11    5.67    6.27
  -4 -16 -11    2.93    4.99
  -4  16 -11    2.12    6.07
  -6  16 -11    5.67    6.96
  -6 -16 -11    7.44    6.54
  -6 -16 -11    5.97    7.23
  -8 -16 -11   16.93    8.73
 -10 -16 -11   22.44   10.28
  19 -17 -11    7.83    9.55
  19  17 -11   -5.64    7.47
  17  17 -11   -2.31    6.47
  17 -17 -11   -0.21    6.30
  15 -17 -11   -3.76    5.92
  15  17 -11   -6.49    5.57
  13  17 -11    3.32    4.83
  13 -17 -11   -4.05    5.50
  11 -17 -11   78.78   13.56
  11  17 -11   76.75   13.00
   9  17 -11    8.34    5.32
   9 -17 -11    5.41    5.66
   7  17 -11    7.78    4.87
   7 -17 -11    3.06    4.83
   5 -17 -11   27.94    6.73
   5  17 -11   14.85    7.09
   5 -17 -11   33.08    7.90
   3  17 -11   53.67   11.40
   3 -17 -11   62.97   11.10
   3 -17 -11   44.45    8.57
   1 -17 -11    6.42    5.29
   1 -17 -11    4.63    4.51
   1  17 -11    2.05    4.78
  -1 -17 -11   -4.91    4.13
  -1  17 -11    2.72    5.18
  -1 -17 -11    3.50    5.10
  -3 -17 -11   -0.16    4.92
  -3 -17 -11    2.13    5.19
  -3  17 -11   -5.78    4.67
  -5  17 -11   -0.44    6.24
  -5 -17 -11    4.47    5.58
  -5 -17 -11  -13.72    5.12
  -7 -17 -11    7.43    6.83
  -7  17 -11    9.07    7.71
  -7 -17 -11   10.46    8.04
  -9 -17 -11   22.22   10.15
  18 -18 -11    3.27    9.17
  16 -18 -11   14.84    8.51
  14 -18 -11    5.69    6.56
  12  18 -11    7.71    6.16
  12 -18 -11   19.05    7.77
  10 -18 -11   15.34    7.38
  10  18 -11   27.18    8.13
   8 -18 -11   14.26    6.62
   8  18 -11   10.52    6.06
   6 -18 -11    0.54    4.39
   6  18 -11   -6.28    3.27
   4  18 -11  104.64   15.86
   4 -18 -11  131.79   15.60
   2  18 -11   20.96    7.73
   2 -18 -11    6.39    4.26
   2 -18 -11   13.74    6.05
   0 -18 -11   10.71    6.58
   0  18 -11    7.19    6.45
   0 -18 -11    9.22    5.75
  -2  18 -11   -2.48    5.25
  -2 -18 -11    1.74    5.66
  -2 -18 -11    0.59    5.46
  -4  18 -11    2.99    6.83
  -4 -18 -11   18.68    7.54
  -4 -18 -11   20.48    8.39
  -6 -18 -11  -12.50    4.74
  -6  18 -11    1.11    6.47
  -6 -18 -11   -4.98    6.33
  -8 -18 -11   -6.03    7.05
  17 -19 -11   20.07   10.24
  15 -19 -11   68.61   14.63
  13  19 -11   61.07   12.20
  13 -19 -11   75.60   15.32
  11 -19 -11   23.97    8.51
  11  19 -11   14.51    7.11
   9 -19 -11    2.38    5.18
   9  19 -11    4.49    5.35
   7  19 -11   -0.21    4.44
   7 -19 -11   -0.60    4.46
   5 -19 -11   -0.24    4.10
   5  19 -11    0.12    4.33
   3  19 -11    9.90    6.51
   3 -19 -11    4.96    5.13
   1 -19 -11   11.04    6.45
   1  19 -11   15.33    8.07
  -1 -19 -11   33.28    9.55
  -1 -19 -11   24.29    8.24
  -1  19 -11   31.92    9.57
  -3 -19 -11   64.80   12.95
  -3  19 -11   77.31   14.42
  -3 -19 -11   51.58   10.65
  -5  19 -11   46.92   11.91
  -5 -19 -11   46.11   11.52
  -5 -19 -11   20.94    8.36
  -7 -19 -11   18.49    8.35
  -7 -19 -11    5.61    7.72
  -7  19 -11   11.35    9.08
  16 -20 -11    6.69    8.52
  14  20 -11   -7.86    5.62
  14 -20 -11   21.50    9.32
  12 -20 -11    8.68    7.37
  12  20 -11   17.78    7.72
  10 -20 -11    1.63    5.98
  10  20 -11   -0.22    4.92
   8  20 -11    0.50    5.45
   8 -20 -11    7.04    6.07
   6  20 -11    9.39    6.15
   6 -20 -11    2.20    5.03
   4 -20 -11   -3.46    3.93
   4  20 -11    7.41    6.08
   2 -20 -11    6.10    5.11
   2  20 -11   15.08    7.78
   0  20 -11    4.57    6.99
   0 -20 -11   -5.27    5.11
  -2  20 -11   23.36    9.07
  -2 -20 -11    9.35    6.80
  -4  20 -11   11.10    7.93
  -4 -20 -11    3.00    6.84
  -6  20 -11   23.82   10.24
  -6 -20 -11   23.10    9.75
  -6 -20 -11   13.63    7.76
  -8 -20 -11    2.87    6.77
  -8 -20 -11    8.84    9.89
  15 -21 -11   17.64    9.53
  13  21 -11   11.67    7.86
  13 -21 -11    8.39    8.21
  11  21 -11   13.85    7.62
  11 -21 -11   15.38    7.73
   9 -21 -11   22.68    8.80
   9  21 -11   22.93    9.39
   7 -21 -11   12.88    7.64
   7  21 -11   10.94    6.53
   5  21 -11   48.39   11.48
   5 -21 -11   44.83   10.90
   3  21 -11   32.99    9.88
   3 -21 -11   35.51    9.14
   1 -21 -11   18.00    7.98
   1  21 -11    6.62    6.94
  -1  21 -11   23.41    9.15
  -1 -21 -11    6.67    7.22
  -3  21 -11    5.68    7.31
  -3 -21 -11   17.00    8.35
  -5 -21 -11   -0.22    5.93
  -5  21 -11    2.54    8.69
  -7 -21 -11    7.78    9.30
  16 -22 -11    6.78    9.66
  14 -22 -11    4.75    7.57
  14  22 -11   -8.81    5.32
  12  22 -11   10.89    7.77
  12 -22 -11    6.38    7.04
  10  22 -11   15.48    8.06
  10 -22 -11   26.33    9.75
   8 -22 -11   21.16    8.30
   8  22 -11   19.09    8.49
   6  22 -11   12.36    7.18
   6 -22 -11   15.62    7.88
   4 -22 -11    5.71    6.08
   4  22 -11    1.68    5.70
   2  22 -11   12.83    7.81
   2 -22 -11   13.76    6.69
   0  22 -11   -1.77    6.18
   0 -22 -11    5.51    6.33
  -2 -22 -11    3.41    6.75
  -2  22 -11    2.12    6.54
  -4  22 -11   -1.39    7.59
  -4 -22 -11   11.29    8.40
  -6 -22 -11   -2.12    8.27
  -6  22 -11    4.15    8.47
  15 -23 -11   -8.42    7.64
  13  23 -11    6.78    7.08
  13 -23 -11    7.14    7.95
  11 -23 -11   20.25    8.90
  11  23 -11   11.00    6.47
   9 -23 -11    3.57    7.06
   9  23 -11   -3.67    5.01
   7 -23 -11    5.77    6.51
   7  23 -11    5.20    5.38
   5 -23 -11   12.44    7.16
   5  23 -11   11.91    6.88
   3  23 -11    6.35    7.37
   3 -23 -11    8.69    6.27
   1  23 -11    0.42    7.27
   1 -23 -11   -4.25    4.79
  -1 -23 -11   10.58    7.30
  -1  23 -11   11.68    8.53
  -3  23 -11    2.94    7.61
  -3 -23 -11    7.18    7.35
  -5 -23 -11    9.83    9.81
  -5  23 -11    8.53    8.50
  14  24 -11    4.95    7.19
  14 -24 -11   17.59   10.43
  12  24 -11   26.94    9.48
  12 -24 -11   32.76   12.64
  10 -24 -11   12.40    8.13
  10  24 -11   12.70    7.52
   8  24 -11    8.20    6.69
   8 -24 -11   -1.73    6.98
   6 -24 -11   -1.50    5.73
   6  24 -11   -1.28    5.92
   4  24 -11   12.96    8.41
   4 -24 -11    5.92    6.56
   2 -24 -11    5.80    5.58
   2  24 -11    7.75    8.09
   0 -24 -11    4.37    7.75
   0  24 -11    4.66    7.74
  -2 -24 -11   11.69    7.62
  -2  24 -11    1.05    8.16
  -4  24 -11   13.27    9.90
  -4 -24 -11   16.89    9.59
  11  25 -11   -0.59    6.54
  11 -25 -11    2.82    8.53
   9  25 -11    8.36    6.25
   9 -25 -11    6.52    7.63
   7 -25 -11   17.93    8.58
   7  25 -11   37.69   10.54
   5  25 -11   21.54    9.89
   5 -25 -11   18.63    9.48
   3  25 -11   17.21   10.60
   3 -25 -11    1.81    7.24
   1  25 -11   24.85   10.77
   1 -25 -11   34.86   10.62
  -1  25 -11    4.80    9.38
  -1 -25 -11    7.72    8.38
  -3 -25 -11   -8.82    8.30
  -3  25 -11    2.53    9.22
  10  26 -11   -8.72    5.26
  10 -26 -11   13.88    9.48
   8 -26 -11   11.40    8.06
   8  26 -11   -5.43    5.31
   6  26 -11   -1.03    5.60
   6 -26 -11    1.87    7.25
   4 -26 -11   -5.75    5.95
   4  26 -11   -0.01    8.15
   2 -26 -11   14.12    8.54
   2  26 -11    3.58    8.67
   0 -26 -11   -5.45    6.84
   0  26 -11    6.57    9.66
  -2  26 -11    0.33    9.50
  -2 -26 -11   -5.79    7.50
   9  27 -11   -0.67    5.20
   9 -27 -11   14.71    9.59
   7  27 -11    1.18    4.85
   7 -27 -11    2.68    8.43
   5 -27 -11   23.13   11.13
   5  27 -11   -5.49    4.40
   3  27 -11   -1.19    8.85
   3 -27 -11    1.15    7.21
   1 -27 -11    4.93    7.75
   1  27 -11    1.48    9.34
  22   0 -12    4.00    6.09
  20   0 -12   38.83   11.51
  18   0 -12   -1.57    4.28
  16   0 -12   26.29    7.17
  14   0 -12    2.47    3.73
  12   0 -12   61.09   10.35
  10   0 -12  562.73   32.39
   8   0 -12  241.01   17.23
   6   0 -12  835.51   42.99
   4   0 -12  477.86   28.02
   2   0 -12  413.75   25.89
   0   0 -12   18.95    6.06
  -2   0 -12   90.92   13.08
  -4   0 -12   67.42   11.90
  -4   0 -12   64.98    9.66
  -6   0 -12   69.92   11.28
  -8   0 -12   84.32   14.11
 -10   0 -12   36.88   12.37
  23  -1 -12    3.62    5.28
  23   1 -12  -10.45    5.02
  21  -1 -12    4.77    6.11
  21   1 -12   -1.46    5.45
  19  -1 -12   24.49    8.85
  19   1 -12   13.85    7.22
  17   1 -12   67.98   12.53
  17  -1 -12   77.08   13.14
  15  -1 -12   68.75   12.11
  15   1 -12   65.01   11.62
  13   1 -12  115.86   14.62
  13  -1 -12  138.11   15.07
  11  -1 -12   12.83    4.63
  11   1 -12    7.76    4.12
   9   1 -12   12.18    4.78
   9  -1 -12   15.28    5.16
   7   1 -12   -1.24    2.36
   7  -1 -12    2.14    2.96
   5   1 -12  136.79   12.60
   5  -1 -12   82.00   10.87
   3   1 -12    3.27    3.56
   3  -1 -12   15.62    4.82
   1   1 -12   86.67   11.51
   1  -1 -12   91.15   11.85
  -1  -1 -12   83.55    8.65
  -1  -1 -12   62.30   10.78
  -1   1 -12   56.86   10.25
  -3  -1 -12   57.64   10.86
  -3   1 -12   52.53   10.42
  -3  -1 -12   79.47    9.61
  -5  -1 -12   10.24    5.69
  -5   1 -12   16.34    6.32
  -5   1 -12   14.55    5.70
  -5  -1 -12    7.28    4.96
  -7  -1 -12   10.49    6.50
  -7   1 -12   22.40    8.84
  -9   1 -12    5.63    7.65
  -9  -1 -12    7.51    6.83
 -11  -1 -12    5.50    8.29
  22   2 -12    4.86    5.70
  22  -2 -12    9.67    6.76
  20   2 -12   16.75    8.00
  20  -2 -12    1.39    5.44
  18  -2 -12   26.18    8.56
  18   2 -12   22.69    8.46
  16  -2 -12    8.97    5.51
  16   2 -12   28.97    8.43
  14  -2 -12  217.17   18.68
  14   2 -12  245.31   19.62
  12   2 -12   12.11    4.71
  12  -2 -12   11.22    4.86
  12   2 -12   13.28    3.58
  10   2 -12   90.00   11.38
  10  -2 -12   59.90    9.75
   8   2 -12    0.95    2.50
   8  -2 -12    1.40    2.70
   6   2 -12    3.97    2.96
   6  -2 -12    2.58    3.36
   4   2 -12    3.65    3.32
   4  -2 -12    1.75    2.99
   2  -2 -12    0.64    2.95
   2   2 -12    4.91    3.58
   0   2 -12   16.98    5.57
   0  -2 -12   17.36    6.06
   0  -2 -12   15.79    5.01
  -2  -2 -12   69.57   11.61
  -2   2 -12   63.78   10.73
  -2  -2 -12   60.04    8.39
  -4  -2 -12   10.61    5.08
  -4   2 -12    7.72    5.18
  -4  -2 -12   17.69    6.51
  -6  -2 -12    5.08    5.31
  -6   2 -12   -3.37    3.27
  -8  -2 -12   -2.83    6.12
 -10  -2 -12   11.77    8.76
 -12  -2 -12    3.17    9.80
  23   3 -12   -5.34    4.79
  23  -3 -12   -3.50    4.74
  21  -3 -12   -3.56    4.54
  21   3 -12    9.96    6.44
  19   3 -12   11.70    7.72
  19  -3 -12   11.98    7.04
  17  -3 -12   54.64   11.18
  17   3 -12   42.71   10.14
  15   3 -12   41.62    9.45
  15  -3 -12   37.20    8.66
  15  -3 -12   38.09    8.54
  13  -3 -12   37.40    8.16
  13   3 -12   52.70   10.01
  11   3 -12    4.65    2.94
  11   3 -12    0.61    3.24
  11  -3 -12    0.83    2.51
   9  -3 -12    6.69    3.27
   9   3 -12    6.65    3.96
   7  -3 -12   64.78    9.41
   7   3 -12   48.72    8.19
   5  -3 -12   -5.71    2.65
   5   3 -12    0.17    2.63
   3  -3 -12  106.83   12.69
   3   3 -12  115.06   12.08
   1  -3 -12  166.13   11.61
   1  -3 -12  135.77   14.78
   1   3 -12  134.90   14.08
  -1  -3 -12  348.86   24.18
  -1  -3 -12  339.23   20.17
  -1   3 -12  333.13   23.00
  -3  -3 -12   42.64    9.31
  -3   3 -12   50.37   10.01
  -3  -3 -12   41.29    7.88
  -5   3 -12   42.36    9.67
  -5  -3 -12   44.11    9.06
  -5  -3 -12   26.00    7.91
  -7  -3 -12   32.43    9.09
  -9  -3 -12    6.06    7.67
 -11  -3 -12  -13.91    7.12
  22   4 -12    7.26    6.85
  22  -4 -12   27.28   11.27
  20   4 -12   -1.48    5.48
  20  -4 -12    1.81    5.25
  18   4 -12    9.73    6.41
  18  -4 -12    8.82    6.56
  18  -4 -12    7.46    5.95
  16  -4 -12   39.72    9.09
  16   4 -12   20.91    7.24
  16  -4 -12   14.41    6.36
  14   4 -12   33.08    8.02
  14  -4 -12   44.49    8.54
  14  -4 -12   37.35    8.72
  12   4 -12    4.88    3.73
  12  -4 -12    4.81    3.75
  12   4 -12    5.08    2.96
  12  -4 -12   13.28    5.16
  10  -4 -12   34.50    6.15
  10  -4 -12   38.03    7.38
  10   4 -12   40.51    7.69
   8  -4 -12  197.88   15.75
   8   4 -12  222.79   16.30
   8  -4 -12  221.85   14.15
   6   4 -12  445.54   25.73
   6  -4 -12  432.83   22.41
   6  -4 -12  438.36   26.42
   4  -4 -12   57.78    6.57
   4   4 -12   26.07    6.29
   4  -4 -12   38.51    7.73
   2  -4 -12   -1.28    2.63
   2  -4 -12    2.83    3.59
   2   4 -12    1.89    3.09
   0  -4 -12   43.05    8.99
   0  -4 -12   58.48    7.88
   0   4 -12   69.39   10.04
  -2   4 -12    6.15    4.37
  -2  -4 -12    8.84    4.76
  -2  -4 -12    8.39    5.11
  -4  -4 -12    7.72    5.24
  -4  -4 -12   11.43    5.40
  -4   4 -12   12.09    5.46
  -6  -4 -12   -9.65    4.31
  -6   4 -12    0.12    3.77
  -8  -4 -12   31.26    9.74
 -10  -4 -12  102.88   16.91
 -12  -4 -12   45.95   14.17
  21  -5 -12   42.58   12.14
  21   5 -12   33.74   11.22
  19  -5 -12   19.82    7.84
  19  -5 -12    7.71    6.37
  19   5 -12   14.54    8.23
  17  -5 -12    4.52    5.99
  17   5 -12    3.36    4.55
  17  -5 -12   -1.50    3.84
  15  -5 -12   -3.16    3.32
  15   5 -12   -3.06    3.64
  15  -5 -12    1.35    4.46
  13  -5 -12   -1.15    3.53
  13   5 -12    6.22    4.58
  13  -5 -12    9.65    4.71
  11  -5 -12   20.88    5.39
  11  -5 -12   11.33    5.29
  11   5 -12   18.68    4.97
  11   5 -12   21.46    5.87
   9  -5 -12  218.30   16.05
   9  -5 -12  209.67   14.42
   9   5 -12  215.18   15.79
   9   5 -12  192.62   15.64
   7  -5 -12  509.28   29.45
   7   5 -12  500.07   28.64
   7  -5 -12  514.59   26.35
   5  -5 -12  187.73   12.26
   5   5 -12  183.37   14.06
   5  -5 -12  174.01   14.61
   3   5 -12  120.90   11.88
   3  -5 -12   92.40   12.20
   3  -5 -12   89.58    9.32
   1  -5 -12    1.68    4.20
   1   5 -12    3.31    3.07
   1  -5 -12    4.43    4.11
  -1  -5 -12    7.52    4.74
  -1   5 -12    0.94    3.35
  -1  -5 -12   -0.31    3.22
  -3   5 -12    6.19    4.79
  -3  -5 -12    9.10    4.76
  -3  -5 -12   10.99    5.56
  -5  -5 -12   -3.81    3.65
  -5   5 -12    1.50    4.15
  -5  -5 -12    3.47    4.74
  -7  -5 -12   19.30    8.12
  -7   5 -12   27.14    7.32
  -9  -5 -12   48.24   12.34
 -11  -5 -12  116.23   18.82
  22   6 -12    1.09    8.47
  22  -6 -12    0.81    6.50
  20  -6 -12    8.37    7.85
  20  -6 -12    5.88    6.86
  20   6 -12   29.59   10.24
  18  -6 -12   47.58   11.21
  18  -6 -12   63.16   12.65
  18   6 -12   63.84   13.37
  16   6 -12   73.92   13.29
  16  -6 -12   82.88   12.95
  16  -6 -12   69.60   12.50
  14   6 -12    0.08    3.67
  14  -6 -12    2.63    4.20
  14  -6 -12    2.40    4.58
  12  -6 -12   48.48    8.48
  12  -6 -12   41.41    8.44
  12   6 -12   59.44    8.00
  12   6 -12   43.21    9.07
  10   6 -12    1.04    2.70
  10  -6 -12   -1.47    3.17
  10  -6 -12    1.01    2.89
  10   6 -12    1.64    2.84
   8   6 -12   23.54    6.04
   8  -6 -12   22.23    5.36
   8   6 -12   22.28    5.66
   8  -6 -12   33.65    7.03
   6   6 -12   10.03    4.13
   6  -6 -12   22.58    5.80
   6  -6 -12   17.95    5.00
   4  -6 -12   34.44    7.71
   4  -6 -12   30.80    6.18
   4   6 -12   26.44    5.91
   2   6 -12   27.04    6.32
   2  -6 -12   50.08    7.28
   2  -6 -12   36.51    7.95
   0  -6 -12  102.06   13.64
   0  -6 -12   94.92   10.32
   0   6 -12   81.31   10.86
  -2   6 -12   11.84    4.86
  -2  -6 -12    7.89    4.78
  -2  -6 -12    5.34    4.53
  -4   6 -12   48.82    9.83
  -4  -6 -12   45.78    8.91
  -4  -6 -12   44.46    9.68
  -6   6 -12   24.70    7.55
  -6  -6 -12   21.73    7.72
  -8  -6 -12   11.75    7.49
  -8   6 -12    1.99    4.94
 -10  -6 -12   -9.06    6.75
 -12  -6 -12  -16.14    8.16
  21  -7 -12    9.18    6.98
  21  -7 -12   -3.93    6.20
  21   7 -12    5.33    7.14
  19  -7 -12   -0.66    5.75
  19   7 -12   14.80    7.43
  19  -7 -12    2.05    7.01
  17   7 -12   -0.07    4.02
  17  -7 -12    1.70    5.62
  17  -7 -12   -0.35    4.25
  15  -7 -12   37.38    8.73
  15  -7 -12   42.16    9.39
  15   7 -12   31.89    8.58
  13  -7 -12    0.18    3.17
  13   7 -12    0.10    3.62
  13  -7 -12   10.22    4.99
  11  -7 -12   49.41    8.43
  11  -7 -12   49.26    9.05
  11   7 -12   48.89    8.93
   9  -7 -12    5.48    3.51
   9  -7 -12   20.02    5.44
   9   7 -12   21.25    5.25
   9   7 -12   25.02    6.16
   7   7 -12   18.06    5.08
   7   7 -12   24.96    6.02
   7  -7 -12    8.47    4.36
   7  -7 -12    5.76    3.98
   5  -7 -12    4.04    3.71
   5  -7 -12    6.75    3.89
   5   7 -12    5.46    3.07
   3  -7 -12    2.05    4.18
   3  -7 -12    5.08    4.13
   3   7 -12    1.85    2.99
   1  -7 -12    3.29    3.91
   1  -7 -12    0.72    3.09
   1   7 -12    1.81    3.29
  -1  -7 -12   15.40    6.21
  -1   7 -12    5.99    4.01
  -1  -7 -12   10.00    5.30
  -3  -7 -12   -1.17    3.58
  -3  -7 -12    2.14    4.83
  -3   7 -12   19.36    6.42
  -5  -7 -12    0.25    3.17
  -5  -7 -12    2.04    4.89
  -5   7 -12    0.89    3.94
  -7   7 -12    7.59    5.55
  -7  -7 -12   -5.18    5.16
  -9  -7 -12    9.32    8.08
  -9   7 -12   -1.00    4.85
 -11  -7 -12    0.88    7.91
  22  -8 -12    9.38    7.26
  22   8 -12   -8.32    8.71
  22  -8 -12    6.54    7.90
  20   8 -12   22.23    9.63
  20  -8 -12   18.58    8.65
  20  -8 -12    6.17    7.41
  18  -8 -12   40.40    9.66
  18   8 -12   45.36   11.53
  18  -8 -12   61.43   12.51
  16   8 -12   92.14   14.87
  16  -8 -12  110.42   14.78
  16  -8 -12   93.40   14.41
  14  -8 -12    5.92    5.05
  14   8 -12    9.62    5.36
  14  -8 -12    5.35    4.52
  12   8 -12   41.97    7.41
  12   8 -12   41.95    9.09
  12  -8 -12   55.66    9.73
  12  -8 -12   46.88    8.54
  10   8 -12  147.44   14.24
  10  -8 -12  138.52   13.44
  10   8 -12  140.81   13.51
  10  -8 -12  152.45   14.65
   8   8 -12    0.51    2.85
   8   8 -12    0.78    2.71
   8  -8 -12   -0.33    3.43
   8  -8 -12    4.97    3.49
   6  -8 -12   13.10    4.55
   6  -8 -12   12.38    4.94
   6   8 -12   12.55    4.46
   6   8 -12   10.71    4.09
   4  -8 -12    2.13    4.17
   4  -8 -12    6.75    4.31
   4   8 -12    0.68    2.47
   2  -8 -12  151.60   12.88
   2   8 -12  161.92   12.96
   2  -8 -12  145.86   15.55
   0  -8 -12    0.96    4.87
   0  -8 -12    0.00    3.80
   0   8 -12   -2.02    2.35
  -2  -8 -12  255.75   19.46
  -2   8 -12  292.14   20.37
  -2  -8 -12  319.11   23.31
  -4  -8 -12   40.34    9.89
  -4  -8 -12   48.91    9.48
  -4   8 -12   56.36   10.10
  -6  -8 -12    4.29    5.39
  -6   8 -12   20.51    7.16
  -8  -8 -12    6.84    7.21
  -8   8 -12    4.47    5.40
 -10  -8 -12   -3.62    6.99
 -12  -8 -12    1.30    8.22
  21   9 -12    7.33    8.55
  21  -9 -12   25.20    9.82
  21  -9 -12   28.66   10.49
  19   9 -12    2.37    6.56
  19  -9 -12   -5.63    6.84
  19  -9 -12   16.64    7.98
  17  -9 -12    1.16    4.11
  17  -9 -12   -3.90    5.39
  17   9 -12    1.83    5.38
  15  -9 -12    0.15    4.33
  15  -9 -12    4.85    4.66
  15   9 -12   -2.29    3.86
  13  -9 -12   18.65    5.69
  13   9 -12   15.74    5.35
  13   9 -12   12.55    5.38
  13  -9 -12   24.60    6.97
  11  -9 -12   31.41    7.29
  11   9 -12   26.47    6.10
  11  -9 -12   45.39    8.73
  11   9 -12   42.34    8.42
   9  -9 -12  292.08   19.20
   9   9 -12  248.97   18.45
   9   9 -12  270.71   19.16
   9  -9 -12  254.74   18.44
   7   9 -12  384.49   23.55
   7  -9 -12  348.15   23.70
   7  -9 -12  390.13   23.38
   7   9 -12  445.69   26.21
   5  -9 -12  504.84   30.00
   5  -9 -12  534.22   28.58
   5   9 -12  472.61   28.03
   5   9 -12  527.89   31.41
   3  -9 -12  181.82   14.66
   3   9 -12  174.79   13.92
   3  -9 -12  222.23   17.15
   1  -9 -12   88.20   12.33
   1  -9 -12   92.60   10.96
   1   9 -12   86.04   10.35
  -1  -9 -12   -0.14    4.60
  -1  -9 -12    4.59    4.49
  -1   9 -12    1.79    3.44
  -3  -9 -12   -0.20    3.79
  -3   9 -12    4.55    4.57
  -3  -9 -12    0.00    4.12
  -5   9 -12    4.18    4.93
  -5  -9 -12    6.66    5.58
  -5  -9 -12    7.82    5.68
  -7  -9 -12   51.22   11.25
  -7   9 -12   67.56   11.96
  -9  -9 -12   72.71   13.72
 -11  -9 -12   15.40   10.29
  20 -10 -12   -0.55    7.03
  20  10 -12   -3.77    6.22
  20 -10 -12    5.72    7.36
  18  10 -12   -3.22    5.40
  18 -10 -12    1.21    6.47
  18 -10 -12    7.98    5.84
  16 -10 -12   11.86    6.74
  16 -10 -12    6.22    5.46
  16  10 -12   24.35    8.36
  14  10 -12   58.48   10.99
  14 -10 -12   46.76    9.78
  14 -10 -12   45.82    9.86
  12 -10 -12    0.84    4.56
  12 -10 -12   -1.31    2.85
  12  10 -12   -0.03    3.15
  12  10 -12    4.09    4.02
  10  10 -12   10.77    4.21
  10 -10 -12    5.02    4.62
  10  10 -12    4.33    3.62
  10 -10 -12    7.57    4.23
   8  10 -12    2.91    2.98
   8  10 -12    1.01    3.24
   8 -10 -12    7.33    3.58
   8 -10 -12    8.56    4.98
   6  10 -12   19.10    5.21
   6  10 -12    8.67    4.61
   6 -10 -12   14.45    5.36
   6 -10 -12   17.83    6.06
   4 -10 -12    5.19    4.80
   4  10 -12    9.87    5.40
   4  10 -12    9.63    3.76
   4 -10 -12   15.37    5.18
   2 -10 -12    2.51    3.95
   2 -10 -12    0.82    4.72
   2  10 -12    5.30    4.97
   2  10 -12   -3.33    2.59
   0 -10 -12   16.53    6.55
   0 -10 -12    2.28    4.95
   0  10 -12    3.36    3.44
  -2 -10 -12    0.57    3.40
  -2 -10 -12   -7.29    3.32
  -2  10 -12   -1.06    3.29
  -4 -10 -12    3.26    4.87
  -4 -10 -12   -1.28    4.01
  -4  10 -12    0.33    4.25
  -6 -10 -12   -3.91    5.10
  -8 -10 -12    0.36    7.01
  -8  10 -12    7.34    9.28
 -10 -10 -12   -0.23    7.18
  21  11 -12   13.04    9.98
  21 -11 -12    6.74    7.53
  21 -11 -12   -2.35    6.69
  19  11 -12   -1.89    6.39
  19 -11 -12   -5.18    4.86
  19 -11 -12    4.03    6.43
  17 -11 -12   -3.26    4.25
  17  11 -12    5.88    5.74
  17 -11 -12    2.61    5.54
  15  11 -12    1.15    4.46
  15 -11 -12    1.34    4.57
  15 -11 -12    3.50    5.06
  13  11 -12   25.87    7.64
  13 -11 -12   39.28    8.80
  13 -11 -12   27.77    6.91
  11  11 -12   29.48    7.50
  11 -11 -12   29.85    7.31
  11 -11 -12   25.39    7.30
  11  11 -12   28.99    6.93
   9 -11 -12  135.88   13.53
   9  11 -12  151.90   12.86
   9 -11 -12  109.78   13.39
   9  11 -12  152.05   14.93
   7  11 -12   43.55    7.95
   7  11 -12   54.50    9.44
   7 -11 -12   48.46    8.93
   7 -11 -12   31.03    6.81
   5 -11 -12  171.59   14.72
   5  11 -12  211.87   18.56
   5 -11 -12  175.18   14.74
   5  11 -12  160.52   12.99
   3  11 -12   12.04    5.14
   3 -11 -12   23.40    6.47
   3 -11 -12   11.27    5.32
   3  11 -12   12.26    4.33
   1  11 -12    2.57    4.90
   1 -11 -12    5.74    4.16
   1  11 -12    3.31    3.30
   1 -11 -12    5.35    5.64
  -1  11 -12   20.60    5.58
  -1 -11 -12   14.75    5.62
  -1  11 -12   27.90    8.15
  -1 -11 -12   10.36    5.70
  -3  11 -12   12.90    6.88
  -3 -11 -12   13.64    6.53
  -3 -11 -12    8.20    5.70
  -5  11 -12   30.82    9.33
  -5 -11 -12   13.15    6.84
  -5 -11 -12   18.32    7.46
  -7  11 -12   16.25    8.64
  -7 -11 -12    3.24    6.05
  -9 -11 -12   37.12   10.51
 -11 -11 -12   -2.32    8.31
  20 -12 -12   26.25   10.44
  20  12 -12   19.44    9.82
  18  12 -12    4.23    6.96
  18 -12 -12   24.31    9.67
  18 -12 -12   10.90    6.90
  16  12 -12   88.77   15.12
  16 -12 -12  108.44   15.89
  16 -12 -12   91.94   14.05
  14 -12 -12   90.55   13.26
  14 -12 -12  112.23   15.10
  14  12 -12   92.41   14.01
  12 -12 -12   32.30    7.75
  12  12 -12   25.99    6.93
  12 -12 -12   25.12    6.59
  12  12 -12   37.95    8.43
  10 -12 -12    0.58    3.86
  10  12 -12   -1.61    3.15
  10 -12 -12    3.67    5.15
  10  12 -12   -2.38    3.02
   8  12 -12   28.01    6.55
   8 -12 -12   28.02    6.52
   8 -12 -12   15.87    6.68
   8  12 -12   24.59    6.51
   6  12 -12    3.99    3.87
   6 -12 -12    3.17    4.88
   6  12 -12    2.90    3.33
   6 -12 -12   -2.97    3.19
   4 -12 -12   11.13    6.02
   4 -12 -12    8.25    5.17
   4  12 -12    8.36    4.52
   4  12 -12   15.81    4.75
   2 -12 -12   18.90    6.82
   2  12 -12   21.42    7.61
   2 -12 -12   16.72    5.86
   2  12 -12   12.87    4.54
   0  12 -12  120.21   16.01
   0 -12 -12  149.41   14.60
   0 -12 -12  121.37   15.36
  -2  12 -12   43.56   10.38
  -2 -12 -12   51.64    9.88
  -2 -12 -12   45.24   10.15
  -4 -12 -12   33.67    8.86
  -4  12 -12   28.63    9.16
  -4 -12 -12   72.36   11.57
  -6 -12 -12   36.90   10.01
  -6  12 -12   10.84    7.47
  -6 -12 -12   29.15    9.19
  -8  12 -12    2.98    9.07
  -8 -12 -12   -9.49    5.85
 -10 -12 -12   17.54    9.76
  19 -13 -12    9.29    7.91
  19  13 -12   11.37    8.54
  17  13 -12   52.38   12.06
  17 -13 -12   47.65   11.78
  15  13 -12   75.58   13.05
  15 -13 -12   70.94   12.10
  15 -13 -12   61.41   11.91
  13  13 -12   11.40    5.95
  13 -13 -12   24.70    7.13
  13 -13 -12   17.51    5.95
  13  13 -12   20.32    6.70
  11  13 -12   -2.33    3.67
  11 -13 -12   -2.73    2.56
  11  13 -12   -0.16    3.76
  11 -13 -12    1.82    3.63
   9 -13 -12   62.89    9.53
   9 -13 -12   65.52   10.51
   9  13 -12   49.13    9.07
   9  13 -12   59.27   10.35
   7  13 -12  162.80   13.43
   7  13 -12  127.38   15.65
   7 -13 -12  189.08   14.75
   7 -13 -12  160.88   15.96
   5 -13 -12   10.16    5.93
   5  13 -12    6.35    4.81
   5  13 -12    3.60    3.42
   5 -13 -12    1.94    3.94
   3 -13 -12   -3.62    3.60
   3  13 -12   -1.81    3.76
   3 -13 -12    3.59    5.26
   1  13 -12   -1.87    3.88
   1 -13 -12    2.19    4.50
   1 -13 -12    0.53    3.70
  -1 -13 -12   10.80    5.42
  -1 -13 -12   10.61    6.06
  -1  13 -12   12.31    6.42
  -3 -13 -12   40.84    9.25
  -3 -13 -12   39.95    9.42
  -3  13 -12   33.75    9.68
  -5 -13 -12    3.80    5.35
  -5 -13 -12   14.55    6.92
  -5  13 -12   -4.00    5.64
  -7  13 -12   -6.44    5.93
  -7 -13 -12   -1.94    6.22
  -9 -13 -12   16.29    9.18
  20 -14 -12   23.18   10.99
  20  14 -12   28.61   11.40
  18  14 -12   22.84    9.38
  18 -14 -12    0.53    7.60
  16 -14 -12    1.46    5.34
  16  14 -12    1.91    6.06
  14 -14 -12   23.34    6.90
  14  14 -12   33.32    8.82
  14 -14 -12   44.48   10.13
  12 -14 -12    4.40    4.39
  12 -14 -12    9.24    5.62
  12  14 -12    8.75    5.54
  12  14 -12    2.97    4.27
  10 -14 -12  142.87   16.07
  10  14 -12  133.56   14.30
  10  14 -12  130.34   15.59
  10 -14 -12  167.22   15.45
   8  14 -12   67.07    9.71
   8 -14 -12   52.78    8.94
   8 -14 -12   59.92   10.47
   8  14 -12   47.75    9.88
   6  14 -12  174.52   18.18
   6 -14 -12  195.79   16.12
   6 -14 -12  193.69   15.87
   4  14 -12   50.50   10.18
   4 -14 -12   49.17    9.19
   4 -14 -12   54.77    9.60
   2 -14 -12   87.07   12.17
   2  14 -12   85.46   13.75
   2 -14 -12  100.90   13.38
   0 -14 -12   -3.73    3.97
   0  14 -12    2.41    4.30
   0 -14 -12   -1.15    4.88
  -2 -14 -12    2.26    5.15
  -2 -14 -12   14.79    6.62
  -2  14 -12   13.21    6.84
  -4 -14 -12    2.24    5.17
  -4 -14 -12   -7.85    4.50
  -4  14 -12    0.41    5.26
  -6  14 -12   14.25    8.73
  -6 -14 -12   22.42    9.33
  -6 -14 -12   20.31    8.57
  -8 -14 -12   23.56    9.53
 -10 -14 -12   24.60   11.85
  19 -15 -12    2.87    8.11
  19  15 -12    5.29    7.86
  17  15 -12   38.72   11.55
  17 -15 -12   42.51   11.44
  15 -15 -12    6.85    5.94
  15  15 -12    1.66    5.45
  13  15 -12    7.87    5.56
  13 -15 -12    1.93    4.92
  13  15 -12    7.29    5.54
  11  15 -12    9.26    5.46
  11  15 -12   -0.10    4.39
  11 -15 -12    0.11    4.74
  11 -15 -12    6.98    4.39
   9 -15 -12    1.40    4.55
   9  15 -12    7.09    5.40
   9 -15 -12    3.35    3.93
   9  15 -12    9.37    4.62
   7 -15 -12    0.69    4.05
   7 -15 -12   -3.61    3.31
   7  15 -12   -2.48    3.87
   5 -15 -12    2.90    4.34
   5 -15 -12    0.24    4.07
   5  15 -12   -6.87    3.13
   3 -15 -12    1.96    4.78
   3 -15 -12   -1.16    4.07
   3  15 -12    6.19    5.66
   1 -15 -12   12.11    5.85
   1 -15 -12   12.95    6.03
   1  15 -12    8.80    6.12
  -1  15 -12    0.74    4.78
  -1 -15 -12   -4.55    4.35
  -1 -15 -12    9.04    5.91
  -3  15 -12   -4.32    5.26
  -3 -15 -12   14.18    6.55
  -3 -15 -12   24.54    8.08
  -5 -15 -12    4.76    6.79
  -5  15 -12   12.82    8.21
  -5 -15 -12    0.52    6.33
  -7 -15 -12   18.28    8.42
  -7 -15 -12    4.52    5.64
  -7  15 -12   -1.84    7.76
  -9 -15 -12  -12.12    7.23
  18  16 -12    8.37    8.13
  18 -16 -12    7.93    8.36
  16  16 -12   -2.13    5.86
  16 -16 -12    2.99    5.91
  14  16 -12   37.09    9.54
  14 -16 -12   41.78   10.81
  12 -16 -12    3.40    5.82
  12  16 -12    0.21    4.54
  10  16 -12    4.24    4.45
  10 -16 -12    3.15    5.33
   8 -16 -12    0.59    2.77
   8 -16 -12   11.56    5.74
   8  16 -12   24.05    7.50
   6 -16 -12    4.26    4.62
   6  16 -12    3.66    5.05
   6 -16 -12    4.41    4.61
   4  16 -12   36.54    9.14
   4 -16 -12   36.40    7.85
   4 -16 -12   37.63    8.57
   2  16 -12    1.55    5.09
   2 -16 -12   -3.57    3.63
   2 -16 -12   -0.12    4.30
   0 -16 -12    1.77    4.85
   0  16 -12    0.53    5.30
   0 -16 -12    2.59    4.90
  -2  16 -12    8.23    6.28
  -2 -16 -12   13.12    6.50
  -2 -16 -12    6.69    5.54
  -4 -16 -12   -4.76    5.18
  -4  16 -12   -4.94    5.86
  -4 -16 -12   -5.19    5.53
  -6  16 -12    5.44    7.49
  -6 -16 -12    4.34    6.36
  -6 -16 -12   -9.61    5.24
  -8 -16 -12   16.29    8.63
  -8 -16 -12    4.94    6.53
  19 -17 -12   -1.02    9.07
  19  17 -12   24.09   11.95
  17 -17 -12   46.12   12.48
  17  17 -12   62.30   14.38
  15 -17 -12  103.73   17.21
  13 -17 -12  108.31   16.94
  13  17 -12   95.13   14.23
  11  17 -12   16.52    6.25
  11 -17 -12   20.49    7.71
   9 -17 -12   10.56    6.57
   9  17 -12   10.92    5.74
   7  17 -12    6.15    4.96
   7 -17 -12    6.39    5.19
   5 -17 -12   -0.86    3.85
   5 -17 -12    8.35    5.10
   5  17 -12    5.12    4.61
   3 -17 -12   31.81    8.21
   3 -17 -12   33.04    7.87
   3  17 -12   24.22    8.38
   1 -17 -12   51.67   10.46
   1  17 -12   41.19   10.55
   1 -17 -12   42.54    9.88
  -1  17 -12   80.12   14.46
  -1 -17 -12   98.74   14.64
  -1 -17 -12   90.39   14.00
  -3 -17 -12   88.87   14.29
  -3 -17 -12   79.53   13.61
  -3  17 -12   77.02   14.50
  -5  17 -12   10.35    7.64
  -5 -17 -12   -1.47    6.36
  -5 -17 -12    3.98    6.26
  -7 -17 -12   -2.15    7.11
  -7 -17 -12    7.43    6.22
  -7  17 -12    0.48    7.84
  -9 -17 -12    0.87    5.91
  18 -18 -12   -2.89    7.10
  16 -18 -12   -3.35    6.31
  14 -18 -12   11.25    7.26
  12  18 -12   12.80    6.83
  12 -18 -12    8.93    6.75
  10 -18 -12    1.31    4.90
  10  18 -12   11.11    5.75
   8  18 -12  127.51   16.54
   8 -18 -12  102.86   14.97
   6  18 -12   29.74    8.42
   6 -18 -12   29.92    8.01
   4  18 -12   31.79    9.16
   4 -18 -12   38.52    9.16
   2 -18 -12   20.53    7.00
   2 -18 -12   19.84    7.73
   2  18 -12   25.15    9.16
   0 -18 -12   -1.63    4.97
   0  18 -12   -1.56    5.68
   0 -18 -12   -3.33    5.05
  -2  18 -12   -1.38    6.31
  -2 -18 -12   -5.87    6.16
  -2 -18 -12    2.67    5.73
  -4 -18 -12   -0.36    6.09
  -4  18 -12   -1.78    6.09
  -4 -18 -12   -0.85    5.55
  -6  18 -12    6.90    8.55
  -6 -18 -12    6.38    6.97
  -6 -18 -12   16.82    7.86
  -8 -18 -12  -12.32    7.21
  -8 -18 -12   16.36    7.86
  17 -19 -12    9.49    8.01
  15 -19 -12    0.42    6.31
  13  19 -12    1.04    5.01
  13 -19 -12    2.64    6.08
  11  19 -12    8.64    6.48
  11 -19 -12   -0.73    6.00
   9 -19 -12   -0.05    4.72
   9  19 -12    8.66    6.09
   7 -19 -12   26.78    7.74
   7  19 -12   44.94   10.43
   5  19 -12    7.23    5.99
   5 -19 -12    2.12    5.01
   3  19 -12    2.45    5.96
   3 -19 -12  -12.27    4.26
   1  19 -12    0.85    6.55
   1 -19 -12    0.97    5.35
  -1 -19 -12   -3.00    6.11
  -1 -19 -12    8.91    5.67
  -1  19 -12   14.04    7.94
  -3  19 -12    3.79    7.07
  -3 -19 -12   10.42    7.09
  -3 -19 -12    1.73    6.37
  -5 -19 -12    3.02    6.89
  -5  19 -12    1.77    7.43
  -5 -19 -12    5.49    7.67
  -7 -19 -12   31.57   11.26
  -7 -19 -12   12.52    7.65
  16 -20 -12   -5.57    8.08
  14 -20 -12    3.39    7.76
  14  20 -12    6.57    6.98
  12 -20 -12   11.12    7.25
  12  20 -12    4.88    6.28
  10  20 -12   29.88    9.83
  10 -20 -12   24.30    9.16
   8 -20 -12   26.46    8.74
   8  20 -12   12.14    6.98
   6  20 -12   14.41    7.58
   6 -20 -12    5.75    6.09
   4 -20 -12   28.49    8.56
   4  20 -12   20.13    8.55
   2 -20 -12    7.59    5.93
   2  20 -12    5.40    7.43
   0  20 -12    1.06    6.28
   0 -20 -12    4.10    6.41
  -2 -20 -12    1.53    7.18
  -2  20 -12   -2.59    6.77
  -4 -20 -12    1.32    6.70
  -4  20 -12    1.12    7.19
  -4 -20 -12    5.39    6.96
  -6  20 -12    2.20    8.18
  -6 -20 -12   12.80    7.83
  -6 -20 -12   -3.31    7.86
  15 -21 -12   13.73    8.53
  13 -21 -12    7.28    8.13
  13  21 -12   15.10    7.48
  11  21 -12    7.98    7.25
  11 -21 -12   -4.64    6.10
   9 -21 -12    0.23    5.58
   9  21 -12    4.75    6.25
   7  21 -12    9.00    6.13
   7 -21 -12    4.47    6.25
   5 -21 -12   23.54    8.27
   5  21 -12    8.88    6.61
   3  21 -12    2.89    6.28
   3 -21 -12    2.58    6.24
   1 -21 -12   33.49   10.05
   1  21 -12   51.23   12.90
  -1 -21 -12   18.34    8.06
  -1  21 -12   17.68    9.39
  -3 -21 -12   31.01    9.75
  -3  21 -12   32.83   11.27
  -5 -21 -12   42.19   12.79
  -5  21 -12   35.05   11.64
  14  22 -12    4.25    8.01
  14 -22 -12    3.94    8.12
  12  22 -12   19.92    8.21
  12 -22 -12    8.33    7.34
  10 -22 -12    2.11    6.72
  10  22 -12    4.49    6.22
   8 -22 -12    3.53    6.32
   8  22 -12   -6.15    5.77
   6 -22 -12    3.86    6.39
   6  22 -12   -3.03    5.25
   4 -22 -12   -0.45    5.65
   4  22 -12    4.85    5.62
   2  22 -12   31.78   10.20
   2 -22 -12   10.96    6.89
   0 -22 -12    0.87    5.81
   0  22 -12    1.90    7.03
  -2 -22 -12    5.38    6.74
  -2  22 -12    4.08    8.68
  -4  22 -12   16.36   10.61
  -4 -22 -12   22.35   10.94
  13 -23 -12    3.30    8.24
  13  23 -12   14.23    8.32
  11  23 -12   14.13    8.80
  11 -23 -12   17.81    8.70
   9  23 -12   27.56    9.54
   9 -23 -12   24.24    9.30
   7  23 -12   14.58    9.94
   7 -23 -12   15.56    8.13
   5 -23 -12   12.62    7.37
   5  23 -12   27.88    9.86
   3 -23 -12   22.20    7.99
   3  23 -12   14.43    9.20
   1  23 -12   -2.07    6.25
   1 -23 -12    9.60    7.18
  -1  23 -12   -2.96    7.37
  -1 -23 -12    1.68    6.87
  -3 -23 -12    0.01    7.01
  -3  23 -12    2.43    8.46
  12 -24 -12    5.34    7.89
  12  24 -12    0.70    6.18
  10 -24 -12    2.50    6.93
  10  24 -12   -5.25    5.62
   8 -24 -12   -1.49    6.45
   8  24 -12    1.70    5.31
   6 -24 -12    3.37    6.26
   6  24 -12  -11.25    5.04
   4 -24 -12    2.57    6.03
   4  24 -12    3.64    7.85
   2  24 -12    0.35    7.49
   2 -24 -12   -4.20    5.93
   0  24 -12    4.90    8.89
   0 -24 -12    7.95    7.66
  -2  24 -12   -6.62    7.75
  -2 -24 -12   22.65    9.90
  11  25 -12    5.63    6.11
  11 -25 -12    2.28    8.61
   9  25 -12    2.32    6.45
   9 -25 -12    6.04    8.63
   7 -25 -12    7.43    8.12
   7  25 -12   -4.58    5.44
   5 -25 -12   27.76    9.59
   5  25 -12   11.32    7.72
   3 -25 -12    1.71    6.87
   3  25 -12   17.32    9.88
   1 -25 -12   -7.07    6.58
   1  25 -12    0.01    8.08
  -1  25 -12    7.51    9.95
  -1 -25 -12    9.59    8.80
  10  26 -12   11.65    6.69
  10 -26 -12   -2.23    8.68
   8  26 -12   -1.33    4.93
   8 -26 -12    0.15    7.80
   6 -26 -12   -5.85    6.73
   6  26 -12   -0.48    3.72
   4 -26 -12   -0.35    7.33
   4  26 -12    3.23    9.42
   2  26 -12    9.10   10.93
   2 -26 -12   10.54    8.17
   0  26 -12   17.64   12.48
   0 -26 -12   -1.15    8.72
   7 -27 -12    0.77    8.52
   7  27 -12    5.85    5.62
   5  27 -12   -5.10    5.22
   5 -27 -12    6.29    8.85
   3  27 -12   12.48   11.52
  22   0 -13   -8.61    4.46
  20   0 -13    4.92    5.66
  18   0 -13   -2.26    4.30
  16   0 -13   -1.69    3.01
  14   0 -13   -0.69    3.35
  12   0 -13    0.21    2.57
  10   0 -13   -3.06    2.43
   8   0 -13   -2.02    1.99
   6   0 -13   -0.25    2.88
   4   0 -13    2.79    3.42
   2   0 -13    5.99    4.41
   0   0 -13   -0.41    3.64
  -2   0 -13    0.83    4.05
  -4   0 -13    1.85    4.18
  -6   0 -13   -3.35    3.28
  23   1 -13  -10.09    4.64
  23  -1 -13    1.90    5.31
  21   1 -13    2.81    5.94
  21  -1 -13    9.37    6.92
  19   1 -13   34.92   10.40
  19  -1 -13   29.19    9.83
  17   1 -13   29.70    8.61
  17  -1 -13   22.81    7.58
  15  -1 -13   10.53    5.86
  15   1 -13    7.94    4.78
  13   1 -13   -1.71    3.11
  13  -1 -13    0.07    3.06
  11   1 -13   10.78    4.76
  11  -1 -13   18.87    5.72
   9  -1 -13   -1.20    1.99
   9   1 -13    1.47    3.42
   7  -1 -13    7.10    4.59
   7   1 -13   15.39    5.05
   5  -1 -13    4.60    3.40
   5   1 -13    1.51    2.76
   3  -1 -13   40.83    8.19
   3   1 -13   40.05    8.38
   1   1 -13  106.90   13.34
   1  -1 -13  101.89   13.34
  -1  -1 -13  473.27   29.69
  -1   1 -13  398.99   27.99
  -3  -1 -13   13.74    6.02
  -3   1 -13   22.12    7.42
  -5   1 -13   -6.01    3.72
  -5  -1 -13    5.52    5.24
  -7  -1 -13    4.93    5.36
  -7   1 -13   -1.11    5.00
  22   2 -13   -4.09    4.74
  22  -2 -13    2.51    4.96
  20   2 -13    0.71    5.42
  20  -2 -13   11.81    6.76
  18  -2 -13    3.21    5.24
  18   2 -13    1.44    4.83
  16   2 -13    4.67    4.53
  16  -2 -13    3.17    3.81
  14  -2 -13   70.59   11.95
  14   2 -13   62.71   11.63
  12  -2 -13  230.60   17.99
  12   2 -13  192.01   17.07
  10   2 -13  476.54   29.59
  10  -2 -13  510.69   29.91
   8   2 -13  168.93   13.83
   8  -2 -13  147.25   14.63
   6  -2 -13  457.26   26.71
   6   2 -13  386.07   25.02
   4   2 -13  107.46   12.64
   4  -2 -13  143.13   14.36
   2  -2 -13   14.97    5.53
   2   2 -13   15.75    5.29
   0   2 -13   39.61    8.31
   0  -2 -13   47.09    9.56
  -2   2 -13   15.67    6.33
  -2  -2 -13   36.39    9.09
  -4  -2 -13   15.41    6.41
  -4   2 -13    1.91    4.29
  -6   2 -13   69.88   12.61
  -6  -2 -13   51.18   11.63
  -8   2 -13   66.07   12.98
  21   3 -13   -6.22    5.00
  21  -3 -13    0.73    5.56
  19  -3 -13    1.35    4.94
  19   3 -13    6.53    6.86
  17  -3 -13    1.68    4.23
  17   3 -13    0.75    4.59
  15  -3 -13   14.47    6.15
  15   3 -13    6.33    5.41
  13   3 -13   41.16    8.90
  13  -3 -13   33.38    7.91
  11  -3 -13  132.12   14.46
  11   3 -13  117.03   13.62
   9  -3 -13   38.36    7.79
   9   3 -13   71.33   10.16
   7   3 -13  257.74   18.34
   7  -3 -13  256.66   18.66
   5   3 -13   78.90   10.64
   5  -3 -13   87.95   11.54
   3   3 -13    3.76    3.53
   3  -3 -13   11.55    4.15
   1  -3 -13   19.02    6.39
   1   3 -13    8.90    4.69
  -1  -3 -13   11.74    5.61
  -1   3 -13   14.73    6.18
  -3  -3 -13    0.03    3.33
  -3   3 -13    8.18    5.37
  -5   3 -13    3.41    4.95
  -5  -3 -13   -3.56    3.94
  -7   3 -13   49.85   11.06
  22  -4 -13   31.46   10.11
  22   4 -13   18.91   10.66
  20   4 -13   11.01    7.70
  20  -4 -13   18.85    7.96
  18  -4 -13    2.90    5.04
  18   4 -13    3.91    5.67
  16   4 -13    2.76    4.14
  16  -4 -13   12.77    5.79
  14   4 -13  123.32   15.50
  14  -4 -13  120.20   15.11
  12   4 -13  114.45   13.74
  12   4 -13  119.63   11.57
  12  -4 -13   99.12   13.20
  10  -4 -13   45.09    9.01
  10   4 -13   74.89   10.92
   8  -4 -13   23.98    5.91
   8   4 -13   40.93    7.54
   6  -4 -13   66.38   10.16
   6   4 -13   77.57   10.32
   4  -4 -13   82.72   11.63
   4   4 -13   60.85    9.56
   2  -4 -13  113.06   14.21
   2   4 -13  121.31   13.24
   0  -4 -13   64.79   11.57
   0   4 -13   63.93   10.18
  -2  -4 -13    5.68    5.20
  -2   4 -13   22.25    7.06
  -4  -4 -13   44.77    9.96
  -4   4 -13   29.65    7.82
  -6   4 -13   27.09    8.17
  -6  -4 -13   20.64    7.80
  -8   4 -13    6.12    5.72
  21   5 -13   22.07   10.41
  21  -5 -13   29.84    9.83
  19  -5 -13   35.46   10.65
  19   5 -13   26.62    8.66
  17  -5 -13   80.92   14.18
  17   5 -13  115.14   16.61
  15  -5 -13   22.29    7.30
  15   5 -13   31.58    8.37
  13   5 -13   16.98    6.53
  13  -5 -13   11.02    5.57
  11   5 -13   23.18    6.61
  11  -5 -13   26.88    6.67
   9  -5 -13   10.26    4.81
   9   5 -13   17.11    6.01
   7   5 -13   70.40    9.82
   7  -5 -13   79.70   10.98
   5   5 -13   59.58    9.17
   5  -5 -13   62.65   10.06
   3   5 -13   58.69    9.18
   3  -5 -13   44.16    8.58
   1  -5 -13   81.46   12.11
   1   5 -13   74.08   10.97
  -1   5 -13  121.67   14.06
  -1  -5 -13  133.73   16.34
  -3  -5 -13   23.16    6.75
  -3   5 -13   29.85    8.03
  -3  -5 -13   16.59    6.65
  -5  -5 -13   28.56    8.13
  -5  -5 -13   22.14    7.32
  -5   5 -13   14.03    6.62
  -7  -5 -13    4.47    6.64
  -7   5 -13   10.62    5.64
  -9   5 -13    3.14    4.99
  -9  -5 -13    9.28    8.78
  22  -6 -13    5.74    6.78
  22   6 -13   -8.32    8.13
  20   6 -13   11.57    7.69
  20  -6 -13   -1.39    5.63
  18  -6 -13   63.87   12.92
  18   6 -13   54.28   12.06
  16   6 -13   23.13    7.59
  16  -6 -13   17.83    6.63
  14  -6 -13    9.16    5.94
  14   6 -13   -1.45    3.56
  12  -6 -13   25.79    7.01
  12   6 -13   20.77    6.42
  12   6 -13   14.68    4.76
  10   6 -13   18.25    5.15
  10   6 -13   18.61    5.90
  10  -6 -13   22.90    6.43
   8  -6 -13   76.35   10.86
   8   6 -13   70.85   10.16
   6  -6 -13    8.97    4.64
   6   6 -13    1.28    3.05
   4   6 -13    8.18    4.01
   4  -6 -13    9.49    4.00
   2  -6 -13   12.04    5.60
   2   6 -13   15.60    5.34
   0  -6 -13   30.80    7.98
   0  -6 -13   34.53    7.41
   0   6 -13   60.16    9.75
  -2   6 -13    8.17    5.06
  -2  -6 -13    3.00    5.33
  -2  -6 -13    3.33    4.04
  -4  -6 -13    5.13    4.77
  -4   6 -13    0.08    4.48
  -4  -6 -13    2.93    4.70
  -6  -6 -13    3.75    6.00
  -6  -6 -13   -3.88    5.09
  -6   6 -13   10.49    5.93
  -8  -6 -13   24.94    9.40
  -8   6 -13   16.23    7.38
 -10   6 -13    4.51    5.85
 -10  -6 -13    4.88    8.59
  21  -7 -13   -3.31    5.73
  21   7 -13    5.26    7.11
  19   7 -13    6.05    5.93
  19  -7 -13    3.49    6.29
  17  -7 -13   12.33    6.00
  17   7 -13   27.37    8.97
  15   7 -13   10.69    5.46
  15  -7 -13    1.39    3.78
  13  -7 -13   13.43    5.57
  13   7 -13   15.09    5.97
  11   7 -13  202.27   16.96
  11   7 -13  213.18   15.94
  11  -7 -13  209.46   17.18
   9  -7 -13  232.42   18.02
   9   7 -13  256.15   18.49
   9   7 -13  248.62   18.26
   7  -7 -13  139.77   14.39
   7   7 -13  144.93   13.42
   5   7 -13   58.97    8.84
   5  -7 -13   42.75    8.44
   3  -7 -13   27.44    7.20
   3  -7 -13   21.33    6.06
   3   7 -13   18.97    5.56
   1   7 -13    8.63    4.11
   1  -7 -13    6.19    4.99
   1  -7 -13    4.79    4.24
  -1  -7 -13   -1.67    4.40
  -1   7 -13    5.90    3.82
  -1  -7 -13    1.84    3.90
  -3  -7 -13   21.87    7.62
  -3   7 -13   29.66    8.00
  -3  -7 -13   26.99    7.57
  -5  -7 -13   15.61    6.58
  -5  -7 -13   13.98    7.08
  -5   7 -13   19.07    6.82
  -7  -7 -13  108.25   14.98
  -7   7 -13  108.77   15.74
  -9  -7 -13   38.56   11.50
  -9   7 -13   67.50   12.98
 -11  -7 -13    6.09    8.86
  22   8 -13    1.43    8.71
  22  -8 -13    8.09    7.59
  20   8 -13   -3.74    5.96
  20  -8 -13   -5.10    5.14
  18  -8 -13   32.13   10.02
  18   8 -13   56.17   12.35
  16   8 -13   22.38    8.23
  16  -8 -13   32.36    8.69
  14  -8 -13   17.71    6.44
  14   8 -13   18.71    7.19
  12   8 -13   11.92    5.76
  12   8 -13    3.59    3.34
  12  -8 -13    5.87    5.25
  12  -8 -13    9.46    4.45
  10   8 -13    1.56    2.53
  10  -8 -13    0.81    4.07
  10   8 -13   -0.76    2.99
  10  -8 -13    3.94    3.73
   8   8 -13    1.34    3.28
   8  -8 -13    0.39    3.42
   8   8 -13    8.95    3.62
   8  -8 -13    8.33    4.20
   6  -8 -13    5.04    3.87
   6   8 -13   -0.16    2.56
   6  -8 -13    5.06    4.23
   6   8 -13   -1.26    3.12
   4  -8 -13   -0.51    4.10
   4  -8 -13    3.64    4.09
   4   8 -13    5.59    3.76
   2  -8 -13    8.79    5.10
   2   8 -13    8.01    3.84
   2  -8 -13    3.84    4.78
   0   8 -13   51.53    9.20
   0  -8 -13   59.41    9.47
   0  -8 -13   61.23   11.39
  -2  -8 -13   -2.82    4.04
  -2   8 -13    0.22    3.45
  -2  -8 -13    0.91    4.85
  -4   8 -13   25.79    8.22
  -4  -8 -13   27.69    8.32
  -4  -8 -13   35.06    9.13
  -6  -8 -13   11.21    7.00
  -6   8 -13    0.03    5.02
  -6  -8 -13   -0.89    4.60
  -8   8 -13    1.68    5.91
  -8  -8 -13   -6.93    5.74
 -10  -8 -13    2.27    7.99
  21   9 -13    4.86    8.98
  21  -9 -13   12.54    8.78
  19   9 -13   -1.18    5.84
  19  -9 -13    4.96    6.17
  17  -9 -13   11.28    6.22
  17   9 -13    4.47    6.19
  15  -9 -13    2.58    4.43
  15  -9 -13    3.11    5.03
  15   9 -13    0.57    4.15
  13  -9 -13   51.55    9.37
  13  -9 -13   38.22    8.68
  13   9 -13   20.23    6.78
  13   9 -13   29.25    6.32
  11  -9 -13   10.35    4.96
  11  -9 -13    8.46    5.39
  11   9 -13    0.29    3.00
  11   9 -13    4.73    4.20
   9   9 -13   23.85    6.55
   9  -9 -13    5.96    4.09
   9  -9 -13   15.93    6.20
   9   9 -13   15.76    5.10
   7   9 -13   70.23    9.61
   7  -9 -13   61.32    8.86
   7   9 -13   57.77   10.33
   7  -9 -13   36.67    8.05
   5  -9 -13   39.22    8.16
   5  -9 -13   25.14    6.71
   5   9 -13   31.88    6.47
   5   9 -13   24.79    6.75
   3   9 -13    8.87    4.05
   3  -9 -13   13.29    5.74
   3  -9 -13   12.99    5.73
   1   9 -13    1.35    3.05
   1  -9 -13    5.64    4.20
   1  -9 -13   10.26    6.03
  -1  -9 -13    4.43    4.36
  -1  -9 -13    4.51    5.73
  -1   9 -13    5.27    4.13
  -3  -9 -13   -4.30    4.53
  -3  -9 -13   -0.59    3.74
  -3   9 -13    5.69    4.90
  -5  -9 -13   11.25    6.79
  -5   9 -13    5.77    5.77
  -5  -9 -13    5.27    5.83
  -7  -9 -13    5.51    7.30
  -7  -9 -13    0.31    5.78
  -9  -9 -13    6.81    7.92
  20  10 -13   78.24   15.95
  20 -10 -13   66.20   13.70
  18  10 -13   90.32   16.36
  18 -10 -13  124.96   17.47
  18 -10 -13   92.15   15.81
  16 -10 -13   35.08    9.19
  16  10 -13   44.48   10.91
  16 -10 -13   40.16    9.57
  14 -10 -13   29.93    8.08
  14  10 -13   13.67    6.28
  14 -10 -13   43.74    9.28
  12  10 -13   14.77    6.25
  12 -10 -13   11.80    5.72
  12  10 -13   20.50    5.99
  12 -10 -13   11.39    5.00
  10  10 -13    3.14    4.25
  10 -10 -13    3.49    3.82
  10  10 -13    8.24    4.87
  10 -10 -13   -5.09    3.80
   8 -10 -13   -0.70    2.91
   8  10 -13   -0.06    3.22
   8 -10 -13    2.34    4.42
   8  10 -13    4.05    3.98
   6  10 -13    3.37    3.48
   6  10 -13    7.08    4.90
   6 -10 -13    6.95    4.84
   6 -10 -13    4.58    4.06
   4 -10 -13   86.71   10.89
   4 -10 -13   66.86   10.84
   4  10 -13   63.09    9.00
   4  10 -13   51.93   10.51
   2  10 -13  108.60   11.86
   2 -10 -13  138.36   15.95
   2  10 -13  122.29   15.78
   2 -10 -13  126.83   13.37
   0  10 -13   29.44    6.95
   0 -10 -13   41.45    8.55
   0 -10 -13   37.91    8.83
  -2  10 -13   65.08   10.64
  -2 -10 -13   61.20   10.18
  -2 -10 -13   82.50   13.29
  -4 -10 -13   16.43    7.22
  -4 -10 -13    7.30    5.71
  -4  10 -13    9.84    5.59
  -6 -10 -13   -0.29    5.69
  -6 -10 -13    5.00    5.71
  -8  10 -13   -2.43    8.91
  -8 -10 -13   10.73    7.62
 -10 -10 -13   -7.15    7.39
  21 -11 -13   -0.05    7.04
  21  11 -13    8.75    8.99
  19 -11 -13   -1.48    7.12
  19  11 -13   -1.75    6.42
  19 -11 -13   16.22    8.02
  17  11 -13   -0.79    4.81
  17 -11 -13    7.30    5.71
  17 -11 -13   -0.68    4.77
  15 -11 -13    2.16    3.98
  15  11 -13   -2.27    3.95
  15 -11 -13    7.88    5.65
  13  11 -13    5.22    5.16
  13 -11 -13   11.45    5.22
  13  11 -13   12.98    5.29
  13 -11 -13    6.80    4.20
  11 -11 -13   12.34    5.41
  11  11 -13   16.94    6.69
  11  11 -13   22.45    6.46
  11 -11 -13   15.76    6.40
   9  11 -13  179.04   17.41
   9 -11 -13  191.39   15.58
   9  11 -13  169.50   14.93
   9 -11 -13  198.22   16.52
   7 -11 -13  208.02   16.82
   7 -11 -13  230.33   17.25
   7  11 -13  214.24   18.12
   7  11 -13  199.91   15.86
   5 -11 -13    6.44    5.08
   5  11 -13   10.57    4.54
   5 -11 -13   26.16    6.65
   5  11 -13   13.84    5.95
   3  11 -13   23.86    7.74
   3 -11 -13   21.37    6.80
   3 -11 -13    6.48    4.84
   3  11 -13   22.41    5.57
   1  11 -13   16.22    6.72
   1  11 -13   12.06    4.73
   1 -11 -13   -1.68    4.13
   1 -11 -13    7.04    5.96
  -1  11 -13    0.15    3.55
  -1  11 -13   10.38    5.63
  -1 -11 -13    3.86    4.82
  -1 -11 -13   -1.12    3.82
  -3 -11 -13   -4.10    4.26
  -3  11 -13    9.47    6.58
  -3 -11 -13    1.24    5.40
  -5 -11 -13    7.36    6.74
  -5  11 -13   12.89    7.91
  -5 -11 -13   15.67    7.19
  -7  11 -13   19.25   10.39
  -7 -11 -13    4.86    7.88
  -7 -11 -13   27.99    9.22
  -9 -11 -13   36.53   11.38
  20  12 -13    3.99    7.72
  20 -12 -13   -3.88    6.64
  18 -12 -13   -3.30    6.61
  18  12 -13   -0.16    6.24
  18 -12 -13   -0.35    6.46
  16 -12 -13   -4.60    4.38
  16 -12 -13    3.71    5.62
  16  12 -13    1.51    5.61
  14 -12 -13    7.40    5.36
  14  12 -13    0.49    4.44
  14 -12 -13    4.65    5.86
  12 -12 -13   26.46    6.78
  12  12 -13   16.30    6.07
  12  12 -13   32.71    7.92
  12 -12 -13   23.12    6.86
  10  12 -13   54.62    9.77
  10 -12 -13   53.51   10.54
  10 -12 -13   48.49    9.13
  10  12 -13   30.93    8.09
   8 -12 -13   81.99   11.38
   8 -12 -13   78.96   11.65
   8  12 -13   86.62   12.99
   8  12 -13  112.10   11.93
   6 -12 -13   62.41   10.25
   6  12 -13   54.16   10.56
   6  12 -13   53.37    8.39
   6 -12 -13   70.52   10.89
   4 -12 -13    7.93    4.98
   4  12 -13    6.03    4.01
   4  12 -13   11.16    5.29
   4 -12 -13   15.27    6.42
   2 -12 -13   21.01    7.22
   2  12 -13   20.93    5.58
   2  12 -13   11.42    5.79
   2 -12 -13    5.61    4.89
   0  12 -13   10.15    5.97
   0 -12 -13    0.99    4.36
   0 -12 -13   -0.33    4.67
  -2  12 -13    1.79    4.64
  -2 -12 -13   -6.23    4.22
  -2 -12 -13   -4.47    3.77
  -4 -12 -13   13.31    7.25
  -4 -12 -13   22.46    7.93
  -4  12 -13   28.89    9.57
  -6  12 -13   29.42   11.45
  -6 -12 -13    5.31    6.31
  -6 -12 -13    9.85    7.64
  -8 -12 -13   27.18    9.91
 -10 -12 -13   41.71   12.73
  19 -13 -13    3.85    7.73
  19  13 -13    3.28    7.08
  17 -13 -13   17.97    7.27
  17  13 -13   27.82    9.79
  17 -13 -13   19.48    8.49
  15 -13 -13    9.05    6.78
  15 -13 -13    8.50    5.50
  15  13 -13    9.33    6.00
  13  13 -13   51.41   10.16
  13  13 -13   46.37    9.21
  13 -13 -13   27.14    7.27
  13 -13 -13   32.19    8.62
  11 -13 -13    8.68    4.61
  11  13 -13    2.52    4.00
  11  13 -13    0.60    4.45
  11 -13 -13    2.42    4.11
   9  13 -13  105.74   12.71
   9  13 -13   95.28   13.58
   9 -13 -13  139.47   14.73
   9 -13 -13  139.24   14.11
   7  13 -13   37.90    9.03
   7  13 -13   44.18    8.24
   7 -13 -13   49.90    9.99
   7 -13 -13   56.91    9.47
   5 -13 -13   57.29   10.54
   5  13 -13   53.82    8.53
   5 -13 -13   73.35   11.11
   5  13 -13   54.37   10.61
   3  13 -13   38.21    9.17
   3 -13 -13   39.42    8.69
   3 -13 -13   71.79   10.80
   1  13 -13   39.22   10.07
   1 -13 -13   31.70    8.33
   1 -13 -13   45.68    9.22
  -1  13 -13   24.56    8.68
  -1 -13 -13   11.77    5.86
  -1 -13 -13    6.05    5.94
  -3  13 -13    7.59    6.78
  -3 -13 -13   19.11    7.45
  -3 -13 -13   13.11    6.57
  -5 -13 -13   45.90   10.60
  -5 -13 -13   27.81    8.92
  -5  13 -13   16.70    9.09
  -7 -13 -13   31.25   10.21
  -7 -13 -13   35.70    9.42
  -7  13 -13   41.98   12.03
  -9 -13 -13   16.37   10.63
  20 -14 -13    4.05    9.53
  20  14 -13   20.71   11.65
  18  14 -13    6.90    7.11
  18 -14 -13   20.26    9.08
  16 -14 -13   55.61   12.29
  16  14 -13   49.15   12.27
  14  14 -13    9.30    5.96
  14 -14 -13   13.22    6.92
  14 -14 -13   20.01    6.48
  12 -14 -13   42.20    8.39
  12  14 -13   21.67    7.55
  12  14 -13   31.94    8.03
  12 -14 -13   40.84    9.50
  10  14 -13   11.85    5.89
  10  14 -13    4.12    4.40
  10 -14 -13    6.17    4.18
  10 -14 -13   19.78    6.50
   8 -14 -13    3.52    4.20
   8  14 -13    6.94    5.24
   8  14 -13    6.32    4.02
   8 -14 -13   14.68    5.79
   6 -14 -13   62.65   10.09
   6 -14 -13   58.05    9.90
   6  14 -13   50.10   10.63
   4 -14 -13    0.86    3.84
   4 -14 -13    7.04    5.05
   4  14 -13    7.76    4.70
   2  14 -13   41.12   10.02
   2 -14 -13   39.87    8.59
   2 -14 -13   42.13    9.68
   0  14 -13   11.97    6.57
   0 -14 -13   27.09    8.23
   0 -14 -13   17.26    6.58
  -2  14 -13   45.94   11.15
  -2 -14 -13   37.41    8.77
  -2 -14 -13   46.20   10.68
  -4 -14 -13   11.58    6.86
  -4 -14 -13    3.55    6.17
  -4  14 -13    0.87    6.93
  -6 -14 -13    3.42    5.55
  -6  14 -13    7.79    7.94
  -6 -14 -13   -4.43    6.61
  -8 -14 -13   13.47    7.99
  -8 -14 -13   11.93    8.43
  19 -15 -13    3.70    8.13
  19  15 -13   19.78   10.04
  17  15 -13   36.04   10.64
  17 -15 -13   31.08    9.59
  15 -15 -13   40.35   11.23
  15  15 -13   59.08   12.36
  13  15 -13   -3.44    4.73
  13 -15 -13   -1.00    5.02
  13  15 -13    0.43    5.08
  11 -15 -13    3.16    5.02
  11 -15 -13   16.53    6.61
  11  15 -13    2.07    5.78
  11  15 -13   12.48    6.56
   9 -15 -13   -2.47    4.29
   9 -15 -13    2.57    4.10
   9  15 -13    2.70    4.31
   7  15 -13   -1.89    4.23
   7 -15 -13    5.44    4.04
   7 -15 -13   -2.52    4.07
   5  15 -13    5.05    4.38
   5 -15 -13   -1.99    3.68
   5 -15 -13    2.84    4.23
   3 -15 -13   25.20    7.69
   3 -15 -13   38.33    8.94
   3  15 -13   13.38    6.28
   1  15 -13   44.01   10.58
   1 -15 -13   21.29    7.69
   1 -15 -13   63.07   11.23
  -1 -15 -13   65.58   11.49
  -1 -15 -13   63.11   11.69
  -1  15 -13   56.99   12.28
  -3 -15 -13    4.23    6.16
  -3  15 -13   29.77    9.52
  -3 -15 -13   20.55    7.92
  -5 -15 -13   -0.69    6.51
  -5  15 -13   -2.95    5.92
  -5 -15 -13    3.96    6.43
  -7 -15 -13    5.58    6.24
  -7 -15 -13    9.32    7.84
  -7  15 -13    7.01    9.08
  18  16 -13    3.24    6.95
  18 -16 -13   -1.27    7.57
  16  16 -13    3.60    7.45
  16 -16 -13   -1.85    5.69
  14  16 -13   23.68    8.20
  14 -16 -13   14.54    8.66
  12 -16 -13   45.66    9.96
  12  16 -13   29.15    8.01
  10  16 -13   98.05   14.41
  10 -16 -13  100.97   14.60
   8 -16 -13   19.89    6.99
   8  16 -13   27.66    8.24
   8 -16 -13   41.01    8.43
   6 -16 -13   41.70    8.75
   6  16 -13   39.15    9.42
   6 -16 -13   36.42    8.35
   4  16 -13   64.71   12.30
   4 -16 -13   70.48   11.44
   4 -16 -13   61.35   10.57
   2  16 -13   15.55    7.34
   2 -16 -13    8.15    5.17
   2 -16 -13   13.29    5.40
   0  16 -13    1.44    5.41
   0 -16 -13   -0.47    5.03
   0 -16 -13    5.66    4.46
  -2  16 -13    2.17    6.37
  -2 -16 -13    7.16    6.14
  -2 -16 -13   -0.21    4.78
  -4 -16 -13   -1.38    6.30
  -4  16 -13   13.33    7.72
  -4 -16 -13   11.22    6.88
  -6 -16 -13   14.67    8.00
  -6 -16 -13   19.91    8.01
  -6  16 -13   35.18   11.93
  -8 -16 -13   27.19   11.93
  -8 -16 -13   29.86    9.00
  17 -17 -13    5.98    8.23
  15 -17 -13    1.12    6.17
  13 -17 -13   12.08    7.68
  13  17 -13   11.52    7.50
  11  17 -13   -5.13    4.27
  11 -17 -13    3.83    6.00
   9 -17 -13    5.37    5.39
   9  17 -13    8.19    5.49
   7 -17 -13   15.44    5.53
   7 -17 -13   20.57    7.17
   7  17 -13   18.45    7.06
   5  17 -13    0.69    4.27
   5 -17 -13   -2.17    3.84
   5 -17 -13   -6.27    3.77
   3 -17 -13    5.21    5.59
   3 -17 -13    5.72    5.25
   3  17 -13    9.03    6.50
   1 -17 -13   11.65    6.76
   1 -17 -13   11.28    6.70
   1  17 -13   12.08    7.72
  -1 -17 -13   -0.05    5.25
  -1  17 -13    4.66    6.64
  -1 -17 -13    2.88    5.52
  -3 -17 -13   14.86    7.86
  -3 -17 -13   14.56    8.27
  -3  17 -13   10.30    8.21
  -5  17 -13   11.64    7.83
  -5 -17 -13    6.02    7.18
  -5 -17 -13   12.15    7.60
  -7 -17 -13   15.22   10.01
  -7 -17 -13    2.12    5.84
  -7  17 -13  -11.01    7.96
  18 -18 -13    1.90    7.63
  16 -18 -13   11.66    8.50
  14 -18 -13   -2.62    6.03
  14  18 -13    8.52    6.41
  12 -18 -13   44.39   11.22
  12  18 -13   45.65   10.83
  10 -18 -13   36.93    9.68
  10  18 -13   29.23    8.73
   8 -18 -13   25.23    8.38
   8  18 -13   26.68    8.23
   6 -18 -13   42.83    9.87
   6  18 -13   44.66   11.06
   4 -18 -13    2.34    5.19
   4 -18 -13    1.38    4.92
   4  18 -13   10.56    6.22
   2 -18 -13    3.51    5.14
   2  18 -13   -1.33    5.52
   2 -18 -13   -1.73    5.01
   0  18 -13   -3.89    5.40
   0 -18 -13    3.15    5.29
   0 -18 -13    4.40    6.20
  -2  18 -13   -3.39    6.23
  -2 -18 -13    7.06    7.04
  -2 -18 -13    8.29    7.07
  -4 -18 -13   19.14    8.22
  -4  18 -13   13.62    8.65
  -4 -18 -13    1.21    6.52
  -6 -18 -13    6.89    8.19
  -6  18 -13    2.46    8.20
  -6 -18 -13    5.66    6.57
  17 -19 -13   53.47   13.98
  15 -19 -13   20.39    9.24
  13 -19 -13   20.29    9.63
  13  19 -13   20.85    8.37
  11  19 -13    2.01    6.07
  11 -19 -13   -5.35    5.84
   9  19 -13    3.38    5.93
   9 -19 -13    6.69    6.35
   7  19 -13   14.29    7.11
   7 -19 -13   -4.64    4.45
   5  19 -13    9.51    6.53
   5 -19 -13   -1.40    4.59
   3  19 -13   31.65   10.41
   3 -19 -13   36.83    9.48
   1 -19 -13   15.12    7.29
   1  19 -13   31.25   10.16
  -1  19 -13   24.21    9.97
  -1 -19 -13   26.10    8.32
  -1 -19 -13   33.79    9.91
  -3  19 -13   17.31    8.67
  -3 -19 -13   11.33    7.59
  -3 -19 -13   23.08    9.07
  -5 -19 -13    8.54    7.09
  -5 -19 -13   10.99    7.92
  -5  19 -13    9.91    8.95
  16 -20 -13   -2.66    7.59
  14 -20 -13   -0.17    6.77
  14  20 -13    6.06    6.62
  12  20 -13   13.05    7.37
  12 -20 -13    8.79    7.77
  10  20 -13    1.83    6.10
  10 -20 -13   10.68    7.24
   8  20 -13   44.43   11.30
   8 -20 -13   60.68   12.13
   6 -20 -13   17.40    7.27
   6  20 -13    8.61    6.21
   4 -20 -13    2.80    5.63
   4  20 -13   11.03    6.90
   2  20 -13   61.26   13.71
   2 -20 -13   47.33   11.64
   0 -20 -13   -0.32    5.49
   0  20 -13    7.52    7.35
  -2  20 -13    7.95    7.32
  -2 -20 -13   -5.26    6.64
  -4 -20 -13    0.37    7.59
  -4 -20 -13    8.23    7.25
  -4  20 -13    9.60    8.35
  15 -21 -13    3.80    8.73
  13 -21 -13   -2.36    6.83
  13  21 -13   -1.89    6.45
  11 -21 -13   19.08    9.08
  11  21 -13    6.19    6.90
   9  21 -13   22.56    9.21
   9 -21 -13   22.74    8.63
   7  21 -13   38.36   11.24
   7 -21 -13   13.98    8.37
   5 -21 -13    2.48    6.08
   5  21 -13   -2.58    5.95
   3  21 -13   13.50    8.36
   3 -21 -13   -0.37    5.77
   1 -21 -13    3.19    6.37
   1  21 -13    3.11    8.03
  -1 -21 -13   -2.95    6.27
  -1  21 -13   21.73    9.87
  -3 -21 -13    5.04    7.78
  -3  21 -13   15.25    9.55
  -5 -21 -13    8.05    9.82
  -5  21 -13    5.19    9.58
  14 -22 -13   -1.51    8.35
  14  22 -13   -6.54    5.93
  12 -22 -13   19.03    8.53
  12  22 -13   33.64   10.42
  10 -22 -13   14.83    8.45
  10  22 -13    6.17    7.92
   8  22 -13    8.05    6.81
   8 -22 -13    8.30    6.58
   6  22 -13    1.40    6.20
   6 -22 -13   -0.13    5.98
   4 -22 -13    2.96    5.44
   4  22 -13    4.42    6.48
   2  22 -13    7.90    7.73
   2 -22 -13   -4.14    5.83
   0  22 -13   -6.01    7.27
   0 -22 -13    7.18    6.45
  -2 -22 -13    9.43    8.06
  -2  22 -13    8.94    9.20
  -4 -22 -13   12.18    8.89
  -4  22 -13    5.60   10.43
  13 -23 -13   -4.00    7.42
  13  23 -13    4.26    6.63
  11 -23 -13    3.78    6.25
  11  23 -13    5.89    5.83
   9  23 -13   -5.14    6.09
   9 -23 -13   -7.70    5.75
   7  23 -13    0.13    6.11
   7 -23 -13   -2.54    6.01
   5 -23 -13   13.08    6.98
   5  23 -13   10.05    7.54
   3  23 -13    9.47    8.95
   3 -23 -13   15.51    8.12
   1  23 -13   11.67    8.76
   1 -23 -13   11.87    8.04
  -1  23 -13   -0.19    8.54
  -1 -23 -13   -2.29    6.57
  -3  23 -13   19.58   11.94
  -3 -23 -13   20.11   11.18
  12 -24 -13    4.90    9.05
  12  24 -13   -3.06    5.91
  10 -24 -13    4.79    8.33
  10  24 -13   12.62    7.19
   8 -24 -13    8.56    7.01
   8  24 -13    8.04    7.20
   6 -24 -13   15.21    8.10
   6  24 -13   -6.08    5.14
   4  24 -13   33.72   11.99
   4 -24 -13   20.80    9.10
   2  24 -13    0.84    8.64
   2 -24 -13   -7.54    6.33
   0  24 -13   22.44   11.68
   0 -24 -13   30.40   10.32
  11  25 -13   20.71    8.35
  11 -25 -13    1.85    9.38
   9 -25 -13    7.66    8.26
   9  25 -13    4.04    6.89
   7  25 -13   -9.86    4.59
   7 -25 -13    3.28    7.95
   5 -25 -13    7.21    7.78
   5  25 -13    0.95    5.09
   3 -25 -13    0.39    7.56
   3  25 -13    1.43    9.75
   1  25 -13    0.10    8.90
   1 -25 -13   -7.01    7.52
   8  26 -13    1.45    5.02
   8 -26 -13    2.73    7.69
   6 -26 -13   -0.12    8.11
   6  26 -13    5.05    5.67
   4 -26 -13   -0.18    6.96
   4  26 -13    6.88    9.98
  22   0 -14    1.45    4.63
  20   0 -14   -0.98    5.31
  18   0 -14    4.34    4.94
  16   0 -14    3.04    3.45
  14   0 -14  234.92   19.82
  12   0 -14  266.85   20.67
  10   0 -14  262.58   19.79
   8   0 -14   92.15   12.09
   6   0 -14  127.55   14.22
   4   0 -14   46.17    9.12
   2   0 -14   54.13   10.17
   0   0 -14   -1.24    3.24
  -2   0 -14    8.02    5.51
  -4   0 -14  178.90   20.31
  -6   0 -14  136.22   18.39
  -8   0 -14   37.59   10.34
 -10   0 -14   32.88   10.38
  21  -1 -14   19.02    8.43
  21   1 -14   11.65    6.93
  19  -1 -14   21.15    8.88
  19   1 -14   33.51    9.83
  17   1 -14   77.01   13.44
  17  -1 -14   40.92   10.21
  15   1 -14   68.84   12.39
  15  -1 -14   65.06   12.04
  13   1 -14  108.21   14.09
  13  -1 -14   83.32   13.05
  11  -1 -14   11.64    5.24
  11   1 -14    8.96    5.33
   9  -1 -14   13.12    5.53
   9   1 -14   12.07    4.94
   7  -1 -14    3.84    3.87
   7   1 -14   -1.39    3.01
   5   1 -14   33.47    7.31
   5  -1 -14   26.77    7.02
   3  -1 -14   41.90    8.78
   3   1 -14   34.49    7.91
   1   1 -14   43.95    9.77
   1  -1 -14   60.47   11.07
  -1   1 -14   95.09   14.12
  -1  -1 -14  109.29   14.99
  -3  -1 -14   -0.78    4.35
  -3   1 -14   -0.77    3.84
  -5   1 -14    0.89    4.83
  -5  -1 -14    1.90    4.94
  -7   1 -14   12.24    6.38
  -7  -1 -14   17.41    8.07
  -9   1 -14   -0.48    5.45
  -9  -1 -14    3.64    6.31
  22   2 -14   -7.78    3.82
  22  -2 -14   -6.76    5.02
  20  -2 -14   -2.46    4.87
  20   2 -14    4.71    5.51
  18   2 -14    0.25    5.36
  18  -2 -14   -3.29    4.60
  16   2 -14   11.10    5.32
  16  -2 -14   11.98    5.39
  14   2 -14   13.25    6.00
  14  -2 -14   17.88    6.42
  12   2 -14   -0.01    3.46
  12  -2 -14   -2.82    2.93
  10   2 -14    8.69    4.60
  10  -2 -14    3.57    3.70
   8  -2 -14   31.32    7.25
   8   2 -14   55.58    9.50
   6   2 -14    5.52    4.33
   6  -2 -14    2.80    3.69
   4   2 -14    7.27    4.45
   4  -2 -14    5.57    4.07
   2   2 -14    5.87    4.31
   2  -2 -14    3.22    4.57
   0  -2 -14    3.34    4.91
   0   2 -14   10.67    5.22
  -2  -2 -14    0.32    4.36
  -2   2 -14   -0.56    4.72
  -4   2 -14   37.66    9.11
  -4  -2 -14   17.38    7.41
  -6  -2 -14    6.59    6.40
  -6   2 -14    0.33    4.97
  -8   2 -14    0.26    5.07
  -8  -2 -14    0.34    4.98
 -10   2 -14    1.66    6.22
  21  -3 -14   45.89   12.42
  21   3 -14   15.62    8.31
  19   3 -14   37.64   11.05
  19  -3 -14   31.45    9.85
  17  -3 -14   55.90   11.96
  17   3 -14   40.99   10.65
  15   3 -14   24.21    7.67
  15  -3 -14   11.56    5.67
  13   3 -14    0.13    3.77
  13  -3 -14    1.14    3.13
  11   3 -14   12.79    5.77
  11  -3 -14    4.02    3.64
   9   3 -14    5.62    3.86
   9  -3 -14    2.39    3.54
   7   3 -14   45.78    8.58
   7  -3 -14   37.56    7.83
   5  -3 -14   14.20    5.29
   5   3 -14   10.11    4.78
   3  -3 -14  332.03   22.56
   3   3 -14  248.18   19.79
   1   3 -14   69.03   11.13
   1  -3 -14   59.67   10.50
  -1  -3 -14   64.59   12.01
  -1   3 -14   51.12   10.33
  -3  -3 -14   18.62    7.29
  -3   3 -14   24.41    7.76
  -5   3 -14    9.57    6.19
  -5  -3 -14    4.86    4.78
  -7   3 -14    2.40    5.48
  -7  -3 -14    1.27    5.59
  -9  -3 -14    1.51    6.39
  -9   3 -14    7.51    6.60
  22   4 -14    6.91    9.08
  22  -4 -14    2.53    5.07
  20  -4 -14   10.85    7.21
  20   4 -14    8.70    7.31
  18  -4 -14    2.35    5.00
  18   4 -14    3.76    4.50
  16   4 -14    2.60    4.51
  16  -4 -14    0.40    3.77
  14  -4 -14   -0.15    3.73
  14   4 -14   -5.02    3.74
  12   4 -14  118.83   12.18
  12   4 -14  118.87   14.40
  12  -4 -14  110.03   14.42
  10  -4 -14   85.56   11.97
  10   4 -14   87.39   12.26
   8   4 -14   31.81    7.14
   8  -4 -14   25.86    6.81
   6  -4 -14    3.76    3.89
   6   4 -14    5.27    3.73
   4   4 -14    8.78    5.16
   4  -4 -14    7.99    4.23
   2  -4 -14   80.76   12.96
   2   4 -14   92.59   12.36
   0  -4 -14   42.32    9.24
   0   4 -14   48.54    9.90
  -2  -4 -14   -0.73    4.50
  -2   4 -14    6.65    4.87
  -4  -4 -14   -1.58    4.40
  -4   4 -14    5.32    4.99
  -6   4 -14   59.57   11.97
  -6  -4 -14   45.68   11.08
  -8  -4 -14   23.26    8.90
  -8   4 -14   31.73    9.47
 -10   4 -14   -5.83    5.64
  21   5 -14    9.28    8.22
  21  -5 -14    4.22    6.36
  19   5 -14   -4.23    4.45
  19  -5 -14   -4.54    5.19
  17   5 -14    4.88    5.58
  17  -5 -14   12.35    6.48
  15  -5 -14   73.86   12.62
  15   5 -14   70.32   12.92
  13   5 -14    1.16    4.11
  13  -5 -14    1.74    3.47
  11   5 -14  266.67   19.91
  11  -5 -14  256.10   19.76
  11   5 -14  250.62   18.35
   9  -5 -14   88.51   12.36
   9   5 -14  117.13   12.90
   7  -5 -14   10.41    5.09
   7   5 -14   27.62    6.95
   5  -5 -14    6.16    4.53
   5   5 -14   17.34    5.44
   3  -5 -14   24.93    7.51
   3   5 -14   18.77    6.21
   1  -5 -14   37.01    8.65
   1   5 -14   35.25    7.99
  -1  -5 -14   14.77    6.60
  -1   5 -14   13.91    5.73
  -3   5 -14   29.68    8.62
  -3  -5 -14   17.66    7.28
  -5  -5 -14   39.38   10.75
  -5   5 -14   46.13   10.36
  -7   5 -14   82.27   14.70
  -7  -5 -14  115.12   17.65
  -9  -5 -14    8.69    6.65
  -9   5 -14   12.89    7.11
  22  -6 -14   31.29   10.82
  22   6 -14   49.43   15.05
  20   6 -14   -1.23    5.50
  20  -6 -14    1.18    6.06
  18   6 -14   19.24    7.86
  18  -6 -14   20.63    8.05
  16   6 -14    1.78    4.77
  16  -6 -14    8.18    5.43
  14  -6 -14   88.52   13.30
  14   6 -14   84.95   13.59
  12  -6 -14   76.07   12.12
  12   6 -14   56.18   10.61
  10  -6 -14   35.76    7.95
  10   6 -14   40.21    8.51
  10   6 -14   40.14    7.45
   8   6 -14   78.05   10.70
   8  -6 -14   80.99   11.70
   6   6 -14   29.24    6.50
   6  -6 -14   19.56    6.04
   4  -6 -14  131.68   15.13
   4   6 -14  116.24   12.85
   2   6 -14  129.46   14.09
   2  -6 -14  148.82   16.88
   0   6 -14    4.11    4.49
   0  -6 -14    5.69    4.69
  -2   6 -14    2.67    4.27
  -2  -6 -14    3.40    3.89
  -4   6 -14    4.18    5.33
  -4  -6 -14    4.43    6.08
  -6  -6 -14    4.08    5.93
  -6   6 -14    1.99    5.10
  -8   6 -14    8.26    6.67
  -8  -6 -14    5.24    6.42
 -10   6 -14    5.70    7.21
  21   7 -14    2.94    7.61
  21  -7 -14    5.91    6.00
  19  -7 -14   28.72    9.86
  19   7 -14   24.36    9.20
  17  -7 -14   33.60    9.14
  17   7 -14   14.03    7.59
  15  -7 -14    0.58    3.63
  15   7 -14    2.09    4.25
  13   7 -14    4.58    4.66
  13  -7 -14    3.08    3.58
  11   7 -14   -3.87    3.05
  11   7 -14    2.54    3.21
  11  -7 -14    2.99    3.52
   9   7 -14    7.06    4.65
   9   7 -14   18.98    6.06
   9  -7 -14   10.67    5.27
   7  -7 -14   41.60    8.42
   7   7 -14   27.24    6.62
   5   7 -14    5.43    4.33
   5  -7 -14    6.30    4.28
   3  -7 -14   38.36    8.50
   3   7 -14   19.01    5.78
   1  -7 -14    7.41    4.94
   1   7 -14    5.47    4.53
  -1   7 -14   42.32    9.00
  -1  -7 -14   55.15   11.44
  -3  -7 -14    2.20    4.44
  -3   7 -14    8.84    5.08
  -5   7 -14   -3.07    4.47
  -5  -7 -14    6.40    6.04
  -7   7 -14   -3.78    5.31
  -7  -7 -14    8.19    6.24
  -9  -7 -14    4.10    6.55
  -9   7 -14    4.08    6.07
  22   8 -14   17.12   11.02
  22  -8 -14   31.42   11.20
  20  -8 -14   31.85   10.99
  20   8 -14   36.31   11.89
  18   8 -14   75.57   15.17
  18  -8 -14  111.25   16.78
  16  -8 -14   84.42   13.79
  16   8 -14   67.05   12.97
  14  -8 -14    0.26    3.96
  14   8 -14    3.71    4.32
  12   8 -14    2.73    3.61
  12   8 -14   -0.86    3.67
  12  -8 -14    2.61    3.78
  10  -8 -14    4.31    3.77
  10   8 -14    8.64    5.09
  10   8 -14    3.43    4.25
   8   8 -14   23.60    6.10
   8  -8 -14   16.49    6.04
   8   8 -14   17.55    6.10
   6  -8 -14  106.78   13.89
   6   8 -14  122.58   12.75
   4  -8 -14  209.44   17.36
   4   8 -14  168.26   14.89
   2   8 -14  167.94   14.40
   2  -8 -14  137.18   17.01
   0  -8 -14  116.46   16.05
   0   8 -14  108.47   13.15
  -2   8 -14   30.02    7.51
  -2  -8 -14   19.36    7.22
  -4   8 -14    8.17    5.85
  -4  -8 -14   -3.31    4.37
  -6   8 -14   -4.00    4.46
  -6  -8 -14    3.29    5.85
  -8  -8 -14   -3.32    4.56
  21   9 -14   -3.51    7.80
  21  -9 -14    3.57    6.80
  19  -9 -14    5.53    6.70
  19   9 -14    4.83    6.24
  17   9 -14    2.74    6.11
  17  -9 -14    4.40    5.28
  15  -9 -14   10.00    5.25
  15   9 -14    2.00    4.88
  13  -9 -14   42.77    8.93
  13   9 -14   49.66    9.99
  11   9 -14  183.66   16.70
  11   9 -14  164.12   16.54
  11  -9 -14  176.03   17.06
   9   9 -14  271.24   20.81
   9   9 -14  254.32   19.57
   9  -9 -14  298.16   21.09
   7   9 -14   29.93    7.57
   7  -9 -14   43.69    9.08
   7   9 -14   16.13    5.39
   5   9 -14   35.57    7.27
   5  -9 -14   38.83    8.21
   5   9 -14   25.44    7.49
   3   9 -14   16.59    5.52
   3  -9 -14    8.22    5.28
   1   9 -14    1.75    3.76
   1  -9 -14   -0.66    3.20
  -1  -9 -14    3.19    4.72
  -1   9 -14    2.96    4.40
  -3   9 -14   25.01    7.53
  -3  -9 -14   31.94    9.19
  -5  -9 -14   61.22   13.53
  -5   9 -14   53.14   11.21
  -7  -9 -14   20.07    7.84
  -9  -9 -14   -1.16    3.93
  20 -10 -14   16.34    7.85
  20  10 -14    4.30    7.43
  18  10 -14    9.61    7.11
  18 -10 -14   13.15    7.47
  16 -10 -14    6.41    5.63
  16  10 -14    2.04    4.98
  14 -10 -14    1.06    3.51
  14  10 -14    3.82    4.64
  12 -10 -14   26.50    7.62
  12  10 -14   33.05    7.66
  12  10 -14   43.90    9.34
  10  10 -14   -1.41    3.81
  10  10 -14    7.33    4.75
  10 -10 -14    1.39    3.34
   8 -10 -14   21.36    6.32
   8  10 -14   21.61    6.26
   8  10 -14   24.94    7.58
   6 -10 -14    7.48    5.05
   6  10 -14    6.93    4.39
   6  10 -14   -0.34    3.18
   4 -10 -14   29.83    7.34
   4  10 -14   11.05    5.71
   4  10 -14   21.65    5.76
   2 -10 -14    2.31    4.80
   2  10 -14    1.42    3.95
   0 -10 -14   46.89   10.25
   0  10 -14   35.49    8.07
  -2 -10 -14   11.79    5.95
  -2  10 -14    5.81    5.54
  -4 -10 -14    4.73    5.38
  -6 -10 -14   -0.93    5.13
  -8 -10 -14    2.92    5.19
  21  11 -14   -2.03    7.52
  21 -11 -14   -0.48    6.36
  19  11 -14   16.43    8.23
  19 -11 -14   15.97    7.61
  17  11 -14    1.98    6.00
  17 -11 -14   10.01    6.18
  15  11 -14   14.95    7.35
  15 -11 -14   40.22    9.38
  13  11 -14   -5.51    3.98
  13  11 -14   -2.74    4.02
  13 -11 -14    3.51    4.12
  11  11 -14    5.86    5.09
  11 -11 -14   17.66    6.15
  11  11 -14    5.24    4.91
   9  11 -14    8.49    4.59
   9  11 -14   21.96    6.75
   9 -11 -14    4.53    4.79
   7  11 -14   10.28    5.49
   7 -11 -14   16.76    6.05
   7  11 -14   19.03    5.49
   5 -11 -14   19.35    6.16
   5  11 -14   20.10    5.78
   5  11 -14   24.57    7.60
   3  11 -14   -0.46    3.66
   3 -11 -14   -1.96    3.66
   3  11 -14    8.19    4.36
   1  11 -14    7.81    6.44
   1 -11 -14    1.57    4.64
   1  11 -14    7.81    4.78
   1 -11 -14    8.98    5.94
  -1 -11 -14    8.68    6.00
  -1 -11 -14   25.13    8.28
  -1  11 -14   20.76    7.74
  -3 -11 -14   14.31    7.28
  -3  11 -14   14.21    7.82
  -3 -11 -14   15.00    6.62
  -5  11 -14   20.42    9.78
  -5 -11 -14   14.90    7.99
  -5 -11 -14   26.14    8.89
  -7  11 -14   36.46   13.35
  -7 -11 -14   26.02   10.05
  -7 -11 -14   37.73   10.55
  -9 -11 -14    4.97    4.94
  20  12 -14   73.38   16.24
  20 -12 -14   62.92   13.27
  18  12 -14   42.14   11.43
  18 -12 -14   21.59    8.53
  16 -12 -14    8.88    5.67
  16  12 -14    2.89    5.64
  14 -12 -14    2.44    5.05
  14  12 -14    2.91    4.94
  12 -12 -14    6.83    6.14
  12  12 -14    7.90    4.70
  12  12 -14    2.95    4.52
  10  12 -14    3.60    4.70
  10  12 -14    1.75    3.82
  10 -12 -14    0.84    3.69
   8  12 -14   -0.47    4.04
   8 -12 -14   -7.07    2.58
   8  12 -14   -0.13    3.48
   6 -12 -14   30.40    7.80
   6  12 -14   43.60    8.29
   6  12 -14   54.56   10.62
   6 -12 -14   32.20    8.38
   4  12 -14  105.75   15.21
   4 -12 -14   85.37   12.87
   4 -12 -14   94.23   12.65
   4  12 -14   82.13   10.26
   2 -12 -14   73.97   12.33
   2 -12 -14   78.98   11.44
   2  12 -14   63.86   12.49
   0 -12 -14   16.48    6.41
   0 -12 -14   23.78    7.03
   0  12 -14   11.76    6.47
  -2 -12 -14   21.19    7.25
  -2 -12 -14   19.51    7.73
  -2  12 -14   -1.13    5.55
  -4  12 -14   -0.42    7.13
  -4 -12 -14   -9.43    5.08
  -4 -12 -14   -0.33    5.51
  -6 -12 -14    4.51    6.01
  -6  12 -14    6.39    8.58
  -6 -12 -14   -2.65    6.89
  -8 -12 -14   -4.57    4.29
  -8 -12 -14   -1.11    7.69
  19  13 -14   20.62    9.29
  17 -13 -14   14.95    7.88
  17  13 -14   13.04    7.36
  15  13 -14    3.65    5.51
  15 -13 -14   -4.25    4.15
  13  13 -14    1.68    4.76
  13  13 -14    9.64    5.30
  13 -13 -14    8.58    4.99
  11 -13 -14    4.73    4.58
  11 -13 -14   -4.33    4.10
  11  13 -14   -1.38    4.02
  11  13 -14   -0.96    4.26
   9  13 -14    4.21    4.63
   9 -13 -14    1.73    3.79
   9 -13 -14    3.88    4.36
   9  13 -14    4.15    4.24
   7 -13 -14   -3.45    5.56
   7  13 -14    4.26    4.18
   7 -13 -14   -0.47    3.86
   7  13 -14    0.57    4.28
   5  13 -14  125.11   16.07
   5 -13 -14   81.83   12.67
   5 -13 -14   71.23   11.22
   3  13 -14   15.08    6.13
   3 -13 -14   10.54    5.52
   3 -13 -14   19.80    6.23
   1 -13 -14   23.75    7.72
   1  13 -14   38.10    9.96
   1 -13 -14   30.76    7.84
  -1 -13 -14   22.40    7.40
  -1  13 -14    4.08    6.29
  -1 -13 -14    7.66    5.67
  -3 -13 -14   16.23    7.12
  -3  13 -14   15.00    8.01
  -3 -13 -14   17.31    7.63
  -5 -13 -14   21.69    8.01
  -5 -13 -14   12.84    8.22
  -5  13 -14   20.29    9.58
  -7 -13 -14   -4.58    7.52
  -7 -13 -14    6.63    6.83
  -7  13 -14    4.13    9.94
  20  14 -14   10.81    9.27
  18  14 -14    8.66    7.62
  16  14 -14   10.93    7.61
  14 -14 -14   79.56   12.23
  14  14 -14   43.38   10.01
  12  14 -14   71.75   12.19
  12 -14 -14   52.84   11.11
  12 -14 -14   48.90   10.06
  12  14 -14   54.74   10.56
  10  14 -14   39.37    8.91
  10 -14 -14   56.18   10.52
  10  14 -14   38.20    9.11
  10 -14 -14   27.87    7.41
   8  14 -14   29.18    8.13
   8 -14 -14   67.76   10.61
   8  14 -14   29.85    7.11
   8 -14 -14   43.13    8.94
   6 -14 -14    9.91    5.52
   6  14 -14   13.16    6.29
   6 -14 -14    8.36    4.88
   4  14 -14   -5.50    3.63
   4 -14 -14    5.98    5.29
   4 -14 -14    6.41    4.85
   2 -14 -14    4.87    5.48
   2 -14 -14   11.32    5.71
   2  14 -14    1.50    5.16
   0 -14 -14   -0.08    5.46
   0 -14 -14    6.61    5.67
   0  14 -14    6.19    6.46
  -2 -14 -14   15.81    7.30
  -2  14 -14   17.41    8.35
  -2 -14 -14    6.85    6.08
  -4  14 -14   92.99   16.83
  -4 -14 -14   81.39   15.52
  -4 -14 -14   95.17   15.21
  -6 -14 -14    2.86    5.88
  -6  14 -14    4.85    8.69
  -6 -14 -14    1.63    6.78
  -8 -14 -14    7.98   10.02
  -8 -14 -14   -0.02    4.37
  19  15 -14    0.65    7.69
  17  15 -14   14.06    8.54
  15  15 -14   14.33    7.42
  15 -15 -14   18.08    7.99
  13 -15 -14   32.61    8.58
  13 -15 -14   29.90    9.80
  13  15 -14   23.24    7.51
  13  15 -14   21.05    7.96
  11  15 -14   18.50    7.17
  11  15 -14   16.63    6.62
  11 -15 -14   23.27    7.63
  11 -15 -14    8.10    5.00
   9  15 -14   26.08    8.40
   9 -15 -14   40.02    9.06
   9 -15 -14   30.79    7.42
   7  15 -14   -6.82    3.23
   7 -15 -14    8.12    5.71
   7 -15 -14    5.34    4.19
   5 -15 -14   10.93    5.99
   5  15 -14    9.91    6.24
   5 -15 -14   16.70    6.51
   3 -15 -14    8.05    5.39
   3  15 -14    3.07    5.96
   3 -15 -14    1.80    4.86
   1 -15 -14    1.43    5.19
   1  15 -14    0.01    6.25
   1 -15 -14   10.65    6.20
  -1 -15 -14    0.35    5.31
  -1  15 -14    0.36    6.33
  -1 -15 -14   10.46    6.50
  -3 -15 -14    2.22    6.30
  -3 -15 -14    8.98    6.60
  -3  15 -14    4.59    7.44
  -5  15 -14    6.45    7.76
  -5 -15 -14    0.65    7.07
  -5 -15 -14   -3.09    6.73
  -7  15 -14   20.28   11.32
  -7 -15 -14    1.01    6.45
  -7 -15 -14    4.11    8.27
  18  16 -14   12.54    8.81
  16 -16 -14   -0.53    7.48
  16  16 -14   18.33    8.38
  14 -16 -14   11.06    6.86
  12  16 -14   13.21    6.47
  12 -16 -14   18.95    7.17
  10 -16 -14    6.25    5.36
  10 -16 -14    7.50    5.76
  10  16 -14   -4.54    4.15
   8 -16 -14    0.07    4.28
   8  16 -14    1.95    4.61
   8 -16 -14    0.80    4.83
   6 -16 -14   23.92    7.30
   6 -16 -14   22.05    6.81
   6  16 -14    9.13    6.07
   4 -16 -14   20.47    6.95
   4 -16 -14   13.25    6.57
   4  16 -14   13.27    6.50
   2  16 -14   17.40    8.80
   2 -16 -14   31.13    8.13
   2 -16 -14   19.31    7.81
   0 -16 -14   13.57    6.62
   0  16 -14   -3.08    5.96
   0 -16 -14    5.76    5.77
  -2 -16 -14    5.40    6.20
  -2 -16 -14    3.37    6.83
  -2  16 -14   -1.47    6.82
  -4  16 -14   18.76    9.13
  -4 -16 -14   -1.61    5.81
  -4 -16 -14  -13.90    5.23
  -6 -16 -14    3.82    6.33
  -6  16 -14   19.19   10.48
  -6 -16 -14    9.23    9.05
  17 -17 -14   13.42    8.62
  15 -17 -14   18.04    8.32
  13  17 -14    7.49    6.54
  13 -17 -14   -0.11    6.38
  11 -17 -14    3.90    5.73
  11  17 -14    3.64    5.20
   9 -17 -14    2.07    5.13
   9  17 -14    1.26    5.31
   7 -17 -14   10.51    6.14
   7  17 -14    4.55    6.00
   7 -17 -14    0.72    4.69
   5 -17 -14    1.54    4.29
   5 -17 -14    7.52    5.07
   5  17 -14    0.51    4.47
   3 -17 -14   62.09   11.81
   3 -17 -14   59.96   11.23
   3  17 -14   59.99   12.84
   1 -17 -14   74.25   12.77
   1  17 -14   85.85   15.63
   1 -17 -14   69.53   12.81
  -1 -17 -14   33.57    9.38
  -1 -17 -14   40.75   10.66
  -1  17 -14   17.18    9.06
  -3 -17 -14   -5.36    5.83
  -3  17 -14   -3.55    6.53
  -3 -17 -14   22.00    8.53
  -5  17 -14   -0.88    8.54
  -5 -17 -14   12.47    7.90
  -5 -17 -14    5.05    7.58
  16 -18 -14   38.94   11.02
  14 -18 -14   13.83    8.31
  14  18 -14   21.97    8.97
  12  18 -14   55.45   12.32
  12 -18 -14   41.11   11.10
  10 -18 -14  181.24   20.05
  10  18 -14  150.28   19.24
   8 -18 -14   22.63    7.68
   8  18 -14   36.35   10.36
   6 -18 -14   28.11    8.12
   6  18 -14   29.03    9.65
   4 -18 -14    9.47    6.10
   4 -18 -14   29.37    8.52
   4  18 -14    4.47    6.03
   2 -18 -14    2.98    5.05
   2 -18 -14    2.20    6.18
   2  18 -14   10.61    7.18
   0 -18 -14    5.41    5.86
   0  18 -14    0.44    6.79
   0 -18 -14   -3.88    5.43
  -2 -18 -14    4.27    6.88
  -2 -18 -14    4.51    7.34
  -2  18 -14   -1.80    6.77
  -4 -18 -14   10.05    7.19
  -4  18 -14    3.75    8.29
  -4 -18 -14   21.47    8.90
  -6 -18 -14   13.94    9.49
  -6  18 -14   11.71   12.22
  -6 -18 -14   17.43    8.17
  17 -19 -14    6.21    9.19
  15 -19 -14    2.49    7.03
  13  19 -14    3.91    6.60
  13 -19 -14    2.21    6.50
  11 -19 -14   21.47    8.62
  11  19 -14   12.99    7.69
   9  19 -14    6.02    6.17
   9 -19 -14   -3.50    5.13
   7  19 -14   20.36    8.31
   7 -19 -14   17.81    7.66
   5 -19 -14   -1.78    5.07
   5  19 -14    0.62    5.55
   3 -19 -14    0.22    6.07
   3  19 -14   13.78    7.94
   1 -19 -14   -1.80    6.29
   1 -19 -14   10.19    6.34
   1  19 -14   -6.41    5.60
  -1 -19 -14   -3.23    6.35
  -1 -19 -14    1.76    6.07
  -1  19 -14   14.18    8.58
  -3 -19 -14    8.05    7.20
  -3  19 -14    5.64    8.05
  -3 -19 -14   -3.96    7.04
  -5 -19 -14   -0.68    6.52
  -5  19 -14    4.80   10.36
  -5 -19 -14   10.17    8.90
  16 -20 -14   12.50    9.48
  14  20 -14    3.03    6.50
  14 -20 -14   -6.53    7.61
  12  20 -14   24.14   10.37
  12 -20 -14   29.48    9.31
  10  20 -14    0.49    5.73
  10 -20 -14   10.01    6.66
   8  20 -14   37.58   10.71
   8 -20 -14   28.13    9.53
   6  20 -14   -1.13    5.41
   6 -20 -14   -0.58    6.23
   4  20 -14   -1.49    5.04
   4 -20 -14    5.51    6.73
   2 -20 -14   -1.49    6.23
   2  20 -14    2.47    6.80
   0  20 -14    0.85    7.80
   0 -20 -14    5.14    7.14
  -2  20 -14   11.07    9.01
  -2 -20 -14    8.90    8.09
  -4 -20 -14   16.91    8.07
  -4 -20 -14   20.46    9.92
  -4  20 -14   33.21   12.16
  15 -21 -14    3.76    8.79
  13  21 -14   11.33    7.81
  13 -21 -14    7.14    7.01
  11 -21 -14   12.30    8.61
  11  21 -14   21.32    7.92
   9 -21 -14    9.37    6.74
   9  21 -14   -2.04    5.62
   7  21 -14    1.20    8.51
   7 -21 -14    2.19    6.11
   5 -21 -14   24.94    8.76
   5  21 -14   22.38    9.00
   3  21 -14   40.54   12.32
   3 -21 -14   24.70    9.01
   1 -21 -14   31.85   10.44
   1  21 -14   34.09   11.85
  -1  21 -14    3.87    8.41
  -1 -21 -14    4.35    6.85
  -3 -21 -14    4.42    8.29
  -3  21 -14    3.30    8.83
  14 -22 -14   15.26   10.75
  14  22 -14    2.32    6.93
  12  22 -14   -8.03    5.35
  12 -22 -14   -5.43    7.30
  10 -22 -14    3.05    6.64
  10  22 -14    0.01    6.29
   8  22 -14   -6.16    4.94
   8 -22 -14   -1.35    6.14
   6  22 -14    6.36    6.75
   6 -22 -14   11.76    6.99
   4 -22 -14   16.58    8.01
   4  22 -14   20.75    9.52
   2  22 -14   21.86   10.86
   2 -22 -14   55.25   12.21
   0 -22 -14   13.79    8.42
   0  22 -14    2.83    8.70
  -2 -22 -14  -17.86    6.57
  -2  22 -14   11.63   10.41
  13  23 -14   28.25   10.66
  13 -23 -14   29.41   11.66
  11 -23 -14   33.77   10.81
  11  23 -14   32.82   10.54
   9  23 -14   43.32   11.36
   9 -23 -14   38.25   11.07
   7  23 -14    6.80    7.58
   7 -23 -14    8.16    7.01
   5 -23 -14    1.94    6.46
   5  23 -14   13.50    7.81
   3  23 -14    5.34    8.40
   3 -23 -14   11.92    7.39
   1 -23 -14   -5.52    6.64
   1  23 -14    9.88    9.40
  -1  23 -14   -6.42    8.56
  -1 -23 -14   -2.14    8.38
  10 -24 -14   13.37    8.39
  10  24 -14   20.45    9.42
   8 -24 -14    5.71    7.23
   8  24 -14    5.73    6.30
   6 -24 -14    9.16    8.44
   6  24 -14    5.49    5.86
   4  24 -14    8.76    9.53
   4 -24 -14   -0.25    6.82
   2 -24 -14   -2.80    7.45
   2  24 -14   -2.41    9.45
   9  25 -14   -4.04    4.88
   9 -25 -14    2.03    9.33
   7  25 -14   -7.38    4.53
   7 -25 -14    0.17    7.29
   5 -25 -14    6.98    7.76
   5  25 -14    1.04    5.35
   3 -25 -14    7.86    8.34
   3  25 -14    6.72   10.44
  22   0 -15   -7.41    3.82
  20   0 -15   -1.31    4.18
  18   0 -15   -1.89    4.36
  16   0 -15   -1.73    3.72
  14   0 -15   -0.53    3.53
  12   0 -15   -3.37    3.30
  10   0 -15   -6.58    2.12
   8   0 -15    1.64    3.39
   6   0 -15   -0.47    3.33
   4   0 -15   -0.90    3.98
   2   0 -15   -0.31    4.24
   0   0 -15   -2.70    3.89
  -2   0 -15   -1.71    4.31
  -4   0 -15    0.20    5.07
  -6   0 -15   -3.84    4.90
  -8   0 -15   -2.59    4.70
  21   1 -15   13.13    6.91
  21  -1 -15   14.25    7.65
  19   1 -15   39.74   11.01
  19  -1 -15   50.66   11.98
  17  -1 -15   22.88    7.90
  17   1 -15    4.71    5.71
  15   1 -15   10.20    5.76
  15  -1 -15   10.08    5.45
  13   1 -15    7.87    4.75
  13  -1 -15   15.48    5.91
  11   1 -15    2.02    3.46
  11  -1 -15    3.27    3.77
   9   1 -15    3.24    3.72
   9  -1 -15    0.50    3.47
   7   1 -15   12.37    4.91
   7  -1 -15   27.45    7.30
   5  -1 -15   41.99    8.91
   5   1 -15   36.34    8.39
   3  -1 -15    8.56    5.40
   3   1 -15   24.41    7.05
   1  -1 -15    0.27    4.64
   1   1 -15    3.98    4.31
  -1   1 -15    5.06    5.38
  -1  -1 -15    4.59    4.66
  -3  -1 -15    3.57    5.09
  -3   1 -15   23.34    8.26
  -5   1 -15    7.10    6.24
  -5  -1 -15   10.65    7.08
  -7  -1 -15   -2.79    5.13
  -7   1 -15   -0.42    5.43
  -9   1 -15   13.97    8.39
  -9  -1 -15   10.29    7.62
  22   2 -15   -6.43    3.76
  22  -2 -15    9.41    5.33
  20  -2 -15   -1.67    5.56
  20   2 -15    0.70    4.70
  18   2 -15    7.07    6.68
  18  -2 -15    7.56    5.56
  16   2 -15   41.51   10.60
  16  -2 -15   32.29    9.21
  14   2 -15  224.18   19.49
  14  -2 -15  231.07   19.86
  12   2 -15  385.99   27.29
  12  -2 -15  444.32   28.65
  10  -2 -15   57.33   10.33
  10   2 -15   61.13   10.70
   8   2 -15  102.75   13.28
   8  -2 -15  110.59   13.64
   6  -2 -15   11.83    5.26
   6   2 -15   27.11    7.32
   4   2 -15    6.03    4.29
   4  -2 -15    4.49    4.52
   2  -2 -15   34.71    8.44
   2   2 -15   32.91    8.39
   0   2 -15   59.07   11.15
   0  -2 -15   75.05   12.45
  -2   2 -15   63.82   12.23
  -2  -2 -15   69.16   13.10
  -4   2 -15   87.57   15.12
  -4  -2 -15  114.26   17.13
  -6  -2 -15   54.78   12.91
  -6   2 -15   87.90   15.24
  -8  -2 -15   10.02    7.35
  -8   2 -15    9.96    8.01
  21  -3 -15   11.60    6.91
  21   3 -15    7.04    8.12
  19  -3 -15   -0.23    4.73
  19   3 -15   -2.44    5.36
  17  -3 -15   -1.47    4.71
  17   3 -15    0.46    5.39
  15  -3 -15   32.26    8.87
  15   3 -15   43.59   10.43
  13  -3 -15  148.32   17.32
  13   3 -15  215.92   18.38
  11  -3 -15   78.65   12.21
  11   3 -15  104.16   13.68
   9  -3 -15   44.27    8.95
   9   3 -15   48.80    9.12
   7   3 -15   16.81    5.83
   7  -3 -15   17.94    6.17
   5   3 -15    1.33    3.33
   5  -3 -15    0.49    3.45
   3  -3 -15    7.09    5.18
   3   3 -15   -0.36    3.82
   1   3 -15   -0.41    3.62
   1  -3 -15    2.34    4.45
  -1   3 -15   39.42    9.05
  -1  -3 -15   48.31   11.09
  -3  -3 -15   14.19    7.56
  -3   3 -15   22.28    7.90
  -5   3 -15   54.25   11.54
  -5  -3 -15   37.51   10.45
  -7  -3 -15   24.84    8.90
  -7   3 -15   30.86   10.04
  -9  -3 -15   -3.61    5.76
  -9   3 -15    6.75    7.19
  22   4 -15    3.20    9.72
  22  -4 -15    9.40    5.63
  20   4 -15   25.63    9.43
  20  -4 -15   11.19    7.47
  18   4 -15    1.61    5.80
  18  -4 -15   -7.81    3.88
  16  -4 -15    1.89    4.60
  16   4 -15    6.88    5.77
  14   4 -15   -6.95    2.32
  14  -4 -15    3.99    3.97
  12   4 -15    2.52    2.85
  12  -4 -15   19.42    6.46
  12   4 -15    9.13    5.17
  10  -4 -15   10.53    4.93
  10   4 -15    1.55    4.02
   8  -4 -15   22.83    6.67
   8   4 -15   42.67    8.74
   6  -4 -15   96.53   13.52
   6   4 -15  134.12   14.15
   4  -4 -15    5.58    4.58
   4   4 -15    3.42    4.54
   2   4 -15   21.32    6.53
   2  -4 -15   13.99    6.91
   0   4 -15    6.64    4.92
   0  -4 -15    7.37    5.67
  -2  -4 -15   26.86    8.55
  -2   4 -15   37.62    9.51
  -4   4 -15    5.54    6.06
  -4  -4 -15   20.43    8.34
  -6   4 -15    4.55    5.87
  -6  -4 -15   -3.06    5.98
  -8  -4 -15   -4.20    5.67
  -8   4 -15    9.58    7.09
  21  -5 -15   21.46    8.36
  21   5 -15   21.34   10.75
  19   5 -15   25.32    9.47
  19  -5 -15   19.17    8.59
  17   5 -15   12.46    6.84
  17  -5 -15   13.24    7.11
  15   5 -15    5.07    4.44
  15  -5 -15   13.23    5.73
  13   5 -15   20.74    6.86
  13  -5 -15   22.48    7.23
  11   5 -15    4.89    3.58
  11  -5 -15    3.55    3.91
  11   5 -15    1.25    4.20
   9  -5 -15   28.89    7.59
   9   5 -15   25.48    7.09
   7   5 -15  100.73   12.47
   7  -5 -15   95.27   13.60
   5   5 -15   64.47   10.50
   5  -5 -15   47.45    9.48
   3  -5 -15  111.86   14.99
   3   5 -15   78.49   11.87
   1   5 -15   36.25    8.82
   1  -5 -15   46.54   10.23
  -1   5 -15   10.32    5.66
  -1  -5 -15    3.77    5.50
  -3   5 -15    6.01    5.69
  -3  -5 -15    2.79    5.35
  -5   5 -15   -1.60    5.05
  -5  -5 -15    3.13    6.06
  -7  -5 -15    6.95    7.35
  -7   5 -15    7.22    6.66
  -9   5 -15   -0.08    6.82
  -9  -5 -15    3.77    7.60
  22  -6 -15   13.74    7.70
  22   6 -15   18.02   10.76
  20   6 -15    9.29    7.63
  20  -6 -15   22.66    8.74
  18   6 -15    3.71    5.79
  18  -6 -15    4.79    5.84
  16  -6 -15    8.55    6.05
  16   6 -15   -0.08    4.82
  14   6 -15    2.73    4.64
  14  -6 -15   -2.63    3.46
  12  -6 -15    8.14    5.17
  12   6 -15   10.97    5.33
  12   6 -15   14.64    5.41
  10  -6 -15   41.74    8.74
  10   6 -15   55.87    9.99
   8   6 -15   57.25    9.70
   8  -6 -15   41.97    8.95
   6  -6 -15   49.80    9.79
   6   6 -15   60.47   10.03
   4  -6 -15   76.71   12.42
   4   6 -15   62.66   10.32
   2   6 -15   11.36    5.45
   2  -6 -15   11.80    5.52
   0   6 -15   11.64    5.99
   0  -6 -15    8.82    5.23
  -2  -6 -15    8.16    5.17
  -2   6 -15   19.70    7.11
  -4   6 -15   38.85    9.88
  -4  -6 -15   38.42   10.60
  -6  -6 -15   19.45    7.93
  -6   6 -15   19.06    8.22
  -8  -6 -15   -3.09    6.74
  -8   6 -15    4.27    6.52
  21   7 -15    8.46    9.20
  21  -7 -15    1.02    6.01
  19  -7 -15    3.07    5.87
  19   7 -15    0.91    6.08
  17  -7 -15   16.89    7.30
  17   7 -15   31.64    9.44
  15  -7 -15   42.07    9.79
  15   7 -15   49.60   11.03
  13   7 -15    1.14    3.48
  13   7 -15    9.58    5.55
  13  -7 -15   13.49    5.53
  11  -7 -15  114.64   14.82
  11   7 -15  123.69   14.70
  11   7 -15  152.73   15.42
   9   7 -15   41.93    8.81
   9   7 -15   37.16    8.41
   9  -7 -15   24.18    7.04
   7   7 -15    2.53    4.02
   7  -7 -15   13.78    5.72
   5  -7 -15    5.81    5.29
   5   7 -15   -0.84    3.37
   3   7 -15   43.41    8.89
   3  -7 -15   57.89   10.87
   1  -7 -15    3.73    4.67
   1   7 -15   10.23    5.17
  -1  -7 -15   30.62    8.30
  -1   7 -15   31.22    8.09
  -3   7 -15   68.94   12.28
  -3  -7 -15   62.85   12.65
  -5  -7 -15   93.74   16.57
  -5   7 -15  119.97   17.08
  -7   7 -15   71.88   13.81
  -7  -7 -15   41.09   11.74
  -9  -7 -15   -2.92    6.62
  20   8 -15   16.47    9.48
  20  -8 -15   15.30    7.61
  18   8 -15    4.32    5.35
  18  -8 -15    4.98    6.13
  16  -8 -15    2.11    5.08
  16   8 -15   -1.58    5.19
  14  -8 -15   12.02    5.88
  14   8 -15   10.69    5.51
  12   8 -15   -1.97    3.40
  12   8 -15    2.47    4.19
  12  -8 -15   -4.68    3.43
  10  -8 -15    9.75    5.53
  10   8 -15    2.44    4.54
  10   8 -15    8.37    4.98
   8   8 -15   26.98    7.00
   8  -8 -15   33.71    7.88
   8   8 -15   28.04    7.88
   6  -8 -15    6.00    5.13
   6   8 -15    9.17    4.43
   4  -8 -15   67.67   11.81
   4   8 -15   43.42    8.79
   2  -8 -15   33.60    8.92
   2   8 -15   42.83    8.92
   0  -8 -15    7.82    5.10
   0   8 -15    3.60    4.45
  -2  -8 -15    3.64    5.50
  -2   8 -15    7.87    5.18
  -4   8 -15   -2.04    4.43
  -4  -8 -15    9.81    6.48
  -6   8 -15    4.25    6.57
  -6  -8 -15    4.32    6.01
  -8  -8 -15    2.54    4.61
  21   9 -15   -3.01    7.54
  21  -9 -15    5.51    6.18
  19   9 -15    0.13    6.08
  19  -9 -15    3.44    6.31
  17   9 -15   11.27    6.34
  17  -9 -15    2.42    5.82
  15   9 -15   55.36   11.55
  15  -9 -15   44.21    9.69
  13   9 -15    9.74    4.93
  13  -9 -15   10.94    5.33
  13   9 -15    2.05    4.97
  11   9 -15   69.88   11.31
  11  -9 -15   86.87   12.68
  11   9 -15   64.51   10.97
   9  -9 -15   58.71   10.38
   9   9 -15   54.08   10.60
   9   9 -15   47.42    9.26
   7   9 -15   14.36    5.47
   7  -9 -15   17.04    6.30
   7   9 -15   -1.28    4.33
   5   9 -15    2.88    3.45
   5  -9 -15    0.72    4.49
   3  -9 -15    7.46    5.14
   3   9 -15    7.76    4.56
   1   9 -15   18.37    6.46
   1  -9 -15   13.38    5.78
  -1  -9 -15   -0.12    4.88
  -1   9 -15    2.17    4.61
  -3   9 -15   33.12    8.84
  -3  -9 -15   34.40   10.06
  -5  -9 -15    0.76    5.72
  -7  -9 -15    7.55    5.13
  20 -10 -15   13.80    8.29
  20  10 -15   25.74   10.83
  18  10 -15   31.12    9.91
  18 -10 -15   30.44    9.63
  16  10 -15    0.83    5.02
  16 -10 -15   -1.72    4.53
  14 -10 -15    3.05    4.00
  14  10 -15    5.15    4.62
  12 -10 -15   36.10    8.55
  12  10 -15    9.53    5.79
  12  10 -15   20.51    6.50
  10  10 -15   11.75    5.40
  10 -10 -15    7.83    4.82
  10  10 -15   10.62    5.91
   8  10 -15   78.48   11.24
   8  10 -15   55.84   10.95
   8 -10 -15   79.60   12.09
   6  10 -15  123.09   16.15
   6  10 -15  124.57   13.25
   6 -10 -15  111.80   14.91
   4  10 -15  113.60   15.97
   4 -10 -15  130.56   16.21
   4  10 -15  111.35   12.73
   2  10 -15   31.67    7.43
   2 -10 -15   40.62    9.97
   0 -10 -15   22.53    7.44
   0  10 -15   17.77    6.58
  -2  10 -15   -0.63    4.29
  -2 -10 -15    2.56    6.14
  -4 -10 -15    5.54    6.57
  -6 -10 -15   -2.42    5.00
  -8 -10 -15    0.30    4.13
  19  11 -15   -0.89    6.12
  19 -11 -15    2.93    6.30
  17 -11 -15   23.88    8.41
  17  11 -15    2.29    6.28
  15 -11 -15   78.07   12.91
  15  11 -15   61.09   12.41
  13  11 -15  174.32   18.22
  13  11 -15  140.70   16.15
  13 -11 -15  166.31   17.58
  11  11 -15   37.92    9.11
  11 -11 -15   45.71    9.60
  11  11 -15   53.98   10.23
   9  11 -15   30.72    7.61
   9  11 -15   41.63    9.37
   9 -11 -15   35.57    8.38
   7 -11 -15    7.67    5.07
   7  11 -15    4.97    4.50
   7  11 -15    4.22    3.87
   5  11 -15    9.04    5.08
   5  11 -15   16.52    6.72
   5 -11 -15   10.38    5.50
   3  11 -15   -2.53    3.84
   3  11 -15    2.73    4.18
   3 -11 -15   -2.38    3.94
   1  11 -15    2.17    5.00
   1  11 -15   10.02    6.75
   1 -11 -15    0.02    4.30
  -1 -11 -15   16.12    8.09
  -3 -11 -15   26.67    9.76
  -5 -11 -15   19.36    8.70
  -5  11 -15    9.98    8.73
  -7  11 -15    6.08   10.62
  -7 -11 -15    3.05    5.32
  20  12 -15   11.98    9.26
  20 -12 -15   10.02    7.82
  18  12 -15   11.11    7.06
  18 -12 -15   -4.35    5.89
  16  12 -15    4.64    6.37
  16 -12 -15   17.77    7.82
  14  12 -15   43.93   10.39
  14 -12 -15   50.72   10.40
  12  12 -15   12.39    6.67
  12  12 -15    8.65    5.76
  12 -12 -15   20.45    6.56
  10 -12 -15   15.51    5.32
  10  12 -15    2.45    5.13
  10  12 -15    8.86    5.44
   8  12 -15   19.69    7.42
   8 -12 -15   21.28    7.11
   8  12 -15   11.30    5.80
   6 -12 -15   22.42    7.32
   6  12 -15   24.63    7.78
   6  12 -15   20.42    5.93
   4  12 -15   10.75    5.49
   4 -12 -15   18.96    6.98
   4  12 -15   16.08    5.67
   2 -12 -15    1.16    4.76
   2  12 -15    4.86    5.97
   0 -12 -15   10.54    5.62
   0  12 -15    0.72    5.46
  -2 -12 -15   31.50   10.43
  -2  12 -15   44.51   11.81
  -4 -12 -15   27.52    9.10
  -4  12 -15   43.58   12.30
  -6 -12 -15   16.59    8.20
  -6  12 -15   13.86    9.84
  19  13 -15    8.82    8.71
  17  13 -15    2.59    6.42
  17 -13 -15   11.61    6.62
  15  13 -15   41.80   10.76
  15 -13 -15   34.29    9.08
  13  13 -15   58.67   11.46
  13  13 -15   59.91   11.51
  13 -13 -15   47.74    9.86
  11 -13 -15   15.06    5.91
  11  13 -15   13.73    6.82
  11  13 -15   15.11    6.28
   9  13 -15   16.47    6.28
   9 -13 -15   31.60    7.90
   9  13 -15   25.36    7.03
   7  13 -15    4.97    4.81
   7 -13 -15    5.44    4.81
   7  13 -15   12.66    6.16
   5  13 -15   19.49    7.39
   5 -13 -15   33.37    9.21
   3 -13 -15    4.28    5.05
   3  13 -15   14.08    6.43
   1 -13 -15   35.57    9.23
   1  13 -15   18.90    7.91
  -1 -13 -15   32.09    9.72
  -1  13 -15   36.48   10.76
  -3  13 -15    2.06    6.56
  -3 -13 -15    0.07    6.10
  -5 -13 -15   17.55    7.79
  -5  13 -15   21.01   10.68
  -7 -13 -15   -7.33    3.90
  -7  13 -15    5.39   11.51
  18  14 -15   -1.88    6.19
  16 -14 -15   -4.77    4.74
  16  14 -15    1.75    5.75
  14 -14 -15    1.55    4.09
  14  14 -15   17.62    7.91
  12  14 -15   20.67    7.19
  12 -14 -15   21.33    7.16
  12  14 -15   18.22    6.95
  10 -14 -15    3.67    5.02
  10  14 -15   10.01    6.15
  10  14 -15    0.36    4.32
   8  14 -15    3.06    4.61
   8 -14 -15   14.35    5.83
   6 -14 -15   33.00    8.63
   6  14 -15   38.36    9.78
   4  14 -15   15.71    7.06
   4 -14 -15   17.92    6.66
   2 -14 -15   33.68    9.18
   2  14 -15   27.11    9.66
   0  14 -15   -2.40    6.52
   0 -14 -15    0.35    5.11
  -2  14 -15    1.51    6.68
  -2 -14 -15    3.04    6.26
  -4 -14 -15    0.48    6.09
  -4  14 -15    5.36    8.59
  -6  14 -15    7.16   10.05
  -6 -14 -15   -0.77    4.94
  19  15 -15   15.90    9.18
  17  15 -15   -5.27    5.67
  15  15 -15    2.07    6.53
  13 -15 -15   10.98    5.47
  13  15 -15   12.04    7.19
  13  15 -15   19.93    7.23
  11  15 -15    5.90    5.78
  11 -15 -15    9.67    5.66
   9  15 -15    7.47    5.43
   9 -15 -15    1.53    4.84
   7  15 -15    8.30    5.61
   7 -15 -15   10.92    5.31
   5 -15 -15   35.20    8.35
   5  15 -15   25.22    7.80
   3  15 -15   50.35   12.13
   3 -15 -15   59.71   11.94
   1 -15 -15    8.16    6.06
   1  15 -15    8.38    7.35
  -1 -15 -15    3.25    6.20
  -1  15 -15   11.20    7.66
  -3  15 -15   50.34   13.06
  -3 -15 -15   36.64   10.72
  -5  15 -15   -2.81    7.28
  -5 -15 -15   10.07    6.54
  18  16 -15   10.22    9.34
  16  16 -15   36.71   11.17
  12  16 -15   44.39   10.77
  10 -16 -15   29.26    7.94
  10  16 -15   17.44    7.69
   8 -16 -15   18.94    5.96
   8  16 -15    7.34    6.52
   6  16 -15    9.45    7.20
   6 -16 -15   16.51    7.14
   4  16 -15    0.91    4.94
   4 -16 -15   -3.42    4.55
   2  16 -15    1.55    6.74
   2 -16 -15    0.42    5.21
   0  16 -15   24.18    9.30
   0 -16 -15   14.56    7.54
  -2 -16 -15   23.21    9.51
  -2  16 -15   27.39   11.42
  -4 -16 -15   46.93   11.88
  -4  16 -15   32.95   12.23
  -6  16 -15   10.92   11.70
  -6 -16 -15   19.66    8.76
  13  17 -15    3.16    6.08
  11  17 -15   27.73    8.65
   9  17 -15   16.61    7.72
   7 -17 -15    8.18    5.40
   7  17 -15    8.82    6.68
   5  17 -15    2.97    6.03
   5 -17 -15   12.70    6.19
   3 -17 -15   19.01    7.16
   3  17 -15   32.03    9.91
   1  17 -15    5.53    6.62
   1 -17 -15    8.21    6.43
  -1  17 -15    9.03    7.88
  -1 -17 -15    0.05    6.13
  -3  17 -15    8.15    8.42
  -3 -17 -15    3.69    7.17
  -5 -17 -15    0.83    6.30
  -5  17 -15    3.50    9.44
  14  18 -15   15.47    8.33
  12  18 -15   15.04    8.01
  10  18 -15   10.58    7.13
   8  18 -15    1.12    5.41
   6 -18 -15    6.83    5.84
   6  18 -15   -4.98    5.07
   4 -18 -15   16.02    6.66
   4 -18 -15    7.50    6.74
   4  18 -15    1.70    6.40
   2  18 -15   -0.52    6.80
   2 -18 -15   -3.81    5.93
   2 -18 -15    5.84    6.45
   0 -18 -15   -1.99    6.47
   0 -18 -15    1.51    5.96
   0  18 -15   -4.58    6.41
  -2 -18 -15   12.31    8.14
  -2 -18 -15   -1.75    6.34
  -2  18 -15    1.17    7.02
  -4  18 -15   18.13   10.63
  -4 -18 -15   19.40    8.47
  13  19 -15    8.82    7.46
  11  19 -15    4.03    6.47
   9  19 -15    6.18    6.56
   9 -19 -15   12.06    7.80
   7 -19 -15   43.34   10.97
   7  19 -15   36.03   10.03
   5 -19 -15   48.45   10.46
   5  19 -15   31.73   10.22
   3 -19 -15   30.77    9.61
   3  19 -15   29.57   10.35
   1  19 -15   16.42    9.28
   1 -19 -15   25.68    9.81
   1 -19 -15   20.61    8.68
  -1 -19 -15   -2.26    6.37
  -1  19 -15   -3.05    7.48
  -1 -19 -15    1.81    6.25
  -3 -19 -15   -9.89    6.01
  -3  19 -15    3.55    9.07
  -3 -19 -15   -9.84    7.02
  14  20 -15   12.89    9.53
  12  20 -15   15.09    8.54
  10 -20 -15    7.95    7.56
  10  20 -15    4.04    6.55
   8 -20 -15    2.39    7.14
   8  20 -15    4.31    5.83
   6 -20 -15    0.39    7.13
   6  20 -15    8.58    6.97
   4  20 -15    2.80    6.15
   4 -20 -15    7.69    6.71
   2 -20 -15    2.06    6.87
   2  20 -15   12.64    8.17
   0 -20 -15    5.74    6.60
   0  20 -15   -5.38    7.62
  -2  20 -15   -0.75    8.64
  -2 -20 -15    3.89    7.47
  -2 -20 -15   -1.60    7.08
  13  21 -15    1.58    6.92
  11 -21 -15    5.71    7.30
  11  21 -15    5.46    7.29
   9 -21 -15   -2.52    6.26
   9  21 -15    6.88    6.63
   7 -21 -15    2.17    6.20
   7  21 -15    1.89    6.62
   5  21 -15    2.92    6.54
   5 -21 -15   -3.85    6.20
   3  21 -15    5.69    8.76
   3 -21 -15    1.13    6.12
   1  21 -15    2.33    8.09
   1 -21 -15    0.88    7.71
  -1  21 -15   29.56   12.35
  -1 -21 -15   19.16    9.51
  12  22 -15   -2.66    6.54
  12 -22 -15   22.80   10.72
  10 -22 -15    5.28    7.40
  10  22 -15   -0.26    5.92
   8  22 -15   11.18    6.86
   8 -22 -15    5.39    7.36
   6  22 -15   -0.29    5.86
   6 -22 -15    0.26    6.18
   4 -22 -15    0.12    6.83
   4  22 -15    2.46    9.19
   2  22 -15    3.61    8.69
   2 -22 -15    4.80    7.60
   0  22 -15   26.17   12.09
   0 -22 -15   20.64    9.79
  11  23 -15    3.73    7.35
  11 -23 -15   14.37    9.46
   9 -23 -15    8.34    7.56
   9  23 -15   -0.14    5.38
   7  23 -15  -12.99    4.60
   7 -23 -15    6.63    7.78
   5  23 -15   -2.41    4.75
   5 -23 -15   24.12    9.83
   3  23 -15   15.55   10.52
   3 -23 -15   25.15    9.51
   1  23 -15   16.76   11.54
   1 -23 -15    1.42    8.38
   8  24 -15   -0.65    5.00
   8 -24 -15    3.62    8.73
   6 -24 -15   14.40    8.92
   6  24 -15    1.70    5.67
   4  24 -15   14.62   11.05
   4 -24 -15   42.86   12.62
  22   0 -16   -1.25    4.55
  20   0 -16   -0.43    5.38
  18   0 -16   82.97   14.86
  16   0 -16  101.21   16.16
  14   0 -16  149.22   17.77
  12   0 -16   94.73   13.83
  10   0 -16   17.30    5.80
   8   0 -16    2.75    4.37
   6   0 -16    6.63    4.73
   4   0 -16   37.28    9.27
   2   0 -16   26.75    7.56
   0   0 -16  126.57   16.98
  -2   0 -16  273.34   23.73
  -4   0 -16   52.29   11.76
  -6   0 -16   12.20    6.87
  -8   0 -16    9.08    7.46
  21   1 -16   -0.43    4.89
  21  -1 -16   -8.33    3.82
  19   1 -16   -0.71    5.15
  19  -1 -16    4.72    5.59
  17   1 -16    2.69    5.41
  17  -1 -16    1.19    5.12
  15  -1 -16   18.63    6.77
  15   1 -16   49.77   11.06
  13   1 -16    1.66    4.29
  13  -1 -16    3.47    3.43
  11   1 -16    5.05    4.36
  11  -1 -16    4.19    4.30
   9   1 -16   18.63    6.47
   9  -1 -16   13.01    5.46
   7  -1 -16   32.01    7.95
   7   1 -16   37.58    8.94
   5   1 -16  106.89   14.58
   5  -1 -16  135.01   15.90
   3  -1 -16   39.85    9.62
   3   1 -16   41.87    9.31
   1  -1 -16   -1.75    4.42
   1   1 -16    8.83    5.37
  -1   1 -16    6.34    5.49
  -1  -1 -16    1.43    4.76
  -3   1 -16    2.70    6.02
  -3  -1 -16    0.38    6.07
  -5   1 -16    3.25    6.16
  -5  -1 -16    6.24    6.08
  -7   1 -16    6.76    7.58
  -7  -1 -16    9.48    7.19
  22  -2 -16    5.29    4.58
  22   2 -16    6.61    5.21
  20   2 -16    4.75    5.92
  20  -2 -16   13.48    6.88
  18  -2 -16   -9.20    3.94
  18   2 -16    6.35    5.96
  16   2 -16    3.79    5.45
  16  -2 -16    4.70    4.49
  14  -2 -16   45.84    9.64
  14   2 -16   38.34    9.95
  12   2 -16    9.74    5.83
  12  -2 -16    6.63    4.33
  10   2 -16    4.41    4.35
  10  -2 -16    7.33    4.35
   8   2 -16    6.84    4.72
   8  -2 -16    0.33    3.60
   6   2 -16   48.84    9.82
   6  -2 -16   45.91    9.65
   4  -2 -16   43.14    9.38
   4   2 -16   60.09   10.94
   2   2 -16   28.19    7.86
   2  -2 -16   30.16    8.96
   0  -2 -16    5.96    5.41
   0   2 -16    0.39    4.56
  -2  -2 -16   17.29    7.90
  -2   2 -16   34.55    9.40
  -4  -2 -16   13.54    8.06
  -4   2 -16    2.20    6.66
  -6  -2 -16    0.39    5.88
  -6   2 -16    1.01    6.34
  -8  -2 -16   22.81    8.91
  -8   2 -16    8.25    8.03
  21  -3 -16    7.24    6.25
  21   3 -16   28.58   10.73
  19  -3 -16   21.11    8.49
  19   3 -16    2.74    6.22
  17  -3 -16   24.34    8.17
  17   3 -16   20.96    8.09
  15   3 -16   30.42    8.95
  15  -3 -16   37.50    9.40
  13   3 -16   -1.62    3.89
  13  -3 -16   -0.54    3.33
  11  -3 -16  105.70   14.25
  11   3 -16  110.16   14.65
   9  -3 -16   72.02   11.81
   9   3 -16   67.63   11.25
   7  -3 -16   26.58    7.29
   7   3 -16   21.78    7.19
   5   3 -16   54.97   10.04
   5  -3 -16   40.53    9.39
   3  -3 -16   12.51    6.49
   3   3 -16    6.86    5.16
   1   3 -16   -4.48    3.83
   1  -3 -16    0.95    4.98
  -1   3 -16   -5.13    3.93
  -1  -3 -16    2.26    5.29
  -3   3 -16   -1.33    4.99
  -3  -3 -16    1.22    5.27
  -5   3 -16    2.05    5.72
  -5  -3 -16    2.20    5.93
  -7   3 -16   -3.26    5.19
  -7  -3 -16   -0.94    6.03
  22   4 -16    1.84    8.90
  22  -4 -16    4.61    4.89
  20   4 -16    6.08    7.11
  20  -4 -16   10.20    6.49
  18  -4 -16    8.29    6.48
  18   4 -16   -1.86    4.44
  16   4 -16   21.78    8.26
  16  -4 -16   19.40    8.13
  14   4 -16   87.69   14.05
  14  -4 -16   99.05   14.49
  12  -4 -16   34.93    8.35
  12   4 -16   24.09    7.48
  10  -4 -16    6.03    4.13
  10   4 -16    4.44    4.62
   8  -4 -16   43.65    9.39
   8   4 -16   29.82    7.44
   6  -4 -16   21.54    6.97
   6   4 -16   15.44    5.76
   4   4 -16    7.61    4.63
   4  -4 -16    6.48    4.82
   2   4 -16   36.34    8.72
   2  -4 -16   27.71    8.37
   0  -4 -16   29.86    9.15
   0   4 -16   34.80    9.01
  -2  -4 -16   12.83    7.61
  -2   4 -16    9.66    5.58
  -4  -4 -16   26.91    8.78
  -4   4 -16   39.91   10.92
  -6  -4 -16    7.49    7.73
  -6   4 -16   17.45    8.57
  -8  -4 -16   -6.98    6.59
  -8   4 -16    2.86    7.87
  21   5 -16    0.28    7.07
  21  -5 -16   -2.70    5.16
  19   5 -16   22.67    8.85
  19  -5 -16    3.60    5.67
  17   5 -16   48.22   11.32
  17  -5 -16   62.25   12.72
  15   5 -16   62.58   12.50
  15  -5 -16   60.56   11.75
  13   5 -16  146.60   16.96
  13  -5 -16  110.06   15.63
  11   5 -16   36.26    8.81
  11  -5 -16   44.03    9.62
   9   5 -16   23.52    6.99
   9  -5 -16   24.27    6.90
   7  -5 -16   23.00    7.11
   7   5 -16   48.42    9.23
   5  -5 -16   -2.68    3.60
   5   5 -16    8.93    4.79
   3   5 -16   11.47    5.72
   3  -5 -16   16.76    6.52
   1  -5 -16   59.69   11.98
   1   5 -16   65.58   11.26
  -1   5 -16   10.08    6.46
  -1  -5 -16   24.22    8.93
  -3  -5 -16   56.73   12.57
  -3   5 -16   43.20   11.04
  -5   5 -16   24.94    9.18
  -5  -5 -16   35.08   10.43
  -7  -5 -16    5.48    7.40
  -7   5 -16    4.04    6.97
  20   6 -16   26.03   10.12
  20  -6 -16   19.29    8.21
  18   6 -16    2.46    5.90
  18  -6 -16    2.29    6.08
  16   6 -16   24.76    8.44
  16  -6 -16    9.49    6.59
  14   6 -16    4.83    5.04
  14  -6 -16    2.86    4.02
  12   6 -16   19.80    6.46
  12   6 -16    6.42    5.03
  12  -6 -16   12.86    5.27
  10   6 -16   55.45   10.10
  10  -6 -16   43.51    9.64
   8  -6 -16   25.75    7.35
   8   6 -16   18.57    6.08
   6   6 -16   85.30   11.98
   6  -6 -16   69.88   12.50
   4  -6 -16   17.07    6.47
   4   6 -16   13.40    6.15
   2  -6 -16    5.91    4.93
   2   6 -16   12.88    5.74
   0   6 -16   -1.96    4.08
   0  -6 -16    9.83    5.70
  -2  -6 -16   21.50    8.24
  -2   6 -16   21.13    7.81
  -4   6 -16    1.11    5.88
  -4  -6 -16   -6.01    5.11
  -6  -6 -16   -0.13    5.87
  -6   6 -16   -0.99    6.33
  -8  -6 -16   17.05   10.32
  -8   6 -16   18.32    9.43
  21  -7 -16    4.95    5.65
  21   7 -16    9.42    8.95
  19  -7 -16    0.96    5.56
  19   7 -16    2.70    6.24
  17  -7 -16    0.00    5.28
  17   7 -16    4.74    5.99
  15   7 -16    6.60    6.51
  15  -7 -16    1.95    4.25
  13   7 -16    1.39    4.57
  13   7 -16    4.22    3.73
  13  -7 -16   -2.22    3.66
  11  -7 -16    1.50    3.96
  11   7 -16    5.16    4.72
  11   7 -16    4.51    4.31
   9   7 -16    1.34    3.94
   9  -7 -16    4.81    4.21
   7   7 -16   36.27    8.51
   7  -7 -16   48.10   10.05
   5   7 -16   34.15    7.95
   5  -7 -16   31.64    8.29
   3   7 -16    4.13    4.61
   3  -7 -16   10.47    5.13
   1   7 -16    6.73    4.99
   1  -7 -16    2.53    4.69
  -1   7 -16   22.11    7.60
  -1  -7 -16    9.00    5.88
  -3   7 -16   11.11    6.30
  -3  -7 -16   -4.86    4.96
  -5   7 -16    0.03    5.42
  -5  -7 -16    4.07    6.55
  -7  -7 -16   -9.16    6.70
  -7   7 -16    5.53    6.67
  20   8 -16    8.21    8.52
  20  -8 -16   15.97    7.47
  18   8 -16    1.50    5.71
  18  -8 -16   15.69    7.55
  16  -8 -16    2.21    5.76
  16   8 -16   21.42    8.63
  14   8 -16   17.62    7.76
  14  -8 -16   15.81    6.15
  12   8 -16   19.97    6.95
  12   8 -16   27.50    7.50
  12  -8 -16   12.57    5.77
  10   8 -16    7.58    5.17
  10  -8 -16   -3.22    3.86
  10   8 -16   -0.29    4.17
   8   8 -16  100.46   12.85
   8  -8 -16  139.35   16.14
   8   8 -16  112.68   15.34
   6  -8 -16   99.16   14.31
   6   8 -16   93.46   12.18
   4  -8 -16   65.24   12.05
   4   8 -16   59.37   10.46
   2  -8 -16   38.15    9.30
   2   8 -16   22.20    6.71
   0   8 -16   -0.75    4.67
   0  -8 -16   -5.42    3.93
  -2  -8 -16   12.26    7.25
  -2   8 -16    6.28    5.67
  -4   8 -16    3.79    5.73
  -4  -8 -16    1.56    5.69
  -6  -8 -16    4.32    5.82
  21  -9 -16   -0.88    6.50
  21   9 -16    0.08    8.23
  19   9 -16   57.17   13.69
  19  -9 -16   40.08   11.33
  17  -9 -16  134.72   18.24
  17   9 -16   87.21   15.62
  15   9 -16   64.39   12.74
  13   9 -16   63.37   11.51
  13  -9 -16   61.30   11.72
  13   9 -16   39.63    8.85
  11   9 -16   29.24    7.87
  11  -9 -16   26.44    7.10
  11   9 -16   19.80    6.99
   9   9 -16   18.81    6.79
   9  -9 -16   15.06    6.03
   9   9 -16    6.60    4.97
   7  -9 -16    3.21    4.37
   7   9 -16   11.27    5.91
   7   9 -16    5.60    4.59
   5  -9 -16    1.28    4.49
   5   9 -16    7.64    5.00
   3  -9 -16   10.88    5.40
   3   9 -16   -2.86    3.14
   1   9 -16    2.25    4.11
   1  -9 -16   -0.81    4.72
  -1  -9 -16   82.03   15.57
  -1   9 -16  112.22   14.64
  -3  -9 -16   52.00   12.21
  -3   9 -16   51.08   11.68
  -5  -9 -16   40.35   11.58
  -7  -9 -16   -4.02    4.24
  20 -10 -16    1.41    6.57
  20  10 -16    3.82    8.14
  18 -10 -16    2.45    5.71
  18  10 -16    2.16    6.25
  16  10 -16   11.74    6.99
  16 -10 -16    4.95    5.80
  14 -10 -16   23.37    6.88
  14  10 -16   14.56    6.89
  12 -10 -16   -2.60    4.09
  12  10 -16    2.36    4.54
  12  10 -16    1.09    4.04
  10  10 -16   10.63    5.34
  10  10 -16   13.22    5.71
  10 -10 -16   -3.11    3.51
   8  10 -16    0.40    4.53
   8 -10 -16   -1.96    3.63
   8  10 -16    3.03    4.42
   6  10 -16    0.30    4.05
   6  10 -16    1.10    3.69
   6 -10 -16    2.91    4.49
   4 -10 -16   -2.24    4.26
   4  10 -16    4.59    4.55
   4  10 -16   -1.23    3.71
   2  10 -16    2.77    4.79
   2 -10 -16    1.05    5.48
   0  10 -16    2.61    4.89
   0 -10 -16   -2.15    4.80
  -2 -10 -16    1.52    5.36
  -4 -10 -16    8.35    7.45
  -6 -10 -16   -8.80    4.28
  19  11 -16    5.32    8.19
  19 -11 -16   24.51    9.17
  17  11 -16    6.19    6.65
  17 -11 -16    7.93    6.28
  15  11 -16    5.25    6.47
  15 -11 -16   11.50    6.35
  13  11 -16    1.44    4.59
  13 -11 -16   -1.13    4.32
  13  11 -16    1.73    5.01
  11  11 -16   35.51    8.97
  11  11 -16   32.79    8.79
  11 -11 -16   47.10    9.76
   9  11 -16    7.19    5.41
   9  11 -16    1.12    4.36
   9 -11 -16   -0.61    3.45
   7 -11 -16    2.45    4.69
   7  11 -16    3.50    4.54
   7  11 -16    2.14    4.87
   5  11 -16    1.19    3.88
   5  11 -16    9.79    4.47
   5 -11 -16    2.69    4.30
   3 -11 -16   -6.10    4.04
   3  11 -16   -5.95    3.86
   3  11 -16   -1.86    4.75
   1 -11 -16   18.45    8.03
   1  11 -16    8.68    7.35
  -1 -11 -16    6.34    5.74
  -3 -11 -16   -3.22    5.46
  -5 -11 -16   -2.70    5.06
  -5  11 -16   -2.52    7.77
  20  12 -16   16.88    9.95
  20 -12 -16   10.85    7.33
  18  12 -16   12.88    8.17
  18 -12 -16    1.38    6.19
  16  12 -16    2.27    6.08
  16 -12 -16   -5.11    4.40
  14 -12 -16    6.70    5.47
  14  12 -16    9.02    6.56
  12 -12 -16    3.45    4.45
  12  12 -16    6.16    5.15
  12  12 -16    5.17    4.47
  10 -12 -16   31.32    7.79
  10  12 -16   23.74    7.74
  10  12 -16   28.34    8.34
   8  12 -16   76.04   13.44
   8  12 -16   78.23   11.81
   8 -12 -16   92.98   13.72
   6  12 -16   39.38   10.17
   6  12 -16   65.46   10.29
   6 -12 -16   53.30   10.76
   4 -12 -16   33.74    9.32
   4  12 -16   22.26    8.25
   2  12 -16    6.47    6.20
   2 -12 -16   19.13    7.65
   0 -12 -16    0.47    5.49
   0  12 -16   -5.84    5.12
  -2 -12 -16    2.87    5.79
  -2  12 -16   -3.74    5.88
  -4 -12 -16    8.32    6.64
  -4  12 -16   10.41    8.71
  -6  12 -16    1.97    9.92
  -6 -12 -16    4.73    5.65
  19  13 -16   -7.68    6.18
  19 -13 -16    4.83    6.50
  17 -13 -16   14.15    7.52
  17  13 -16   18.19    8.90
  15 -13 -16   38.09    9.87
  15  13 -16   30.62    9.92
  13 -13 -16   21.35    7.67
  13  13 -16   23.29    8.09
  13  13 -16   13.52    6.02
  11 -13 -16    8.85    5.53
  11  13 -16   13.39    6.29
  11  13 -16   12.45    5.85
   9  13 -16   39.72    9.48
   9 -13 -16   22.85    7.19
   9  13 -16   35.89    8.66
   7  13 -16  109.77   15.98
   7  13 -16   69.56   11.07
   7 -13 -16   73.08   13.11
   5 -13 -16    0.13    5.32
   5  13 -16   10.05    6.03
   3  13 -16   18.24    8.72
   3 -13 -16   -5.52    4.61
   1  13 -16   -1.13    6.75
   1 -13 -16   -4.90    4.92
  -1 -13 -16    2.99    5.59
  -1  13 -16    6.99    6.89
  -3  13 -16   59.45   14.77
  -3 -13 -16   76.50   14.99
  -5  13 -16    0.69    9.19
  -5 -13 -16    3.73    6.16
  18  14 -16   32.91   10.57
  16 -14 -16   55.17   12.03
  16  14 -16   46.09   11.95
  14  14 -16   69.48   13.16
  14 -14 -16   41.73   10.17
  12 -14 -16   72.10   12.36
  12  14 -16   74.96   13.38
  12  14 -16   73.17   12.73
  10  14 -16    2.36    4.51
  10 -14 -16    3.44    4.77
  10  14 -16    6.08    5.34
   8  14 -16   12.86    6.75
   8 -14 -16   18.71    6.78
   6  14 -16    9.61    6.22
   6 -14 -16    3.12    5.02
   4  14 -16   22.13    8.68
   4 -14 -16   26.86    8.95
   2  14 -16    8.69    7.47
   2 -14 -16    2.33    6.06
   0  14 -16   13.71    8.14
   0 -14 -16   20.54    8.47
  -2 -14 -16   38.73   10.59
  -2  14 -16   42.88   12.89
  -4  14 -16   21.59   11.24
  -4 -14 -16   52.02   12.35
  17  15 -16   -4.25    5.96
  15  15 -16   24.45    8.89
  13 -15 -16    9.26    6.03
  13  15 -16   15.41    7.93
  11  15 -16   16.69    6.97
  11 -15 -16    1.68    5.48
   9 -15 -16   -1.60    4.70
   9  15 -16   -0.09    4.86
   7  15 -16   11.58    7.28
   7 -15 -16   22.90    8.00
   5 -15 -16    2.67    5.31
   5  15 -16    1.86    5.57
   3  15 -16    5.36    7.27
   3 -15 -16   24.10    8.64
   1  15 -16   -3.30    6.63
   1 -15 -16    8.48    7.40
  -1 -15 -16    4.02    6.27
  -1  15 -16    6.75    7.48
  -3  15 -16   -0.98    7.38
  -3 -15 -16   -1.34    5.79
  -5  15 -16    2.32    9.75
  -5 -15 -16    3.36    6.39
  18  16 -16   13.19    8.66
  12  16 -16    1.36    5.46
  10 -16 -16   21.28    6.94
  10  16 -16   12.04    7.32
   8  16 -16    1.73    5.56
   8 -16 -16    4.79    5.19
   6 -16 -16   -2.29    4.53
   6  16 -16   -0.67    5.73
   4 -16 -16   54.82   11.53
   4  16 -16   37.22   10.52
   2 -16 -16    4.27    6.20
   2  16 -16    1.07    6.33
   0 -16 -16   -5.03    6.28
   0  16 -16   -2.22    6.85
  -2  16 -16   13.41    9.24
  -2 -16 -16   23.70    8.74
  -4 -16 -16   -4.73    5.87
  -4  16 -16   18.92   10.54
  13  17 -16    3.81    6.48
  11  17 -16    2.41    6.82
   9  17 -16   43.79   10.88
   7 -17 -16    3.24    5.72
   7  17 -16   20.95    8.60
   5  17 -16   43.08   11.16
   5 -17 -16   77.74   13.34
   3 -17 -16   21.30    8.44
   3  17 -16   35.90   11.14
   1 -17 -16   -3.38    5.80
   1  17 -16    9.28    8.51
  -1  17 -16    2.80    8.12
  -1 -17 -16   -3.92    6.21
  -3 -17 -16   14.19    8.27
  -3  17 -16    8.68    9.24
  14  18 -16   25.22    9.02
  12  18 -16    8.94    7.88
  10  18 -16   17.43    8.84
   8  18 -16    9.98    7.20
   6  18 -16    9.37    6.46
   4  18 -16    1.78    6.30
   4 -18 -16   -6.33    5.84
   2  18 -16    1.60    7.11
   2 -18 -16   14.47    8.00
   0  18 -16   16.40   10.39
   0 -18 -16   10.42    7.76
  -2  18 -16   26.01   11.65
  -2 -18 -16   34.08   10.02
  13  19 -16   18.04    8.60
  11  19 -16   28.43    9.30
   9  19 -16   15.28    8.61
   7  19 -16   12.63    7.39
   5  19 -16   12.03    6.81
   3  19 -16   16.35    8.58
   1  19 -16   -2.17    7.55
   1 -19 -16    6.07    6.11
  -1  19 -16   11.32   10.41
  -1 -19 -16    1.96    7.78
  14  20 -16   20.87    9.10
  12  20 -16   15.96    7.59
  10  20 -16    8.71    6.39
   8  20 -16    5.42    6.58
   6  20 -16   -1.62    5.92
   4  20 -16   -6.46    6.20
   2  20 -16    3.74    8.84
   0  20 -16   12.40    9.88
  13  21 -16    8.94    8.22
  11  21 -16   23.89   10.31
   9  21 -16   21.30    7.98
   7  21 -16    4.77    6.58
   5  21 -16   -0.51    6.07
   3  21 -16    7.17    9.74
   1  21 -16   -1.50    9.54
  12  22 -16   10.32    7.56
  10  22 -16    7.38    7.64
   8  22 -16   10.11    5.78
   6  22 -16    0.35    5.04
   4  22 -16    2.17    9.36
   2  22 -16    5.54   10.33
   9  23 -16   -5.16    4.70
   7  23 -16    1.00    5.05
   5  23 -16   -7.98    4.69
  20   0 -17    0.71    5.33
  18   0 -17    3.15    5.37
  16   0 -17    1.74    4.36
  14   0 -17    1.76    5.21
  12   0 -17    1.95    4.24
  10   0 -17    2.95    4.01
   8   0 -17    3.36    3.82
   6   0 -17   -1.28    4.22
   4   0 -17   -0.28    3.89
   2   0 -17    5.24    5.04
   0   0 -17   -0.25    5.12
  -2   0 -17   -0.41    5.72
  -4   0 -17    2.11    5.94
  -6   0 -17   -0.79    6.50
  21   1 -17    4.77    4.07
  21  -1 -17    1.05    4.63
  19  -1 -17    3.21    5.28
  19   1 -17    4.83    5.97
  17   1 -17    4.61    6.28
  17  -1 -17    5.18    5.13
  15   1 -17   10.34    6.81
  15  -1 -17    7.69    6.02
  13   1 -17  107.19   15.17
  13  -1 -17   73.98   12.71
  11  -1 -17   41.14    9.38
  11   1 -17   57.48   10.82
   9  -1 -17  105.33   14.75
   9   1 -17  120.46   15.36
   7   1 -17   62.12   11.14
   7  -1 -17   34.60    8.98
   5  -1 -17   30.76    8.79
   5   1 -17   44.05    9.52
   3  -1 -17   29.96    8.85
   3   1 -17   24.15    8.13
   1   1 -17    3.33    4.86
   1  -1 -17    5.09    5.19
  -1   1 -17   12.81    7.17
  -1  -1 -17    7.18    6.54
  -3  -1 -17    2.94    5.79
  -3   1 -17    1.06    5.82
  -5  -1 -17   34.09   10.84
  -5   1 -17   42.54   12.08
  -7   1 -17   10.92    8.77
  -7  -1 -17   11.07    8.60
  20   2 -17   18.08    8.95
  20  -2 -17   17.17    7.34
  18   2 -17   15.57    7.36
  18  -2 -17   27.81    9.44
  16   2 -17   25.64    8.90
  16  -2 -17   36.12    9.35
  14  -2 -17   49.36   10.53
  14   2 -17   36.96    9.61
  12   2 -17    0.25    4.31
  12  -2 -17    4.86    4.43
  10  -2 -17    3.88    3.89
  10   2 -17    8.40    4.97
   8   2 -17    4.41    4.33
   8  -2 -17    2.75    4.41
   6  -2 -17    8.49    5.17
   6   2 -17   19.66    6.82
   4  -2 -17    3.31    4.66
   4   2 -17   -2.60    4.14
   2   2 -17   57.53   11.57
   2  -2 -17   71.06   13.08
   0  -2 -17  135.37   18.68
   0   2 -17  145.13   18.50
  -2   2 -17   81.22   14.95
  -2  -2 -17  127.84   17.90
  -4  -2 -17   11.90    7.48
  -4   2 -17   22.85    8.71
  -6  -2 -17   -0.72    6.46
  -6   2 -17   -1.06    5.61
  21   3 -17   10.77    9.19
  21  -3 -17   10.39    5.05
  19  -3 -17    3.25    5.96
  19   3 -17    7.94    7.14
  17   3 -17   25.08    8.97
  17  -3 -17   30.82   10.24
  15  -3 -17    4.63    5.65
  15   3 -17   18.63    7.52
  13   3 -17    3.09    4.70
  13  -3 -17    7.60    4.97
  11  -3 -17   28.68    7.43
  11   3 -17   39.26    9.39
   9   3 -17    9.43    5.43
   9  -3 -17    8.15    5.08
   7  -3 -17  118.44   16.02
   7   3 -17  108.00   14.46
   5  -3 -17   26.12    8.34
   5   3 -17   18.66    6.62
   3  -3 -17    4.75    5.70
   3   3 -17   16.83    6.38
   1  -3 -17   46.82   11.58
   1   3 -17   37.19    9.38
  -1  -3 -17   12.94    6.98
  -1   3 -17   14.33    7.43
  -3  -3 -17    6.95    6.10
  -3   3 -17    0.69    5.63
  -5  -3 -17   17.10    8.88
  -5   3 -17   28.61   10.04
  -7  -3 -17    6.65    8.33
  -7   3 -17   13.38    9.49
  20  -4 -17   23.65    8.77
  20   4 -17   11.70    8.86
  18   4 -17   30.52    9.43
  18  -4 -17    8.68    7.02
  16  -4 -17   21.34    8.26
  16   4 -17   26.35    8.94
  14  -4 -17    1.65    4.55
  14   4 -17   -0.72    4.71
  12   4 -17   15.44    6.61
  12  -4 -17   10.60    5.21
  10  -4 -17   19.60    6.70
  10   4 -17   18.27    6.44
   8  -4 -17   19.36    6.61
   8   4 -17   23.11    7.15
   6  -4 -17   40.90    9.73
   6   4 -17   51.54    9.92
   4  -4 -17   -3.16    3.67
   4   4 -17    6.64    5.40
   2  -4 -17   20.40    8.11
   2   4 -17   15.57    6.76
   0   4 -17   19.55    7.83
   0  -4 -17   12.09    7.33
  -2  -4 -17   21.31    8.98
  -2   4 -17   28.83    9.75
  -4  -4 -17   -1.45    6.26
  -4   4 -17   -3.16    5.60
  -6   4 -17    8.37    7.72
  -6  -4 -17    0.74    7.18
  21  -5 -17    3.75    5.05
  21   5 -17    6.56    8.78
  19   5 -17    4.65    7.48
  19  -5 -17    2.83    5.62
  17  -5 -17   -1.63    4.46
  17   5 -17    3.50    5.06
  15   5 -17    1.67    4.91
  15  -5 -17    4.07    4.88
  13  -5 -17   12.57    5.48
  13   5 -17    4.00    5.06
  11   5 -17   11.50    5.83
  11  -5 -17   15.07    5.86
   9  -5 -17   32.13    8.08
   9   5 -17   34.57    8.10
   7  -5 -17   17.69    6.91
   7   5 -17   16.30    6.09
   5  -5 -17    9.61    5.16
   5   5 -17   10.00    5.51
   3   5 -17    0.32    4.36
   3  -5 -17    2.80    5.49
   1  -5 -17    1.65    6.09
   1   5 -17    4.97    5.28
  -1  -5 -17    6.78    6.60
  -1   5 -17    7.70    6.14
  -3  -5 -17   14.23    7.39
  -3   5 -17   -1.25    5.00
  -5   5 -17   -5.96    6.29
  -5  -5 -17    5.57    7.58
  -7  -5 -17   -1.00    8.15
  -7   5 -17   -2.04    6.62
  20   6 -17    0.64    6.46
  20  -6 -17   -1.26    4.92
  18  -6 -17   35.67   10.56
  18   6 -17   37.78   11.13
  16  -6 -17   33.60    9.25
  16   6 -17   25.96    8.67
  14  -6 -17   -0.09    4.72
  14   6 -17    6.56    5.09
  12   6 -17    5.62    5.18
  12   6 -17    3.99    4.63
  12  -6 -17    2.66    4.27
  10   6 -17   10.57    5.70
  10  -6 -17    6.65    4.73
   8   6 -17   33.07    8.20
   8  -6 -17   35.58    9.09
   6  -6 -17   11.32    5.79
   6   6 -17    8.83    5.38
   4   6 -17   -0.92    3.96
   4  -6 -17    2.58    4.38
   2  -6 -17    8.13    5.84
   2   6 -17    4.17    5.20
   0   6 -17   15.79    6.98
   0  -6 -17   14.48    7.17
  -2  -6 -17   11.53    7.25
  -2   6 -17    4.50    6.80
  -4  -6 -17    0.22    6.62
  -4   6 -17    3.38    6.08
  -6  -6 -17   -5.32    6.32
  -6   6 -17   11.44    7.95
  21  -7 -17   24.83    8.39
  21   7 -17   13.66   11.22
  19   7 -17   38.00   12.15
  19  -7 -17   20.42    8.84
  17  -7 -17   88.34   15.72
  17   7 -17   92.65   15.49
  15   7 -17  103.93   16.36
  15  -7 -17   59.84   12.40
  13   7 -17   20.61    7.30
  13  -7 -17   29.14    8.18
  13   7 -17   21.29    7.39
  11  -7 -17    5.69    5.32
  11   7 -17    8.17    5.54
  11   7 -17   11.21    5.58
   9   7 -17    3.41    4.49
   9  -7 -17   -0.98    3.64
   7   7 -17    0.53    3.86
   7  -7 -17   11.04    5.16
   5  -7 -17   17.61    7.13
   5   7 -17   14.78    5.98
   3   7 -17   30.43    7.99
   3  -7 -17   35.92    9.61
   1   7 -17   96.98   14.15
   1  -7 -17  101.51   16.24
  -1   7 -17   30.04    9.07
  -1  -7 -17   29.28    9.09
  -3   7 -17   40.07   10.57
  -3  -7 -17   41.49   11.30
  -5   7 -17    0.01    6.62
  -5  -7 -17   -1.96    6.44
  20  -8 -17    8.30    7.09
  20   8 -17   16.39    9.48
  18   8 -17    7.36    7.50
  18  -8 -17   -3.05    5.26
  16   8 -17    5.66    6.26
  16  -8 -17   -3.77    4.75
  14   8 -17    1.80    4.90
  14  -8 -17    2.98    5.14
  12   8 -17   19.52    7.42
  12  -8 -17   29.29    8.45
  12   8 -17   20.79    7.55
  10  -8 -17   16.54    5.60
  10   8 -17    3.95    5.02
  10   8 -17    6.79    5.28
   8  -8 -17   14.19    5.82
   8   8 -17    4.17    4.42
   6  -8 -17    4.25    5.31
   6   8 -17    7.50    5.05
   4  -8 -17   19.49    7.26
   4   8 -17    8.96    5.61
   2   8 -17    1.80    5.41
   2  -8 -17   -1.57    4.29
   0  -8 -17   -1.56    5.79
   0   8 -17    2.73    4.70
  -2  -8 -17   15.78    8.37
  -2   8 -17    3.68    6.61
  -4  -8 -17    9.37    6.59
  -4   8 -17    6.96    6.25
  -6  -8 -17   -6.09    3.86
  19   9 -17    5.51    7.51
  19  -9 -17    0.64    5.24
  17  -9 -17    4.80    6.24
  17   9 -17   -2.11    5.23
  15  -9 -17   -1.67    4.36
  15   9 -17   -0.32    5.53
  13   9 -17    3.80    5.29
  13  -9 -17   10.46    5.88
  13   9 -17    4.90    5.42
  11   9 -17   21.91    7.22
  11  -9 -17    7.74    5.60
  11   9 -17   25.67    7.73
   9  -9 -17    0.47    4.54
   9   9 -17    3.72    4.35
   9   9 -17   -3.12    3.42
   7  -9 -17    6.55    4.34
   7   9 -17    0.61    4.88
   7   9 -17    1.01    3.78
   5   9 -17   -0.99    3.42
   5  -9 -17    0.84    4.81
   3  -9 -17   -0.10    5.47
   3   9 -17    3.56    5.16
   1  -9 -17   20.94    8.25
   1   9 -17   30.24    8.39
  -1  -9 -17   11.12    6.67
  -1   9 -17    6.62    6.54
  -3  -9 -17    4.28    6.04
  -5  -9 -17    7.51    5.68
  20 -10 -17    1.03    6.21
  20  10 -17   -2.05    8.08
  18  10 -17   -2.92    5.73
  18 -10 -17    3.41    5.20
  16  10 -17    1.08    5.34
  16 -10 -17    7.12    5.93
  14  10 -17   34.11    9.92
  14 -10 -17   13.05    6.97
  12  10 -17    4.98    5.73
  12  10 -17   10.18    6.18
  12 -10 -17   -3.84    4.14
  10 -10 -17   68.27   11.79
  10  10 -17   83.92   12.92
  10  10 -17   60.84   11.68
   8  10 -17  167.90   19.34
   8 -10 -17  141.90   17.61
   8  10 -17  165.29   16.71
   6  10 -17   49.78    9.62
   6 -10 -17   60.84   11.85
   6  10 -17   46.40   10.98
   4 -10 -17   21.08    7.23
   4  10 -17   39.26    8.61
   2 -10 -17    0.66    6.20
   2  10 -17    7.36    5.47
   0  10 -17   -2.75    4.47
   0 -10 -17   -4.86    5.06
  -2 -10 -17    8.53    6.66
  -4 -10 -17    1.81    6.40
  19 -11 -17   32.09    9.96
  19  11 -17   32.58   10.87
  17 -11 -17   20.92    8.10
  17  11 -17   35.41   10.12
  15 -11 -17   48.86   10.82
  15  11 -17   46.36   11.39
  13  11 -17   23.03    8.26
  13 -11 -17   31.12    8.89
  13  11 -17   17.88    7.29
  11 -11 -17    7.38    5.11
  11  11 -17    3.56    5.27
  11  11 -17    7.11    5.19
   9  11 -17   14.59    6.22
   9 -11 -17   13.23    6.27
   9  11 -17   11.60    5.69
   7  11 -17   14.07    7.02
   7  11 -17   19.56    6.46
   7 -11 -17   25.98    7.83
   5 -11 -17    8.99    6.02
   5  11 -17    7.76    5.54
   5  11 -17   10.96    6.38
   3  11 -17   29.39    9.13
   3  11 -17   10.06    5.99
   3 -11 -17   25.22    8.68
   1 -11 -17   17.58    8.07
   1  11 -17   23.45    9.88
  -1 -11 -17   47.31   11.54
  -3 -11 -17   22.43    8.99
  -5  11 -17   11.45   11.16
  -5 -11 -17   -6.92    4.53
  18  12 -17   26.56   10.27
  18 -12 -17   25.70    9.47
  16  12 -17    7.54    7.03
  16 -12 -17   15.60    7.40
  14  12 -17   21.44    8.29
  14 -12 -17    5.16    6.11
  12  12 -17    3.76    5.04
  12 -12 -17   15.52    6.68
  12  12 -17    4.87    5.15
  10 -12 -17    3.88    4.84
  10  12 -17   -1.87    4.16
  10  12 -17    5.76    4.95
   8 -12 -17   11.54    6.05
   8  12 -17   11.81    6.09
   8  12 -17   18.04    7.78
   6 -12 -17    3.55    4.99
   6  12 -17    8.28    6.78
   6  12 -17   -0.15    4.28
   4 -12 -17   34.53    9.19
   4  12 -17   28.32    9.09
   2 -12 -17   -2.77    5.53
   2  12 -17    7.88    8.20
   0 -12 -17   15.30    8.05
   0  12 -17   10.16    7.70
  -2 -12 -17   19.66    8.03
  -2  12 -17   24.52   10.92
  -4  12 -17   -4.01    9.08
  -4 -12 -17   -0.87    4.88
  19  13 -17    0.11    7.95
  19 -13 -17    8.17    7.44
  17 -13 -17   19.29    9.47
  17  13 -17    9.45    6.66
  15  13 -17    4.61    5.82
  15 -13 -17    1.46    5.13
  13 -13 -17    7.44    6.16
  13  13 -17    4.49    5.99
  13  13 -17   14.04    6.88
  11  13 -17   13.04    6.26
  11  13 -17    5.22    5.59
  11 -13 -17   19.04    7.21
   9  13 -17    2.76    5.62
   9  13 -17    5.86    6.21
   9 -13 -17    0.40    4.88
   7  13 -17    5.93    6.15
   7 -13 -17    0.87    5.28
   5 -13 -17    1.74    5.84
   5  13 -17   -0.06    5.95
   3  13 -17    2.21    5.94
   3 -13 -17    1.39    5.73
   1 -13 -17   11.23    7.58
   1  13 -17    7.20    7.82
  -1 -13 -17    6.85    8.06
  -1  13 -17    9.56    8.73
  -3 -13 -17   10.48    7.28
  -3  13 -17    9.83    9.01
  18  14 -17   13.20    8.92
  16 -14 -17    5.47    5.82
  16  14 -17    9.08    7.44
  14  14 -17   11.31    7.03
  14 -14 -17    2.52    5.42
  12  14 -17    8.36    6.54
  12 -14 -17    1.07    5.55
  12  14 -17   -5.18    5.95
  10  14 -17   18.96    8.75
  10 -14 -17   18.31    6.77
   8  14 -17   17.01    7.41
   8 -14 -17    9.64    6.13
   6 -14 -17   23.51    8.19
   6  14 -17    3.30    6.42
   4 -14 -17    2.57    6.13
   4  14 -17    2.38    5.56
   2  14 -17    1.57    5.90
   2 -14 -17    2.72    6.20
   0  14 -17    6.11    7.84
   0 -14 -17    6.19    6.99
  -2 -14 -17   12.53    7.71
  -2  14 -17    2.36    8.20
  -4  14 -17   10.09   10.99
  -4 -14 -17    3.00    5.31
  17  15 -17   -1.71    6.59
  15  15 -17    3.04    5.99
  13  15 -17   -0.12    6.41
  13 -15 -17   13.04    6.81
  11  15 -17   16.52    7.96
  11 -15 -17   29.92    8.65
   9  15 -17   40.08   11.14
   9 -15 -17   30.82    9.24
   7 -15 -17    5.61    6.04
   7  15 -17    7.43    7.28
   5 -15 -17   21.46    8.58
   5  15 -17   30.18   10.24
   3  15 -17   -1.50    6.85
   3 -15 -17   -2.99    5.83
   1  15 -17   13.55    8.55
   1 -15 -17   -4.12    5.55
  -1 -15 -17    7.43    7.43
  -1  15 -17   -3.21    7.27
  -3 -15 -17   -0.56    5.90
  -3  15 -17    1.04    8.85
  12 -16 -17   -6.26    5.13
  12  16 -17    0.72    6.43
  10 -16 -17    6.38    6.52
  10  16 -17   -2.45    5.70
   8 -16 -17    4.56    5.53
   8  16 -17    4.03    6.39
   6  16 -17   -2.01    5.38
   6 -16 -17    5.36    5.64
   4 -16 -17   -1.89    5.86
   4  16 -17   -0.82    5.91
   2 -16 -17   26.11    9.81
   2  16 -17   12.61    9.59
   0 -16 -17   36.04   10.71
   0  16 -17   48.55   13.75
  -2 -16 -17   16.34    8.37
  -2  16 -17   43.44   14.00
  13  17 -17   18.10    8.59
  11  17 -17   -2.92    5.47
   9 -17 -17    5.65    6.22
   9  17 -17   -0.11    5.62
   7 -17 -17   -1.79    6.30
   7  17 -17   10.90    7.63
   5  17 -17   -2.15    5.29
   5 -17 -17    4.96    6.11
   3  17 -17   -3.02    6.88
   3 -17 -17    2.49    6.77
   1  17 -17   -3.41    7.44
   1 -17 -17    7.73    7.13
  -1  17 -17   -4.12    8.39
  -1 -17 -17   12.75    7.43
  14  18 -17   17.94    8.50
  12  18 -17    5.66    6.71
  10  18 -17   -2.44    5.80
   8  18 -17    5.78    6.09
   6 -18 -17   11.99    7.39
   6  18 -17    7.24    6.59
   4 -18 -17    1.59    5.73
   4  18 -17   -0.61    5.64
   2  18 -17   28.82   11.28
   2 -18 -17   13.77    7.74
   0 -18 -17    9.18    7.47
   0  18 -17   11.78   10.94
  13  19 -17   -4.23    6.29
  11  19 -17   41.88   11.79
   9  19 -17   94.43   16.71
   7  19 -17   51.55   12.64
   5  19 -17   -1.76    5.29
   3 -19 -17   -8.64    6.02
   3  19 -17   -4.05    7.25
   1  19 -17    6.67   10.19
   1 -19 -17    7.30    6.75
  12  20 -17    2.87    6.96
  10  20 -17    2.26    6.05
   8  20 -17    6.20    7.49
   6  20 -17   -3.38    4.95
   4  20 -17   -0.08    8.10
   2  20 -17    5.92    9.89
  11  21 -17   19.67    8.83
   9  21 -17   -3.24    4.75
   7  21 -17   -2.56    4.68
   5  21 -17   -2.85    4.70
   3  21 -17    6.37   11.02
   8  22 -17    4.88    5.63
   6  22 -17    4.21    5.36
  20   0 -18   -2.19    4.86
  18   0 -18   76.27   14.45
  16   0 -18   97.82   16.00
  14   0 -18    7.05    5.65
  12   0 -18    1.56    4.49
  10   0 -18    5.52    4.94
   8   0 -18   12.83    6.32
   6   0 -18    8.74    5.92
   4   0 -18   43.21   10.14
   2   0 -18  124.24   17.88
   0   0 -18   97.06   16.47
  -2   0 -18   87.45   15.56
  -4   0 -18    3.56    6.56
  -6   0 -18   -3.91    7.68
  21  -1 -18   -4.27    3.94
  21   1 -18    5.30    4.70
  19   1 -18    9.31    6.04
  19  -1 -18    5.56    5.31
  17  -1 -18    0.52    5.21
  17   1 -18   -1.88    5.41
  15   1 -18    2.83    4.52
  15  -1 -18    3.03    5.05
  13  -1 -18   50.16   11.10
  13   1 -18   56.98   12.24
  11  -1 -18   74.44   12.55
  11   1 -18   53.75   11.01
   9  -1 -18    1.96    3.63
   9   1 -18    1.19    4.63
   7  -1 -18   30.32    9.08
   7   1 -18   24.82    7.92
   5  -1 -18    3.41    5.01
   5   1 -18    2.57    5.30
   3   1 -18   -4.59    3.86
   3  -1 -18    0.53    4.75
   1   1 -18   28.34    9.59
   1  -1 -18   28.28    9.25
  -1  -1 -18    9.29    7.09
  -1   1 -18    9.44    7.07
  -3   1 -18    8.18    6.95
  -3  -1 -18    1.47    5.84
  -5  -1 -18   -3.89    6.33
  -5   1 -18    1.14    7.43
  20   2 -18   -0.39    6.49
  20  -2 -18   -1.20    4.08
  18   2 -18   17.61    9.04
  18  -2 -18   30.90    9.09
  16   2 -18   -1.91    5.44
  16  -2 -18    1.68    5.26
  14   2 -18   36.55   10.09
  14  -2 -18   20.75    7.53
  12  -2 -18   13.07    5.62
  12   2 -18   19.34    7.71
  10  -2 -18    6.11    5.27
  10   2 -18   14.13    5.86
   8   2 -18    9.88    5.48
   8  -2 -18   33.67    8.72
   6   2 -18    6.71    5.24
   6  -2 -18    0.10    3.91
   4  -2 -18    6.11    6.15
   4   2 -18    0.80    5.00
   2   2 -18    5.06    6.09
   2  -2 -18   -2.14    5.21
   0   2 -18   12.52    7.51
   0  -2 -18   14.61    8.04
  -2  -2 -18   25.90    9.29
  -2   2 -18   17.78    8.33
  -4   2 -18   11.50    7.19
  -4  -2 -18    5.84    7.68
  -6   2 -18   -6.71    6.81
  -6  -2 -18   11.89    9.35
  21  -3 -18    5.08    4.35
  21   3 -18   -3.14    7.84
  19  -3 -18   -1.94    4.94
  19   3 -18    2.85    6.74
  17  -3 -18    1.29    4.56
  17   3 -18    2.20    5.49
  15   3 -18   -3.33    4.97
  15  -3 -18    7.46    5.58
  13  -3 -18   62.50   12.58
  13   3 -18   60.06   12.13
  11  -3 -18   75.38   12.54
  11   3 -18   56.01   11.31
   9  -3 -18   20.47    6.58
   9   3 -18   20.86    6.73
   7   3 -18   14.47    5.91
   7  -3 -18   20.77    7.48
   5  -3 -18   24.22    8.77
   5   3 -18   24.66    7.73
   3  -3 -18    1.80    5.34
   3   3 -18   -2.63    4.25
   1  -3 -18    1.49    6.15
   1   3 -18    5.79    6.76
  -1   3 -18    3.98    5.91
  -1  -3 -18    1.42    5.54
  -3  -3 -18    7.71    6.85
  -3   3 -18    3.63    6.21
  -5  -3 -18   24.51   11.26
  -5   3 -18   18.56    9.22
  20   4 -18   43.19   12.72
  18  -4 -18   54.13   12.34
  18   4 -18   26.61    9.71
  16  -4 -18   26.93    8.80
  16   4 -18   20.86    8.59
  14  -4 -18   41.94   10.50
  14   4 -18   23.11    8.42
  12   4 -18   58.06   12.07
  12  -4 -18   66.68   12.31
  10  -4 -18    0.72    3.63
  10   4 -18   12.12    6.00
   8   4 -18    3.79    4.22
   8  -4 -18    4.17    4.49
   6   4 -18    1.87    4.65
   6  -4 -18    9.63    5.88
   4   4 -18   19.57    7.50
   4  -4 -18   25.39    8.51
   2   4 -18   44.03   10.79
   2  -4 -18   68.11   13.30
   0   4 -18   29.22    9.17
   0  -4 -18   52.61   13.11
  -2  -4 -18    7.73    7.02
  -2   4 -18    5.51    6.81
  -4   4 -18    8.97    6.66
  -4  -4 -18   10.18    7.47
  21   5 -18   25.98   12.02
  21  -5 -18   -2.79    5.23
  19  -5 -18   22.94    8.80
  19   5 -18   27.17   10.58
  17   5 -18    9.72    6.76
  17  -5 -18   16.10    7.90
  15   5 -18    8.08    5.89
  15  -5 -18   21.88    8.19
  13   5 -18   19.84    6.73
  13  -5 -18   10.58    6.52
  13   5 -18   16.79    7.28
  11   5 -18    1.40    4.34
  11  -5 -18    0.87    4.28
   9  -5 -18    0.59    4.46
   9   5 -18    1.74    4.17
   7  -5 -18    3.55    4.97
   7   5 -18    2.71    4.86
   5  -5 -18   76.24   13.48
   5   5 -18   41.78    9.36
   3  -5 -18   59.90   12.99
   3   5 -18   95.02   14.63
   1   5 -18   82.19   14.08
   1  -5 -18   53.59   12.50
  -1  -5 -18   32.87   10.62
  -1   5 -18   18.59    8.33
  -3  -5 -18   21.31    9.56
  -3   5 -18   16.29    7.95
  -5  -5 -18   -6.09    7.54
  -5   5 -18   -9.74    6.12
  20   6 -18   21.61   10.44
  20  -6 -18    8.24    5.93
  18   6 -18   12.90    7.70
  18  -6 -18   15.99    7.71
  16  -6 -18    9.74    6.10
  16   6 -18   19.76    7.84
  14  -6 -18   -2.66    5.11
  14   6 -18    7.30    5.86
  12   6 -18    4.85    5.57
  12  -6 -18   14.42    6.42
  12   6 -18   21.05    8.13
  10  -6 -18    8.83    5.46
  10   6 -18    0.48    4.31
   8   6 -18   20.08    6.71
   8  -6 -18   18.34    6.64
   6  -6 -18   16.27    6.87
   6   6 -18   12.44    6.31
   4   6 -18    8.50    5.74
   4  -6 -18    9.98    6.42
   2  -6 -18    1.90    5.97
   2   6 -18    1.31    5.29
   0  -6 -18    7.68    6.88
   0   6 -18   20.10    8.54
  -2  -6 -18   -1.35    5.50
  -2   6 -18   21.98    8.59
  -4   6 -18    6.13    6.80
  -4  -6 -18    8.32    8.21
  19   7 -18   12.27    8.79
  19  -7 -18    1.71    5.21
  17   7 -18   15.12    8.01
  17  -7 -18   16.37    6.59
  15   7 -18    3.83    5.66
  15  -7 -18    3.02    5.49
  13   7 -18    7.08    5.95
  13  -7 -18   10.10    5.97
  13   7 -18   14.29    6.42
  11   7 -18   10.24    6.23
  11   7 -18    4.76    5.65
  11  -7 -18   15.23    6.48
   9   7 -18   25.40    7.36
   9  -7 -18   24.83    8.22
   7   7 -18   -0.65    4.51
   7  -7 -18    5.61    4.73
   5   7 -18   12.26    5.86
   5  -7 -18    2.11    5.22
   3  -7 -18    6.84    6.56
   3   7 -18    8.07    5.37
   1  -7 -18    8.12    6.30
   1   7 -18   -0.93    5.11
  -1  -7 -18   -6.17    4.97
  -1   7 -18    6.21    6.60
  -3  -7 -18   -0.39    5.29
  -3   7 -18    2.27    6.40
  -5   7 -18    1.79    6.90
  -5  -7 -18   -3.40    8.28
  20   8 -18    8.95    9.08
  20  -8 -18    5.71    5.95
  18   8 -18   14.52    8.30
  18  -8 -18   15.88    7.29
  16   8 -18    5.56    5.53
  16  -8 -18   11.46    6.67
  14   8 -18   28.47    8.90
  14  -8 -18   19.85    8.34
  12  -8 -18    6.56    5.64
  12   8 -18    6.20    5.37
  12   8 -18    5.66    5.68
  10   8 -18   71.37   13.03
  10  -8 -18   81.99   13.92
  10   8 -18   81.47   13.10
   8   8 -18    8.01    5.76
   8  -8 -18    8.43    5.52
   6   8 -18    0.68    4.40
   6  -8 -18    6.39    5.78
   4   8 -18    7.39    4.88
   4  -8 -18    4.01    6.27
   2  -8 -18   50.47   12.03
   2   8 -18   53.31   11.18
   0   8 -18    7.76    7.06
   0  -8 -18   15.91    8.45
  -2   8 -18    0.97    6.60
  -2  -8 -18   -4.99    4.46
  -4  -8 -18    0.22    4.68
  19  -9 -18   51.64   12.46
  19   9 -18   35.44   11.38
  17   9 -18   95.47   16.56
  17  -9 -18  103.41   16.77
  15  -9 -18   19.66    7.44
  15   9 -18    8.30    6.98
  13  -9 -18    4.09    5.23
  13   9 -18   -1.64    5.16
  13   9 -18   -1.06    4.75
  11   9 -18    1.00    5.35
  11   9 -18    2.42    5.19
  11  -9 -18    4.81    5.47
   9   9 -18    8.82    5.60
   9   9 -18    7.53    5.62
   9  -9 -18    5.39    5.65
   7  -9 -18    5.64    5.91
   7   9 -18    0.27    5.40
   7   9 -18    8.38    5.02
   5   9 -18   39.34    8.76
   5  -9 -18   36.84   10.38
   3  -9 -18   51.84   12.53
   3   9 -18   85.04   12.95
   1  -9 -18  133.11   19.78
   1   9 -18  129.45   16.65
  -1  -9 -18   33.31   10.79
  -1   9 -18   22.04    9.01
  -3  -9 -18   -3.04    4.67
  18 -10 -18   13.33    7.70
  18  10 -18   19.09    9.54
  16  10 -18   10.49    6.64
  16 -10 -18    5.13    5.16
  14 -10 -18   -0.42    6.05
  14  10 -18    6.20    6.05
  12  10 -18   19.55    7.76
  12  10 -18   44.24   10.35
  12 -10 -18   22.67    8.71
  10  10 -18    6.87    5.74
  10 -10 -18    8.26    5.97
  10  10 -18    6.43    5.77
   8 -10 -18   11.94    6.36
   8  10 -18    8.49    5.19
   8  10 -18    8.16    6.40
   6  10 -18   -0.30    4.22
   6  10 -18   -5.23    4.59
   6 -10 -18    1.39    5.15
   4  10 -18   22.92    7.19
   4 -10 -18   15.97    7.49
   2  10 -18    3.02    5.33
   2 -10 -18   -3.12    5.51
   0 -10 -18   39.57   11.80
  -2 -10 -18   -6.23    5.27
  -4 -10 -18    0.51    4.47
  19  11 -18   -2.25    7.61
  19 -11 -18   -5.62    5.22
  17  11 -18   20.15    8.82
  17 -11 -18    3.19    5.88
  15  11 -18    7.00    6.62
  15 -11 -18   15.80    6.98
  13  11 -18   18.89    7.89
  13  11 -18    8.72    6.01
  13 -11 -18   12.22    6.65
  11  11 -18    8.61    6.48
  11 -11 -18    8.37    6.36
  11  11 -18    7.76    5.99
   9  11 -18    6.81    5.46
   9 -11 -18    5.58    5.80
   9  11 -18    4.56    6.26
   7  11 -18   13.85    7.88
   7 -11 -18   15.64    7.41
   7  11 -18   18.81    6.56
   5 -11 -18   -2.81    5.68
   5  11 -18   -1.19    5.97
   5  11 -18    4.10    4.31
   3  11 -18   16.05    8.27
   3 -11 -18    9.18    7.38
   1  11 -18    0.38    6.51
   1 -11 -18   15.51    7.42
  -3 -11 -18   -5.03    3.85
  -3  11 -18    8.98    9.47
  18 -12 -18    5.74    5.68
  18  12 -18   16.90    9.13
  16 -12 -18    2.84    5.72
  16  12 -18    4.32    6.25
  14  12 -18   23.67    8.26
  14 -12 -18   21.19    8.94
  12  12 -18    9.23    6.81
  12  12 -18   10.34    6.80
  12 -12 -18   10.43    6.93
  10 -12 -18    8.09    6.31
  10  12 -18   12.48    7.31
  10  12 -18   23.27    7.91
   8  12 -18   52.27   10.56
   8  12 -18   69.61   14.10
   8 -12 -18   90.32   14.79
   6 -12 -18    4.06    6.02
   6  12 -18   -4.20    5.28
   4 -12 -18   -9.16    4.70
   4  12 -18   -1.21    5.42
   2  12 -18    3.48    7.14
   2 -12 -18    3.52    6.08
   0 -12 -18    7.95    6.87
   0  12 -18   17.75    9.48
  -2  12 -18   10.01    9.72
  -2 -12 -18   -1.23    5.32
  17  13 -18   17.96    8.87
  17 -13 -18    2.96    5.58
  15  13 -18    0.50    6.21
  15 -13 -18    2.14    5.08
  13  13 -18   -1.24    5.88
  13 -13 -18    5.27    6.76
  13  13 -18    6.25    6.91
  11 -13 -18    7.39    6.47
  11  13 -18    2.90    6.10
  11  13 -18   30.86   10.31
   9  13 -18    1.10    5.97
   9 -13 -18   15.21    6.72
   7 -13 -18   -1.03    5.33
   7  13 -18    4.60    6.37
   5  13 -18   16.79    8.33
   5 -13 -18   15.80    8.29
   3 -13 -18   23.24    8.94
   3  13 -18    9.64    7.66
   1  13 -18    3.76    7.60
   1 -13 -18    4.33    6.42
  -1 -13 -18    0.62    5.59
  -1  13 -18    5.07    8.47
  -3  13 -18   11.68   10.63
  -3 -13 -18   -3.78    4.56
  16 -14 -18    4.48    6.04
  16  14 -18    2.83    7.15
  14 -14 -18    9.00    6.30
  14  14 -18    2.47    5.94
  12  14 -18    9.48    7.08
  12 -14 -18   11.01    6.15
  10 -14 -18   10.09    6.18
  10  14 -18    1.57    5.90
   8  14 -18    2.80    6.23
   8 -14 -18    2.40    6.21
   6 -14 -18    9.91    6.96
   6  14 -18   14.98    8.36
   4 -14 -18   25.75    9.76
   4  14 -18   37.48   10.81
   2 -14 -18   56.78   12.81
   2  14 -18   49.76   13.62
   0 -14 -18   16.52    8.38
   0  14 -18   46.09   14.21
  -2 -14 -18   -0.98    4.87
  -2  14 -18    9.51    9.97
  17  15 -18   13.60    8.42
  15 -15 -18    3.62    5.58
  13  15 -18    3.26    6.94
  13 -15 -18   11.01    6.30
  11 -15 -18    4.91    6.11
  11  15 -18    9.93    7.90
   9 -15 -18    4.81    5.63
   9  15 -18   -0.23    5.80
   7 -15 -18   -0.29    6.54
   7  15 -18    4.27    6.03
   5  15 -18   15.25    7.91
   5 -15 -18   19.26    8.61
   3 -15 -18    6.54    7.19
   3  15 -18    2.60    7.30
   1  15 -18    1.10    8.23
   1 -15 -18    0.38    6.69
  -1 -15 -18    4.31    7.00
  -1  15 -18    7.27    9.53
  14  16 -18    5.04    7.01
  12  16 -18   16.32    8.14
  12 -16 -18   14.02    7.52
  10 -16 -18    2.94    6.39
  10  16 -18   14.08    7.22
   8 -16 -18    5.48    6.60
   8  16 -18    0.80    5.54
   6 -16 -18   21.49    9.20
   6  16 -18    5.91    6.83
   4  16 -18    3.24    6.30
   4 -16 -18   -1.45    5.53
   2 -16 -18   14.35    8.35
   2  16 -18   22.60   11.27
   0 -16 -18    2.22    6.52
   0  16 -18    5.16    9.68
  13  17 -18   23.92    9.50
  11  17 -18   50.35   12.20
   9 -17 -18   35.44   10.09
   9  17 -18   39.44   10.59
   7 -17 -18   15.12    7.46
   7  17 -18   13.13    8.18
   5 -17 -18   33.95   11.12
   5  17 -18   20.60    8.83
   3  17 -18   -1.10    8.27
   3 -17 -18    3.37    6.15
   1  17 -18   -0.42    8.42
   1 -17 -18    4.64    6.33
  14  18 -18    4.42    6.57
  12  18 -18    5.85    7.32
  10  18 -18   14.20    8.02
   8  18 -18   -1.21    6.85
   6  18 -18    4.93    6.52
   6 -18 -18    5.28    6.47
   4 -18 -18    9.79    7.97
   4  18 -18   -3.19    4.79
   2  18 -18   -4.44    9.92
   2 -18 -18   -0.06    6.44
  13  19 -18    6.99    6.80
  11  19 -18    5.26    7.10
   9  19 -18    8.00    7.13
   7  19 -18   -1.73    4.88
   5  19 -18    1.58    4.41
   3 -19 -18   -6.74    6.17
   3  19 -18   -0.18    9.73
  10  20 -18   -4.50    5.69
   8  20 -18   -1.05    5.19
   6  20 -18    2.74    4.64
   4  20 -18    6.81   10.44
  20   0 -19   -0.93    4.01
  18   0 -19    2.68    4.87
  16   0 -19   -8.96    4.03
  14   0 -19   -3.62    4.56
  12   0 -19    0.55    4.96
  10   0 -19    1.98    4.77
   8   0 -19   -1.83    4.52
   6   0 -19   -4.21    4.89
   4   0 -19   -2.52    4.65
   2   0 -19   -0.72    5.64
   0   0 -19    1.75    6.12
  -2   0 -19   -6.24    5.86
  -4   0 -19    7.70    8.56
  19   1 -19    0.99    7.56
  19  -1 -19    3.61    4.66
  17   1 -19   -0.27    4.98
  17  -1 -19   -2.93    4.60
  15   1 -19   16.54    7.33
  15  -1 -19   28.95    8.75
  13   1 -19   17.05    7.53
  13  -1 -19   13.26    6.49
  11  -1 -19   55.71   11.88
  11   1 -19   44.03   10.52
   9  -1 -19    4.85    5.79
   9   1 -19   13.31    7.15
   7  -1 -19   20.39    7.87
   7   1 -19   17.01    7.41
   5   1 -19    7.23    5.84
   5  -1 -19   -1.80    4.81
   3  -1 -19   16.80    7.75
   3   1 -19    3.63    6.19
   1  -1 -19    7.84    6.52
   1   1 -19   21.45    8.92
  -1   1 -19   10.39    7.30
  -1  -1 -19   17.10    8.40
  -3   1 -19   13.29    9.03
  -3  -1 -19   11.25    8.62
  20   2 -19   42.54   12.87
  18  -2 -19   31.31    9.84
  18   2 -19   28.53   10.36
  16  -2 -19   33.19    9.84
  16   2 -19   19.03    8.03
  14   2 -19    0.63    5.76
  14  -2 -19    8.04    6.37
  12  -2 -19   25.01    8.71
  12   2 -19    6.37    5.95
  10   2 -19    0.06    3.95
  10  -2 -19    0.96    4.99
   8   2 -19    1.17    5.19
   8  -2 -19    9.74    6.22
   6   2 -19   33.14    9.17
   6  -2 -19   27.99    9.81
   4   2 -19   55.03   12.38
   4  -2 -19   89.82   15.67
   2  -2 -19   68.32   14.48
   2   2 -19   32.81    9.62
   0   2 -19   12.00    7.70
   0  -2 -19    3.63    7.47
  -2  -2 -19   -4.61    6.61
  -2   2 -19    9.67    7.81
  -4  -2 -19    5.40    7.81
  -4   2 -19    2.12    6.60
  19  -3 -19   -4.08    3.71
  19   3 -19   -0.03    5.95
  17  -3 -19    2.03    4.68
  17   3 -19    5.83    6.25
  15  -3 -19    3.43    4.81
  15   3 -19   -2.65    4.76
  13  -3 -19   44.14   10.52
  13   3 -19   40.37   10.61
  11  -3 -19   33.99    9.20
  11   3 -19   28.63    8.61
   9  -3 -19   -0.11    4.49
   9   3 -19    6.07    5.26
   7   3 -19   12.09    6.38
   7  -3 -19    3.05    5.60
   5  -3 -19   14.58    6.83
   5   3 -19   -0.74    4.96
   3   3 -19    6.71    6.58
   3  -3 -19   -3.42    4.86
   1   3 -19    6.80    6.82
   1  -3 -19    5.33    7.43
  -1  -3 -19    1.91    5.89
  -1   3 -19    5.90    6.49
  -3  -3 -19   -0.79    7.26
  -3   3 -19   -2.91    6.72
  20  -4 -19    1.56    4.26
  20   4 -19    4.54    8.84
  18   4 -19   -0.85    5.09
  18  -4 -19   -0.35    5.03
  16  -4 -19   21.71    7.56
  16   4 -19   26.49    9.03
  14   4 -19   35.33    9.68
  14  -4 -19   26.67    8.25
  12   4 -19   -6.43    4.06
  12  -4 -19    2.97    5.24
  10   4 -19   11.40    6.56
  10  -4 -19   26.32    8.27
   8   4 -19   13.30    6.60
   8  -4 -19   10.51    6.83
   6   4 -19    5.28    5.17
   6  -4 -19    3.20    5.38
   4   4 -19    6.69    6.32
   4  -4 -19    4.96    5.70
   2  -4 -19    2.23    6.44
   2   4 -19    2.44    6.66
   0   4 -19   10.28    7.23
   0  -4 -19    1.92    6.43
  -2   4 -19   -6.38    5.70
  -2  -4 -19    6.47    7.91
  -4   4 -19    7.22    7.72
  -4  -4 -19    5.96    8.33
  19   5 -19    1.04    7.30
  19  -5 -19   -1.07    4.95
  17   5 -19    2.26    6.07
  17  -5 -19   18.54    6.90
  15  -5 -19   11.45    5.96
  15   5 -19    6.20    5.06
  13   5 -19   57.11   11.02
  13   5 -19   82.02   13.91
  13  -5 -19   62.84   12.89
  11   5 -19   57.45   11.66
  11  -5 -19   63.03   12.47
   9   5 -19   15.82    6.78
   9  -5 -19   22.55    8.01
   7   5 -19    6.36    5.53
   7  -5 -19    1.04    4.77
   5  -5 -19    3.99    5.40
   5   5 -19   -0.57    4.62
   3   5 -19    5.68    6.17
   3  -5 -19   11.05    6.88
   1   5 -19    1.69    5.38
   1  -5 -19   -6.13    5.41
  -1  -5 -19  -10.89    5.38
  -1   5 -19    3.79    6.14
  -3  -5 -19   -4.50    6.94
  -3   5 -19   11.39    8.15
  20   6 -19    4.86    9.10
  20  -6 -19   -1.54    4.25
  18   6 -19    0.75    6.26
  18  -6 -19    1.85    5.37
  16   6 -19    0.40    5.18
  16  -6 -19   -4.51    4.46
  14   6 -19    5.81    6.04
  14  -6 -19   11.19    6.72
  12   6 -19   36.68   10.21
  12  -6 -19   27.99    8.56
  12   6 -19   39.66    9.86
  10  -6 -19   14.90    7.36
  10   6 -19   22.41    7.88
   8   6 -19   10.51    6.68
   8  -6 -19   -2.49    5.09
   6  -6 -19   27.31    8.91
   6   6 -19   30.28    8.26
   4  -6 -19   32.99    9.43
   4   6 -19   11.64    6.83
   2   6 -19   17.00    7.34
   2  -6 -19   20.15    8.41
   0   6 -19    0.34    6.64
   0  -6 -19    8.11    7.19
  -2  -6 -19   -2.81    6.97
  -2   6 -19    2.68    6.97
  -4  -6 -19    0.35    8.36
  -4   6 -19   18.26    9.71
  19   7 -19   52.63   13.50
  17  -7 -19   17.66    7.42
  17   7 -19    4.62    6.61
  15  -7 -19   10.29    6.45
  15   7 -19   -0.51    5.38
  13   7 -19   -5.10    4.87
  13   7 -19    5.78    5.22
  13  -7 -19    0.65    4.92
  11   7 -19    3.11    5.51
  11  -7 -19    7.43    6.20
  11   7 -19   -0.08    5.25
   9   7 -19    1.72    4.71
   9  -7 -19   -1.42    4.44
   7   7 -19    7.55    5.41
   7  -7 -19   19.44    7.50
   5  -7 -19  119.36   17.98
   5   7 -19  150.37   17.52
   3  -7 -19  155.93   20.55
   3   7 -19  118.64   16.74
   1   7 -19   58.48   12.11
   1  -7 -19   54.87   13.28
  -1  -7 -19    9.77    6.36
  -1   7 -19   -2.58    5.92
  -3   7 -19    9.85    7.30
  -3  -7 -19    1.03    4.81
  18   8 -19   11.96    8.32
  18  -8 -19   10.56    6.75
  16   8 -19    9.95    6.99
  16  -8 -19   -1.10    5.10
  14   8 -19    1.57    5.09
  14  -8 -19    3.36    5.46
  12  -8 -19   19.58    7.69
  12   8 -19   23.51    8.20
  12   8 -19   23.71    8.02
  10   8 -19   -2.39    4.70
  10  -8 -19   -0.17    4.86
  10   8 -19    0.33    4.96
   8  -8 -19   -1.64    5.26
   8   8 -19    6.00    5.57
   6   8 -19   -1.92    4.29
   6  -8 -19   -3.36    3.88
   4   8 -19   16.53    7.88
   4  -8 -19   32.57    9.35
   2  -8 -19    7.66    6.29
   2   8 -19    6.47    5.53
   0  -8 -19   -0.85    5.77
   0   8 -19   -4.60    5.38
  -2  -8 -19    0.53    5.16
  -2   8 -19    2.98    7.20
  19  -9 -19   -0.54    5.26
  19   9 -19   -0.22    7.99
  17  -9 -19    4.53    5.46
  17   9 -19    2.42    6.24
  15   9 -19    2.39    6.25
  15  -9 -19    8.54    6.01
  13   9 -19    2.44    5.11
  13  -9 -19    5.56    5.71
  13   9 -19    8.59    5.91
  11   9 -19   13.56    7.68
  11  -9 -19    8.63    6.14
  11   9 -19    7.93    6.52
   9   9 -19   10.38    6.95
   9  -9 -19    4.47    5.90
   9   9 -19   12.71    6.31
   7   9 -19   19.30    7.23
   7  -9 -19   29.46    8.91
   5   9 -19    0.29    5.31
   5  -9 -19    0.53    5.27
   3   9 -19    9.22    6.71
   3  -9 -19    4.83    6.63
   1  -9 -19   -0.75    5.60
   1   9 -19   -0.81    5.83
  -1  -9 -19    9.28    7.06
  -3  -9 -19    5.60    5.46
  18  10 -19    2.02    7.54
  18 -10 -19    9.78    6.55
  16  10 -19   12.58    7.60
  16 -10 -19    3.82    5.62
  14  10 -19   44.32   11.26
  14 -10 -19   30.68    9.03
  12  10 -19   27.61    8.49
  12  10 -19   27.44    9.03
  12 -10 -19   35.27    9.40
  10  10 -19   57.08   12.40
  10 -10 -19   53.78   12.19
  10  10 -19   76.81   13.34
   8  10 -19    8.38    5.73
   8 -10 -19   -6.56    5.06
   8  10 -19    6.24    6.79
   6  10 -19    2.01    5.28
   6  10 -19   -2.80    5.42
   6 -10 -19    5.90    6.45
   4  10 -19    3.81    5.91
   4 -10 -19    3.89    6.37
   2 -10 -19   -2.92    6.05
   2  10 -19    0.91    6.13
   0 -10 -19    2.10    6.23
  -2 -10 -19   -6.19    3.93
  17 -11 -19   18.66    7.56
  17  11 -19    3.28    7.54
  15 -11 -19    7.53    5.86
  15  11 -19    6.69    6.63
  13  11 -19   20.28    8.43
  13 -11 -19   12.74    7.09
  13  11 -19   22.05    8.53
  11  11 -19    3.13    5.90
  11 -11 -19    8.03    6.56
  11  11 -19   10.66    6.68
   9  11 -19   -9.55    4.03
   9  11 -19    7.39    6.89
   9 -11 -19    4.01    5.70
   7  11 -19   44.29   11.23
   7 -11 -19   16.16    7.91
   7  11 -19   25.21    8.33
   5  11 -19   25.57    9.70
   5  11 -19   32.78    8.68
   5 -11 -19   33.63   10.32
   3  11 -19   41.46   11.81
   3 -11 -19   36.85    9.89
   1 -11 -19   71.30   14.42
   1  11 -19   54.84   13.75
  -1  11 -19   14.85   10.36
  18  12 -19   47.98   13.53
  18 -12 -19   24.85    9.89
  16 -12 -19   -0.29    4.79
  16  12 -19   -0.25    6.30
  14  12 -19    5.74    6.70
  14 -12 -19   -0.36    4.80
  12 -12 -19    2.09    5.67
  12  12 -19    3.91    5.99
  12  12 -19    1.56    6.29
  10 -12 -19    2.47    6.43
  10  12 -19   -0.99    5.95
  10  12 -19    9.85    7.40
   8 -12 -19   13.99    7.55
   8  12 -19   10.50    7.55
   8  12 -19    4.21    6.27
   6 -12 -19    6.60    6.91
   6  12 -19   15.96    7.74
   4  12 -19   -0.63    5.56
   4 -12 -19   16.41    7.29
   2  12 -19   29.43   11.09
   2 -12 -19   15.11    7.84
   0 -12 -19    1.79    5.77
   0  12 -19   15.64    9.79
  17 -13 -19   -0.20    5.92
  17  13 -19    1.35    8.08
  15 -13 -19    7.94    5.80
  15  13 -19    7.47    6.36
  13  13 -19    6.60    7.12
  13 -13 -19   -8.26    5.05
  13  13 -19    0.52    5.51
  11 -13 -19    5.16    5.86
  11  13 -19   -2.59    5.78
  11  13 -19   -1.03    6.01
   9  13 -19    7.73    6.64
   9 -13 -19   -8.26    4.56
   7 -13 -19    4.13    6.70
   7  13 -19   -2.92    6.01
   5  13 -19    5.91    6.38
   5 -13 -19   10.38    6.74
   3  13 -19   14.35    9.35
   3 -13 -19   -2.48    6.49
   1 -13 -19   -6.41    5.37
   1  13 -19   -0.95    8.18
  -1  13 -19   -8.63    9.16
  -1 -13 -19   -9.78    4.32
  16  14 -19   14.58    8.93
  16 -14 -19    2.20    5.68
  14 -14 -19   27.76    9.92
  14  14 -19   31.17    9.81
  12 -14 -19   15.33    7.61
  12  14 -19   22.19    8.31
  10 -14 -19   12.02    6.72
  10  14 -19    1.99    5.89
   8 -14 -19   21.71    8.19
   8  14 -19    5.88    6.66
   6  14 -19    3.77    5.94
   6 -14 -19   -1.31    5.37
   4  14 -19   -1.97    6.06
   4 -14 -19    1.69    6.58
   2 -14 -19    1.82    5.81
   2  14 -19    5.51    9.24
   0 -14 -19    5.69    6.07
   0  14 -19    9.02   11.01
  15 -15 -19    6.67    6.07
  13 -15 -19   10.79    6.82
  13  15 -19   31.74   10.21
  11 -15 -19   24.57    8.32
  11  15 -19   32.27    9.96
   9 -15 -19    1.13    6.12
   9  15 -19    3.15    5.72
   7 -15 -19    2.78    6.41
   7  15 -19    1.69    6.16
   5 -15 -19   -0.95    5.95
   5  15 -19   -1.99    5.33
   3 -15 -19    6.96    7.73
   3  15 -19   23.22   11.55
   1 -15 -19   18.54    7.52
   1  15 -19   -7.64    7.97
  12  16 -19   -4.54    5.76
  12 -16 -19    3.09    6.47
  10  16 -19   -8.37    4.84
  10 -16 -19    0.07    5.38
   8 -16 -19    7.73    6.43
   8  16 -19   15.29    7.82
   6  16 -19    1.51    5.56
   6 -16 -19   14.61    8.44
   4 -16 -19   31.98   10.82
   4  16 -19   -0.21    5.15
   2  16 -19   33.61   14.29
   2 -16 -19   25.30   10.15
  13  17 -19   -4.84    6.22
  11  17 -19   11.58    7.97
   9  17 -19    4.18    6.48
   9 -17 -19    4.75    6.07
   7  17 -19   -2.15    5.43
   7 -17 -19   -3.16    5.65
   5  17 -19    2.58    4.78
   5 -17 -19    2.83    6.74
   3  17 -19   -1.73    9.33
   3 -17 -19    9.25    7.40
  12  18 -19   11.74    8.03
  10  18 -19    3.84    7.12
   8  18 -19   -9.34    4.34
   6  18 -19    8.33    5.57
   6 -18 -19    8.00    7.39
   4  18 -19    7.87    7.92
   4 -18 -19   47.01   12.16
   9  19 -19    6.44    5.33
   7  19 -19   -9.06    4.76
  20   0 -20    6.84    5.95
  18   0 -20    0.42    4.56
  16   0 -20   -6.15    5.10
  14   0 -20   11.40    6.61
  12   0 -20   -2.87    5.05
  10   0 -20   17.04    7.44
   8   0 -20   26.39    8.60
   6   0 -20  132.84   18.44
   4   0 -20   58.03   13.51
   2   0 -20   34.25   10.57
   0   0 -20   12.86    8.26
  -2   0 -20    7.54    8.16
  19   1 -20    9.51    9.18
  19  -1 -20    4.43    4.23
  17  -1 -20    2.97    4.93
  17   1 -20   13.83    8.75
  15   1 -20   26.85    9.41
  15  -1 -20   36.32    9.76
  13   1 -20    7.86    6.60
  13  -1 -20   15.14    7.53
  11  -1 -20   14.94    7.89
  11   1 -20   13.50    7.09
   9  -1 -20   11.95    6.29
   9   1 -20   -2.78    4.85
   7   1 -20    5.06    6.23
   7  -1 -20   -1.51    5.42
   5   1 -20   24.33    9.23
   5  -1 -20   14.92    8.27
   3  -1 -20    8.74    6.97
   3   1 -20    2.38    5.87
   1  -1 -20    5.68    6.45
   1   1 -20   20.76    9.01
  -1  -1 -20   18.98   10.35
  -1   1 -20   -5.29    5.79
  -3   1 -20    8.07    8.85
  -3  -1 -20   -3.69    7.55
  20   2 -20   -3.72    7.32
  20  -2 -20   -1.90    5.46
  18  -2 -20    1.82    4.93
  18   2 -20   14.13    9.42
  16  -2 -20    6.57    5.70
  16   2 -20   21.78    8.79
  14  -2 -20    9.31    6.50
  14   2 -20   11.16    7.68
  12   2 -20   29.10    9.22
  12  -2 -20   30.46    8.95
  10  -2 -20    2.04    5.74
  10   2 -20    5.34    5.77
   8   2 -20   16.47    6.97
   8  -2 -20    3.03    5.68
   6   2 -20   10.14    6.92
   6  -2 -20    0.71    5.91
   4  -2 -20    1.15    5.44
   4   2 -20   -1.53    5.87
   2   2 -20   -1.78    6.12
   2  -2 -20    1.75    6.46
   0   2 -20    1.35    6.12
   0  -2 -20    5.41    6.57
  -2  -2 -20    4.35    7.93
  -2   2 -20    3.83    7.97
  19  -3 -20    5.53    4.31
  19   3 -20   -5.77    6.72
  17   3 -20    6.62    6.97
  17  -3 -20    2.04    5.02
  15   3 -20   17.20    9.23
  15  -3 -20   13.48    7.09
  13  -3 -20   46.92   10.96
  13   3 -20   69.33   13.33
  11  -3 -20   -3.68    4.21
  11   3 -20   -1.91    4.73
   9   3 -20    2.18    5.30
   9  -3 -20   -0.68    5.21
   7   3 -20    5.31    6.00
   7  -3 -20    9.07    6.94
   5  -3 -20    4.80    6.86
   5   3 -20   -1.00    4.94
   3   3 -20    3.34    6.31
   3  -3 -20   10.49    7.15
   1   3 -20   13.35    8.09
   1  -3 -20   13.40    8.01
  -1   3 -20   18.48    8.61
  -1  -3 -20   27.65   11.86
  18   4 -20   -2.27    6.81
  18  -4 -20   -0.09    4.83
  16   4 -20    4.52    6.57
  16  -4 -20    7.50    5.36
  14  -4 -20   30.16    9.52
  14   4 -20   31.83    9.34
  12  -4 -20   12.68    6.99
  12   4 -20   17.33    7.70
  10   4 -20   -0.27    4.81
  10  -4 -20    2.30    5.73
   8   4 -20   22.07    8.50
   8  -4 -20   25.17    8.73
   6   4 -20   28.38    8.83
   6  -4 -20   30.32   10.04
   4  -4 -20   39.73   11.22
   4   4 -20   10.75    7.33
   2  -4 -20   -0.13    5.91
   2   4 -20    2.17    6.08
   0   4 -20    2.51    6.95
   0  -4 -20    4.55    7.27
  -2  -4 -20    6.95    8.76
  -2   4 -20    2.54    7.58
  19   5 -20   21.20   10.12
  19  -5 -20    4.48    4.19
  17  -5 -20   -5.68    4.15
  17   5 -20  -11.73    5.76
  15  -5 -20   -1.70    5.47
  15   5 -20    2.09    6.11
  13   5 -20   10.35    6.59
  13  -5 -20    3.64    5.46
  13   5 -20   17.70    7.86
  11  -5 -20    0.82    4.79
  11   5 -20   -1.43    4.24
   9  -5 -20    9.42    6.67
   9   5 -20    2.68    5.53
   7   5 -20   51.31   11.14
   7  -5 -20   75.95   14.78
   5  -5 -20   46.95   11.70
   5   5 -20   50.01   11.03
   3  -5 -20    4.52    6.40
   3   5 -20   -5.08    4.83
   1   5 -20    9.24    7.70
   1  -5 -20   10.13    8.06
  -1  -5 -20    8.23    8.75
  -1   5 -20    7.00    8.00
  18  -6 -20    5.06    5.16
  18   6 -20   -4.57    6.09
  16   6 -20   14.79    7.95
  16  -6 -20   12.80    5.75
  14  -6 -20   34.68    9.69
  14   6 -20   15.62    7.53
  12   6 -20   -0.06    4.85
  12   6 -20   10.61    6.23
  12  -6 -20    2.15    3.98
  10   6 -20   14.66    7.44
  10  -6 -20   15.66    8.00
   8   6 -20   13.88    6.52
   8  -6 -20    9.62    6.28
   6   6 -20   11.88    6.54
   6  -6 -20    2.77    6.29
   4   6 -20   18.19    7.98
   4  -6 -20   14.32    7.78
   2  -6 -20    6.11    6.55
   2   6 -20    2.07    5.85
   0   6 -20    9.70    7.17
   0  -6 -20    0.17    7.74
  -2  -6 -20    9.37    9.09
  -2   6 -20    3.98    6.90
  19  -7 -20    1.98    5.29
  19   7 -20    5.09    8.34
  17   7 -20    8.37    8.04
  17  -7 -20    4.76    4.77
  15   7 -20    7.58    6.60
  15  -7 -20    6.11    5.64
  13   7 -20   -2.24    5.25
  13   7 -20    5.12    5.64
  13  -7 -20    3.98    5.12
  11   7 -20    6.43    6.48
  11   7 -20   10.53    7.05
  11  -7 -20   19.40    7.35
   9   7 -20   -0.08    5.01
   9  -7 -20   -2.75    5.09
   7   7 -20    0.25    4.83
   7  -7 -20   -3.55    4.85
   5  -7 -20    5.23    5.75
   5   7 -20    9.33    5.93
   3   7 -20   -0.16    5.58
   3  -7 -20    4.99    5.87
   1   7 -20    0.21    6.25
   1  -7 -20    2.29    6.15
  -1  -7 -20    3.02    5.00
  -1   7 -20    4.66    7.52
  18  -8 -20   17.39    7.04
  18   8 -20   31.02   11.44
  16  -8 -20   29.95    9.07
  16   8 -20   43.17   11.84
  14   8 -20    2.61    5.71
  14  -8 -20    2.84    5.16
  12   8 -20   11.40    7.27
  12   8 -20    2.29    5.74
  12  -8 -20   -3.38    4.02
  10   8 -20   24.59    9.23
  10  -8 -20   39.97   10.14
  10   8 -20   24.96    8.45
   8   8 -20    4.79    6.04
   8  -8 -20   11.13    6.98
   6  -8 -20   20.17    8.14
   6   8 -20   18.61    7.57
   4  -8 -20    3.51    6.49
   4   8 -20    9.52    6.57
   2   8 -20   -2.03    6.34
   2  -8 -20   -1.26    5.74
   0  -8 -20   -0.79    5.04
   0   8 -20   18.98    8.98
  17  -9 -20    2.96    5.89
  17   9 -20    3.88    6.99
  15   9 -20    1.20    5.96
  15  -9 -20   -6.12    4.05
  13   9 -20    0.38    7.04
  13   9 -20   13.35    7.51
  13  -9 -20   14.02    7.53
  11  -9 -20    5.09    5.07
  11   9 -20   -0.02    5.56
  11   9 -20    0.86    5.68
   9   9 -20   11.69    6.37
   9  -9 -20   30.50    9.08
   9   9 -20   26.39    9.62
   7  -9 -20   43.35   11.05
   7   9 -20   48.06   10.76
   5   9 -20   37.40    9.37
   5  -9 -20   54.70   12.48
   3  -9 -20   45.25   11.80
   3   9 -20   29.84    9.38
   1  -9 -20    2.16    6.06
   1   9 -20   12.81    7.92
  -1  -9 -20    5.32    5.07
  18  10 -20   -4.33    6.67
  18 -10 -20    4.44    4.71
  16  10 -20    0.96    7.29
  16 -10 -20   -1.33    5.14
  14 -10 -20    3.28    5.60
  14  10 -20    6.70    6.39
  12  10 -20   -2.05    6.15
  12 -10 -20    2.11    5.71
  12  10 -20    7.44    6.05
  10 -10 -20   -3.68    4.06
  10  10 -20   -0.72    6.04
  10  10 -20    0.67    5.74
   8  10 -20   -3.40    5.10
   8 -10 -20    0.22    4.57
   8  10 -20   -5.23    4.53
   6  10 -20   15.05    7.64
   6  10 -20    0.05    5.71
   6 -10 -20   10.75    7.35
   4  10 -20   11.75    6.82
   2 -10 -20    7.64    7.23
   0 -10 -20   -2.69    4.39
  17 -11 -20    9.17    6.56
  17  11 -20   16.33    9.21
  15  11 -20    4.61    7.34
  15 -11 -20    6.48    5.75
  13  11 -20    7.85    6.51
  13  11 -20    6.40    7.33
  13 -11 -20    9.36    6.37
  11  11 -20    0.87    6.17
  11 -11 -20    6.25    5.95
  11  11 -20   -1.52    5.41
   9 -11 -20   15.61    7.07
   9  11 -20    5.87    6.16
   9  11 -20   -6.97    4.94
   7 -11 -20   49.18   11.15
   7  11 -20   39.01   10.93
   7  11 -20   29.00    8.86
   5 -11 -20    2.18    6.14
   5  11 -20   12.57    7.73
   3  11 -20   11.05    9.29
   3 -11 -20   17.36    8.54
   1  11 -20   -7.05    8.32
   1 -11 -20    4.69    4.80
  16 -12 -20   27.69    9.08
  16  12 -20   35.81   11.68
  14 -12 -20   69.18   13.65
  14  12 -20   66.96   13.67
  12 -12 -20   76.27   13.54
  12  12 -20   63.11   12.72
  12  12 -20   51.31   12.45
  10  12 -20    6.99    6.44
  10 -12 -20    3.96    6.13
  10  12 -20    2.87    5.68
   8  12 -20    2.37    6.14
   8 -12 -20   -1.81    5.13
   6  12 -20   -2.42    5.64
   6 -12 -20    7.58    6.55
   4 -12 -20   -3.48    6.03
   4  12 -20    3.82    6.09
   2 -12 -20   -7.97    6.13
   2  12 -20    2.04    9.13
  15  13 -20   13.93    8.03
  15 -13 -20   17.01    7.51
  13  13 -20   19.82    8.56
  13  13 -20   37.73    9.98
  13 -13 -20   21.67    8.66
  11 -13 -20    2.33    6.05
  11  13 -20   16.86    7.53
   9  13 -20   11.64    6.84
   9 -13 -20    5.47    5.69
   7  13 -20   17.68    8.22
   7 -13 -20   26.16    8.93
   5  13 -20    3.45    6.21
   5 -13 -20    1.19    6.55
   3  13 -20    9.32    9.97
   3 -13 -20    1.18    6.65
   1 -13 -20   -3.58    4.36
   1  13 -20    3.82   10.07
  14 -14 -20    4.66    6.93
  12 -14 -20    7.99    6.62
  12  14 -20    8.84    6.55
  10  14 -20    4.70    6.45
  10 -14 -20    9.45    6.90
   8 -14 -20   13.41    7.79
   8  14 -20   20.00    8.64
   6 -14 -20   11.10    6.51
   6  14 -20   -3.57    5.60
   4 -14 -20    2.22    6.47
   4  14 -20   -1.17    4.86
   2 -14 -20   17.30    7.36
   2  14 -20   18.68   11.17
  13  15 -20  -11.93    5.85
  13 -15 -20    4.19    6.90
  11  15 -20    1.18    7.07
  11 -15 -20    2.90    6.47
   9 -15 -20   22.43    8.66
   9  15 -20    4.24    6.44
   7 -15 -20    4.61    6.80
   7  15 -20   -1.97    5.43
   5  15 -20   -0.61    4.63
   5 -15 -20   15.36    8.30
   3  15 -20    0.78    9.53
   3 -15 -20   -8.04    5.22
  12 -16 -20   15.18    6.72
  12  16 -20    2.99    6.37
  10  16 -20    7.88    6.88
  10 -16 -20   11.87    7.51
   8  16 -20    2.91    5.60
   8 -16 -20    7.82    6.90
   6 -16 -20   -5.36    6.48
   6  16 -20    6.69    5.29
   4 -16 -20    1.69    7.11
   4  16 -20    7.33    6.42
  11  17 -20    0.33    5.62
   9  17 -20    1.40    5.00
   9 -17 -20   -5.11    5.23
   7 -17 -20   14.96    7.23
   7  17 -20    2.87    5.37
  18   0 -21   -3.31    6.82
  16   0 -21   -2.26    5.60
  14   0 -21   -1.52    6.16
  12   0 -21   -5.35    4.56
  10   0 -21   -0.22    5.25
   8   0 -21   -0.70    5.88
   6   0 -21    8.65    6.70
   4   0 -21   -3.31    5.75
   2   0 -21  -11.73    5.73
   0   0 -21   -3.22    6.78
  19   1 -21   20.20   10.53
  19  -1 -21   -5.29    4.30
  17   1 -21   18.21    9.39
  17  -1 -21   -3.65    3.97
  15  -1 -21    2.60    5.99
  15   1 -21   11.96    7.47
  13  -1 -21   -0.21    5.10
  13   1 -21   -0.40    6.00
  11  -1 -21    4.34    5.60
  11   1 -21   -1.20    5.14
   9   1 -21    3.81    5.95
   9  -1 -21    1.95    5.63
   7   1 -21    1.60    5.05
   7  -1 -21   -5.00    4.19
   5  -1 -21    1.45    6.35
   5   1 -21   -6.82    5.13
   3  -1 -21    0.66    6.47
   3   1 -21   -0.76    6.62
   1   1 -21   14.87    9.08
   1  -1 -21   20.72   10.88
  -1   1 -21   29.31   11.84
  -1  -1 -21   34.08   12.32
  18   2 -21   -7.28    5.64
  18  -2 -21    4.70    4.12
  16  -2 -21    0.99    5.53
  16   2 -21   -3.46    6.13
  14   2 -21  -10.58    4.86
  14  -2 -21    4.81    5.14
  12  -2 -21    7.74    6.49
  12   2 -21   32.44    9.30
  10  -2 -21   62.92   13.22
  10   2 -21   60.98   12.70
   8   2 -21   47.44   10.98
   8  -2 -21   42.84   11.00
   6  -2 -21   59.28   12.85
   6   2 -21   45.10   11.66
   4  -2 -21   46.00   12.22
   4   2 -21   19.43    8.77
   2   2 -21    3.81    7.07
   2  -2 -21   -4.98    5.54
   0  -2 -21    5.34    8.58
   0   2 -21    8.04    8.81
  17   3 -21    6.35    6.84
  17  -3 -21    2.24    4.61
  15   3 -21    5.85    6.73
  15  -3 -21   19.27    7.72
  13  -3 -21   -0.04    4.64
  13   3 -21    7.52    5.96
  11   3 -21   33.26    8.97
  11  -3 -21   19.89    7.73
   9   3 -21    4.98    5.66
   9  -3 -21   12.91    6.52
   7   3 -21   78.64   14.01
   7  -3 -21   72.20   14.52
   5   3 -21   29.50    9.61
   5  -3 -21   26.32   10.09
   3   3 -21    0.58    6.87
   3  -3 -21    4.42    7.59
   1   3 -21    7.90    7.82
   1  -3 -21   -2.74    7.20
  -1   3 -21    1.29    7.64
  -1  -3 -21    3.33    9.32
  18   4 -21   -3.86    6.85
  18  -4 -21   -0.29    3.68
  16  -4 -21   11.88    6.09
  16   4 -21    9.43    7.56
  14   4 -21   21.16    8.89
  14  -4 -21    7.31    6.04
  12   4 -21   10.00    6.57
  12  -4 -21    8.69    6.38
  10   4 -21    7.15    6.13
  10  -4 -21   -2.73    4.99
   8  -4 -21    1.57    5.22
   8   4 -21    4.62    5.46
   6  -4 -21   12.15    7.08
   6   4 -21   13.95    7.31
   4   4 -21    5.06    6.98
   4  -4 -21    1.09    6.77
   2  -4 -21    1.11    6.87
   2   4 -21    5.92    6.61
   0   4 -21    9.44    8.09
   0  -4 -21   12.33    9.93
  17   5 -21   50.92   13.16
  15  -5 -21    3.65    6.00
  15   5 -21   -1.48    5.93
  13   5 -21   19.22    8.40
  13   5 -21   21.14    8.92
  13  -5 -21   22.51    8.54
  11  -5 -21    1.54    4.89
  11   5 -21   -0.92    5.24
   9  -5 -21    1.24    4.85
   9   5 -21    5.16    5.82
   7  -5 -21    7.17    6.19
   7   5 -21    9.33    6.15
   5   5 -21    9.97    6.85
   5  -5 -21    5.74    6.25
   3   5 -21   19.01    8.25
   3  -5 -21   19.36   10.44
   1   5 -21    0.41    6.40
   1  -5 -21   17.79    9.82
  18   6 -21   38.25   12.76
  16   6 -21   46.62   11.86
  14   6 -21   16.52    7.34
  14  -6 -21   19.80    7.21
  12   6 -21    3.50    6.20
  12   6 -21    4.60    6.34
  12  -6 -21    6.00    5.62
  10   6 -21    2.97    4.90
  10  -6 -21   12.33    6.23
   8   6 -21    7.05    7.32
   8  -6 -21   22.32    8.42
   6  -6 -21    9.03    6.87
   6   6 -21    5.23    5.54
   4   6 -21    7.23    7.57
   4  -6 -21   -4.05    4.00
   2  -6 -21   -3.80    4.93
   2   6 -21   16.60    8.49
   0   6 -21   25.06   10.60
   0  -6 -21    9.17   10.28
  17  -7 -21   -1.26    4.67
  17   7 -21    1.72    8.21
  15  -7 -21    4.15    6.23
  15   7 -21    1.70    6.42
  13   7 -21    9.36    6.96
  13   7 -21    3.89    7.00
  11   7 -21    3.49    6.17
  11   7 -21    9.35    6.56
  11  -7 -21    0.45    5.34
   9  -7 -21   39.12   10.20
   9   7 -21   45.35   10.90
   7  -7 -21   22.23    9.08
   7   7 -21   16.53    7.27
   5   7 -21   11.77    7.45
   5  -7 -21   12.11    7.81
   3   7 -21    6.69    7.55
   3  -7 -21    6.23    6.43
   1  -7 -21   -3.68    4.89
   1   7 -21    2.26    7.63
  16  -8 -21    9.54    5.89
  16   8 -21   26.67   10.11
  14   8 -21    9.23    6.91
  14  -8 -21    5.02    6.41
  12   8 -21   -4.27    5.86
  12   8 -21    0.83    5.22
  12  -8 -21    0.66    4.34
  10   8 -21    9.33    6.69
  10  -8 -21   -3.93    4.95
  10   8 -21    6.96    6.36
   8  -8 -21    2.19    5.60
   8   8 -21    6.29    5.65
   6  -8 -21   -5.58    5.36
   6   8 -21    0.74    5.23
   4  -8 -21    3.23    5.61
   4   8 -21    1.54    6.49
   2   8 -21   13.84    7.81
   2  -8 -21    2.36    4.53
  17  -9 -21    3.78    4.87
  17   9 -21    7.53    7.89
  15  -9 -21    8.54    5.77
  15   9 -21   13.80    7.99
  13   9 -21   13.48    7.01
  13   9 -21   -0.49    5.75
  13  -9 -21   -2.65    5.07
  11  -9 -21   -5.58    4.38
  11   9 -21    1.06    5.59
  11   9 -21   10.63    7.86
   9   9 -21    0.27    5.81
   9   9 -21   12.59    7.99
   9  -9 -21   -0.91    5.28
   7   9 -21    0.58    6.05
   7  -9 -21   15.81    7.10
   5  -9 -21    5.91    6.31
   5   9 -21    1.39    5.61
   3   9 -21   -5.71    6.21
   3  -9 -21   -1.36    4.76
   1  -9 -21    1.98    5.14
  16  10 -21   12.04    9.27
  16 -10 -21   36.70    9.67
  14  10 -21    9.97    8.26
  14 -10 -21    7.58    6.73
  12 -10 -21    4.72    6.31
  12  10 -21   10.79    6.69
  12  10 -21   12.00    7.73
  10  10 -21    3.45    6.25
  10  10 -21   -4.14    5.34
  10 -10 -21    6.40    6.55
   8  10 -21   16.37    7.58
   8 -10 -21    6.20    6.03
   8  10 -21   18.50    8.34
   6  10 -21    9.41    6.37
   6  10 -21   -9.61    5.04
   6 -10 -21   -3.65    5.30
   4 -10 -21   -5.97    4.22
   2 -10 -21   -2.59    4.39
  15  11 -21   -3.33    6.57
  15 -11 -21    3.72    5.98
  13  11 -21    5.91    7.00
  13 -11 -21    7.51    6.15
  13  11 -21    1.73    7.14
  11  11 -21    0.09    7.08
  11 -11 -21    7.21    6.88
  11  11 -21    7.24    7.01
   9  11 -21   44.52   10.57
   9 -11 -21   27.53    8.77
   9  11 -21   22.70    9.54
   7  11 -21   20.44    8.54
   7 -11 -21   25.08    8.05
   5  11 -21  -12.19    4.92
   5 -11 -21    0.04    6.45
   3 -11 -21    3.31    5.51
   3  11 -21    1.77    8.62
  14  12 -21   -4.87    6.12
  14 -12 -21    0.66    5.51
  12  12 -21    2.91    6.23
  12  12 -21    6.21    6.71
  12 -12 -21   -0.68    5.06
  10 -12 -21   21.10    8.49
  10  12 -21   28.61   10.29
   8 -12 -21   19.18    8.21
   8  12 -21   23.03    9.08
   6 -12 -21   17.56    7.55
   6  12 -21    2.05    5.13
   4 -12 -21  -10.92    4.12
   4  12 -21   -1.47    4.41
  13  13 -21    1.21    7.25
  13 -13 -21   14.67    7.29
  11  13 -21    5.09    6.72
  11 -13 -21   -0.65    5.16
   9  13 -21    0.86    6.63
   9 -13 -21    6.19    6.50
   7  13 -21    0.69    5.35
   7 -13 -21   12.47    8.39
   5  13 -21   -2.23    4.84
   5 -13 -21   14.91    7.97
  12 -14 -21    5.83    6.16
  12  14 -21    5.84    6.83
  10 -14 -21   -1.13    6.08
  10  14 -21    2.89    6.15
   8  14 -21    8.22    5.18
   8 -14 -21    2.69    6.69
   6  14 -21    5.54    5.43
   6 -14 -21    1.29    6.15
  11  15 -21   -7.49    5.03
  11 -15 -21   -4.82    6.01
   9 -15 -21    2.23    5.34
   9  15 -21   -4.46    5.56
   7  15 -21    4.04    5.54
   7 -15 -21    7.85    7.13
  16   0 -22    2.06    7.72
  14   0 -22   47.57   12.37
  12   0 -22   97.65   16.67
  10   0 -22   50.95   12.05
   8   0 -22   64.31   13.72
   6   0 -22   29.03    9.80
   4   0 -22  -10.30    5.73
   2   0 -22    5.12    8.19
  17   1 -22    0.99    7.97
  17  -1 -22   -6.32    3.35
  15   1 -22   -2.69    6.05
  15  -1 -22    0.18    7.21
  13  -1 -22   20.75    8.93
  13   1 -22    1.57    6.47
  11   1 -22   21.21    8.28
  11  -1 -22   10.76    7.80
   9   1 -22   -0.61    6.42
   9  -1 -22   -1.30    5.55
   7   1 -22    7.58    7.44
   7  -1 -22    6.54    6.88
   5  -1 -22   -4.90    6.59
   5   1 -22    2.33    6.90
   3   1 -22   17.66   10.62
   3  -1 -22   11.99    8.98
   1   1 -22    8.95    9.40
   1  -1 -22   30.32   12.70
  16   2 -22    8.37    8.58
  16  -2 -22    9.31    3.68
  14   2 -22   -3.46    7.23
  14  -2 -22    0.13    4.90
  12  -2 -22    0.67    6.15
  12   2 -22    9.04    7.75
  10  -2 -22    1.91    6.00
  10   2 -22    1.90    5.69
   8  -2 -22    2.43    6.11
   8   2 -22   -2.69    5.86
   6   2 -22    9.32    7.91
   6  -2 -22   18.94    9.23
   4   2 -22    3.66    7.44
   4  -2 -22    5.55    7.65
   2  -2 -22   -1.12    8.26
   2   2 -22    7.84    8.67
  17  -3 -22   -1.74    4.48
  17   3 -22   11.95    8.73
  15  -3 -22   -0.36    5.36
  15   3 -22   47.53   12.01
  13   3 -22   -0.40    6.64
  13  -3 -22    1.52    5.17
  11   3 -22    0.81    5.46
  11  -3 -22    3.61    5.63
   9   3 -22    0.51    6.08
   9  -3 -22   -1.07    5.56
   7  -3 -22    0.65    7.15
   7   3 -22   -3.15    5.62
   5  -3 -22   -4.92    7.24
   5   3 -22    2.43    6.30
   3   3 -22    7.03    7.87
   3  -3 -22    8.99    8.50
  16  -4 -22    7.86    4.24
  16   4 -22   -4.31    7.22
  14  -4 -22   -4.78    4.58
  14   4 -22    1.32    7.10
  12   4 -22   60.60   13.11
  10  -4 -22   28.36    8.64
  10   4 -22   31.79   10.10
   8   4 -22   30.85    9.75
   8  -4 -22   21.96    9.56
   6  -4 -22   19.33    9.20
   6   4 -22   16.50    7.85
   4   4 -22    9.18    8.24
   4  -4 -22    4.12    8.48
   2   4 -22    2.47    8.09
   2  -4 -22   17.47   10.43
  17  -5 -22   -6.30    4.06
  17   5 -22   -2.91    6.71
  15   5 -22    1.93    6.90
  15  -5 -22   -6.15    3.54
  13  -5 -22    1.80    5.14
  13   5 -22   31.22   10.44
  11   5 -22   14.57    7.59
  11  -5 -22    3.16    5.60
   9  -5 -22   16.70    7.80
   9   5 -22   36.35   10.38
   7   5 -22   28.16    9.45
   7  -5 -22    4.30    6.37
   5  -5 -22    2.72    6.72
   5   5 -22    5.90    7.03
   3   5 -22    9.63    8.13
   3  -5 -22   -2.35    8.01
  16   6 -22   13.84    8.11
  16  -6 -22    3.07    4.23
  14  -6 -22   -0.28    4.84
  14   6 -22    8.18    7.41
  12   6 -22   -1.43    5.88
  12   6 -22    0.00    6.14
  12  -6 -22   -8.69    4.30
  10  -6 -22   13.40    6.83
  10   6 -22    9.44    6.82
   8  -6 -22   11.52    5.62
   8   6 -22   -1.83    5.50
   6   6 -22    1.06    6.62
   6  -6 -22   -4.24    5.15
   4   6 -22    5.27    6.94
   4  -6 -22    0.18    5.35
   2  -6 -22    6.95    9.08
   2   6 -22    0.75    8.10
  15   7 -22    0.45    6.59
  15  -7 -22   -2.83    3.84
  13  -7 -22    4.26    5.27
  13   7 -22   -0.77    6.34
  13   7 -22    5.48    7.23
  11   7 -22    1.96    6.10
  11   7 -22   -3.85    5.56
  11  -7 -22   -2.77    5.19
   9   7 -22    8.10    6.81
   9  -7 -22    9.99    6.43
   7  -7 -22   -6.47    5.03
   7   7 -22    2.10    5.75
   5  -7 -22    0.74    4.83
   5   7 -22   11.60    7.24
   3  -7 -22   -3.82    4.44
   3   7 -22   13.48    7.87
  14  -8 -22    3.12    4.93
  14   8 -22   14.31    8.00
  12  -8 -22   -4.87    4.36
  12   8 -22    0.51    7.08
  12   8 -22   -3.46    6.47
  10   8 -22    9.54    7.12
  10  -8 -22   -2.20    5.44
  10   8 -22    6.48    6.57
   8  -8 -22    3.08    6.42
   8   8 -22   -6.39    5.41
   6   8 -22    8.11    6.86
   6  -8 -22   -1.50    4.65
   4   8 -22    1.26    7.32
   4  -8 -22   -6.89    4.30
  15   9 -22    0.11    7.31
  15  -9 -22   -5.10    3.89
  13   9 -22   12.86    7.82
  13   9 -22    8.37    7.79
  13  -9 -22    1.29    4.82
  11   9 -22   38.70   10.68
  11  -9 -22   11.45    6.09
  11   9 -22   30.95   10.24
   9   9 -22   28.79   10.40
   9   9 -22   41.06   10.27
   9  -9 -22   12.90    6.61
   7   9 -22   17.03    8.43
   7  -9 -22   -3.23    5.18
   5  -9 -22    2.07    4.38
   5   9 -22    1.03    6.39
  14 -10 -22    6.37    6.27
  14  10 -22   -4.10    6.92
  12 -10 -22    1.75    4.21
  12  10 -22   13.45    7.67
  12  10 -22   14.90    8.12
  10 -10 -22   -0.09    4.97
  10  10 -22    5.43    7.28
  10  10 -22    8.53    7.27
   8  10 -22    9.21    7.44
   8 -10 -22   -2.62    4.57
   8  10 -22    1.21    5.42
   6 -10 -22   -5.19    3.79
   6  10 -22   -5.94    5.17
   6  10 -22    1.89    4.46
  13  11 -22   15.65    8.12
  13 -11 -22   17.03    7.48
  13  11 -22    4.14    7.62
  11  11 -22    1.14    6.75
  11 -11 -22    5.79    6.36
  11  11 -22    3.09    6.92
   9 -11 -22    2.89    4.97
   9  11 -22   -3.44    5.45
   9  11 -22    1.54    6.29
   7  11 -22   -2.12    4.81
   7 -11 -22    2.68    5.02
   5 -11 -22   -6.72    4.48
  12  12 -22    3.69    6.41
  12 -12 -22   -4.87    4.97
  12  12 -22    3.50    7.45
  10 -12 -22   -1.73    4.73
  10  12 -22    0.29    5.79
   8  12 -22    3.21    5.00
   8 -12 -22    8.69    6.28
  14   0 -23   11.06    8.99
  12   0 -23    1.04    6.98
  10   0 -23   12.81    8.49
   8   0 -23   -2.93    5.59
   6   0 -23    5.66    8.05
   4   0 -23  -10.39    7.22
  15  -1 -23    1.19    7.78
  15   1 -23    2.65    8.15
  13  -1 -23   -1.70    7.01
  13   1 -23    1.80    6.92
  11   1 -23   15.52    7.67
  11  -1 -23   -1.53    6.45
   9  -1 -23   -4.23    6.61
   9   1 -23   -8.58    6.20
   7  -1 -23   -0.76    6.72
   7   1 -23   -1.57    7.09
   5   1 -23    8.55    8.99
   5  -1 -23    6.39    8.33
  14  -2 -23   24.03   10.45
  14   2 -23   21.23   10.33
  12   2 -23   72.44   14.93
  12  -2 -23   77.30   15.68
  10   2 -23    7.50    8.13
  10  -2 -23   -2.24    6.78
   8   2 -23   26.60    9.67
   8  -2 -23   25.94   10.65
   6   2 -23    8.78    7.97
   6  -2 -23    1.25    7.23
   4  -2 -23   -1.17    9.67
   4   2 -23    2.07    8.39
  15  -3 -23    2.59    4.33
  15   3 -23   11.16    9.24
  13   3 -23   16.09    9.51
  13  -3 -23    4.34    4.54
  11   3 -23   40.35   11.17
  11  -3 -23   38.79   12.08
   9   3 -23    3.95    7.22
   9  -3 -23    6.24    7.51
   7   3 -23    2.02    6.95
   7  -3 -23   -1.96    6.90
   5   3 -23    7.57    7.97
   5  -3 -23    3.41    8.54
  14  -4 -23   -0.13    3.87
  14   4 -23   -0.50    7.35
  12  -4 -23   -3.40    3.77
  12   4 -23    3.77    7.30
  10   4 -23    4.67    7.40
  10  -4 -23   -1.41    4.06
   8   4 -23   -2.82    5.89
   8  -4 -23    4.61    8.03
   6  -4 -23   23.93   11.79
   6   4 -23   29.89   10.98
  13  -5 -23   -0.06    3.84
  13   5 -23   12.54    9.06
  11   5 -23   16.72    7.93
  11  -5 -23   -3.36    4.00
   9   5 -23    9.09    7.67
   9  -5 -23   -7.98    4.20
   7   5 -23   11.61    8.02
   7  -5 -23   -2.75    4.04
   5  -5 -23   -4.14    8.15
   5   5 -23   -5.07    7.12
  14  -6 -23    1.42    5.13
  14   6 -23    3.51    7.93
  12   6 -23    4.79    7.25
  12   6 -23    0.08    7.55
  12  -6 -23    5.14    4.12
  10   6 -23   22.14    9.44
   8  -6 -23    0.23    4.58
   8   6 -23    2.44    6.77
   6   6 -23    6.20    7.65
   6  -6 -23    5.41    4.69
  13   7 -23   23.50    8.91
  13  -7 -23    0.67    4.14
  13   7 -23   30.26   11.01
  11   7 -23    5.71    6.86
  11  -7 -23    1.41    4.07
  11   7 -23   -6.44    6.23
   9   7 -23   24.78   10.00
   7  -7 -23    0.02    4.98
   7   7 -23    2.89    7.25
  12   8 -23    2.18    6.26
  12   8 -23    1.78    7.35
  12  -8 -23   -1.62    4.31
  10  -8 -23    2.13    4.46
  10   8 -23    7.12    7.63
  10   8 -23    0.82    6.38
   8   8 -23    9.06    7.43
   8  -8 -23   -2.83    4.78
  11   9 -23    1.56    5.68
  11   9 -23    7.38    8.33
  11  -9 -23   -1.15    4.48
   9   9 -23    5.40    6.71
   9  -9 -23    8.78    5.16
   9   9 -23    8.38    6.46
  10   0 -24   13.67   10.08
  11  -1 -24   -0.38    8.48
  11   1 -24   -0.33    8.14
   9  -1 -24    6.49    8.89
   9   1 -24   -3.17    8.07
  10   2 -24   -7.03    7.48
  10  -2 -24   11.46    9.56
   0   0   0    0.00    0.00
;
_shelx_hkl_checksum              99329
loop_
_space_group_symop_operation_xyz
'x, y, z'
'-x, y, -z+1/2'
'x+1/2, y+1/2, z'
'-x+1/2, y+1/2, -z+1/2'
'-x, -y, -z'
'x, -y, z-1/2'
'-x+1/2, -y+1/2, -z'
'x+1/2, -y+1/2, z-1/2'
loop_
_atom_site_label
_atom_site_type_symbol
_atom_site_fract_x
_atom_site_fract_y
_atom_site_fract_z
_atom_site_U_iso_or_equiv
_atom_site_adp_type
_atom_site_occupancy
_atom_site_site_symmetry_order
_atom_site_calc_flag
_atom_site_refinement_flags_posn
_atom_site_refinement_flags_adp
_atom_site_refinement_flags_occupancy
_atom_site_disorder_assembly
_atom_site_disorder_group
Mn1 Mn 0.44280(5) 0.11673(3) 0.63396(5) 0.0308(2) Uani 1 1 d . . . . .
O1 O 0.5000 0.10211(16) 0.7500 0.0134(9) Uani 1 2 d S T P . .
N1 N 0.3797(3) 0.18299(18) 0.6398(3) 0.0294(10) Uani 1 1 d . . . . .
N2 N 0.5299(3) 0.1645(2) 0.6255(3) 0.0351(11) Uani 1 1 d . . . . .
N3 N 0.4953(3) 0.0523(2) 0.6076(3) 0.0348(11) Uani 1 1 d . . . . .
N4 N 0.3410(3) 0.07202(18) 0.6127(3) 0.0288(10) Uani 1 1 d . . . . .
C1 C 0.3137(3) 0.1841(2) 0.6592(4) 0.0351(13) Uani 1 1 d . . . . .
C2 C 0.2914(3) 0.2412(2) 0.6658(3) 0.0336(13) Uani 1 1 d . . . . .
C3 C 0.3461(4) 0.2743(2) 0.6510(3) 0.0364(13) Uani 1 1 d . . . . .
C4 C 0.4020(4) 0.2374(2) 0.6371(3) 0.0362(14) Uani 1 1 d . . . . .
C5 C 0.4689(4) 0.2541(3) 0.6243(4) 0.0482(16) Uani 1 1 d . . . . .
H5A H 0.4746 0.2929 0.6192 0.058 Uiso 1 1 calc R U . . .
C6 C 0.5285(4) 0.2210(3) 0.6180(4) 0.0499(18) Uani 1 1 d . . . . .
C7 C 0.6028(5) 0.2389(3) 0.6140(5) 0.068(2) Uani 1 1 d . . . . .
C8 C 0.6499(4) 0.1955(3) 0.6199(4) 0.056(2) Uani 1 1 d . . . . .
C9 C 0.6061(4) 0.1483(3) 0.6302(3) 0.0438(16) Uani 1 1 d . . . . .
C10 C 0.6320(4) 0.0934(3) 0.6404(5) 0.061(2) Uani 1 1 d . . . . .
C11 C 0.5800(4) 0.0478(3) 0.6265(4) 0.0452(16) Uani 1 1 d . . . . .
C12 C 0.5979(4) -0.0092(3) 0.6177(4) 0.0465(17) Uani 1 1 d . . . . .
C13 C 0.5253(4) -0.0388(3) 0.5934(4) 0.0429(15) Uani 1 1 d . . . . .
C14 C 0.4627(4) 0.0000(2) 0.5885(3) 0.0357(14) Uani 1 1 d . . . . .
C15 C 0.3816(4) -0.0141(2) 0.5721(3) 0.0364(14) Uani 1 1 d . . . . .
H15A H 0.3633 -0.0501 0.5509 0.044 Uiso 1 1 calc R U . . .
C16 C 0.3246(3) 0.0191(2) 0.5835(3) 0.0337(13) Uani 1 1 d . . . . .
C17 C 0.2455(3) 0.0009(2) 0.5785(4) 0.0352(13) Uani 1 1 d . . . . .
C18 C 0.2176(3) 0.0418(2) 0.6108(4) 0.0341(13) Uani 1 1 d . . . . .
C19 C 0.2775(3) 0.0869(2) 0.6324(3) 0.0342(13) Uani 1 1 d . . . . .
C20 C 0.2701(4) 0.1377(3) 0.6635(4) 0.0427(15) Uani 1 1 d . . . . .
C21 C 0.2152(3) 0.2610(2) 0.6730(4) 0.0360(13) Uani 1 1 d . . . . .
H21A H 0.2223 0.3006 0.6880 0.043 Uiso 1 1 calc R U . . .
H21B H 0.2102 0.2403 0.7168 0.043 Uiso 1 1 calc R U . . .
C22 C 0.1355(4) 0.2538(3) 0.5962(4) 0.0530(17) Uani 1 1 d . . . . .
H22A H 0.0880 0.2670 0.6046 0.079 Uiso 1 1 calc R U . . .
H22B H 0.1277 0.2146 0.5812 0.079 Uiso 1 1 calc R U . . .
H22C H 0.1391 0.2753 0.5529 0.079 Uiso 1 1 calc R U . . .
C23 C 0.3468(4) 0.3358(2) 0.6460(4) 0.0459(16) Uani 1 1 d . . . . .
H23A H 0.4054 0.3489 0.6707 0.055 Uiso 1 1 calc R U . . .
H23B H 0.3191 0.3515 0.6775 0.055 Uiso 1 1 calc R U . . .
C24 C 0.3029(5) 0.3572(3) 0.5601(4) 0.0603(19) Uani 1 1 d . . . . .
H24A H 0.3077 0.3976 0.5602 0.090 Uiso 1 1 calc R U . . .
H24B H 0.2437 0.3468 0.5365 0.090 Uiso 1 1 calc R U . . .
H24C H 0.3289 0.3411 0.5281 0.090 Uiso 1 1 calc R U . . .
C25 C 0.6323(7) 0.2925(5) 0.6178(8) 0.050(4) Uani 0.604(16) 1 d . . P A 1
H25A H 0.6927 0.2924 0.6319 0.060 Uiso 0.604(16) 1 calc R U P A 1
H25B H 0.6234 0.3145 0.6585 0.060 Uiso 0.604(16) 1 calc R U P A 1
C26 C 0.5822(7) 0.3158(6) 0.5345(11) 0.064(5) Uani 0.604(16) 1 d . . P A 1
H26A H 0.5869 0.3562 0.5363 0.096 Uiso 0.604(16) 1 calc R U P A 1
H26B H 0.5234 0.3052 0.5150 0.096 Uiso 0.604(16) 1 calc R U P A 1
H26C H 0.6037 0.3010 0.4980 0.096 Uiso 0.604(16) 1 calc R U P A 1
C25A C 0.5989(15) 0.3041(9) 0.5720(13) 0.033(5) Uiso 0.396(16) 1 d . . P A 2
H25C H 0.6317 0.3047 0.5407 0.039 Uiso 0.396(16) 1 calc R U P A 2
H25D H 0.5405 0.3149 0.5363 0.039 Uiso 0.396(16) 1 calc R U P A 2
C26A C 0.6371(11) 0.3424(7) 0.6445(11) 0.053(6) Uiso 0.396(16) 1 d . . P A 2
H26D H 0.6376 0.3804 0.6261 0.079 Uiso 0.396(16) 1 calc R U P A 2
H26E H 0.6944 0.3306 0.6793 0.079 Uiso 0.396(16) 1 calc R U P A 2
H26F H 0.6038 0.3410 0.6747 0.079 Uiso 0.396(16) 1 calc R U P A 2
C27 C 0.7300(5) 0.1939(4) 0.6102(5) 0.081(3) Uani 1 1 d . . . . .
H27A H 0.7578 0.2305 0.6249 0.098 Uiso 1 1 calc R U . . .
H27B H 0.7683 0.1661 0.6477 0.098 Uiso 1 1 calc R U . . .
C28 C 0.7152(4) 0.1800(3) 0.5268(5) 0.058(2) Uani 1 1 d . . . . .
H28A H 0.7687 0.1792 0.5238 0.087 Uiso 1 1 calc R U . . .
H28B H 0.6787 0.2080 0.4895 0.087 Uiso 1 1 calc R U . . .
H28C H 0.6884 0.1436 0.5121 0.087 Uiso 1 1 calc R U . . .
C29 C 0.6819(4) -0.0324(3) 0.6312(4) 0.0508(17) Uani 1 1 d . . . . .
H29A H 0.6732 -0.0624 0.5918 0.061 Uiso 1 1 calc R U . . .
H29B H 0.7150 -0.0029 0.6217 0.061 Uiso 1 1 calc R U . . .
C30 C 0.7303(4) -0.0549(3) 0.7149(4) 0.0542(18) Uani 1 1 d . . . . .
H30A H 0.7851 -0.0679 0.7216 0.081 Uiso 1 1 calc R U . . .
H30B H 0.6996 -0.0858 0.7234 0.081 Uiso 1 1 calc R U . . .
H30C H 0.7379 -0.0257 0.7542 0.081 Uiso 1 1 calc R U . . .
C31 C 0.5124(4) -0.0999(3) 0.5792(4) 0.0507(17) Uani 1 1 d . . . . .
H31A H 0.5582 -0.1153 0.5689 0.061 Uiso 1 1 calc R U . . .
H31B H 0.4592 -0.1064 0.5306 0.061 Uiso 1 1 calc R U . . .
C32 C 0.5099(5) -0.1303(3) 0.6503(4) 0.0566(18) Uani 1 1 d . . . . .
H32A H 0.4999 -0.1698 0.6376 0.085 Uiso 1 1 calc R U . . .
H32B H 0.4647 -0.1152 0.6609 0.085 Uiso 1 1 calc R U . . .
H32C H 0.5633 -0.1254 0.6981 0.085 Uiso 1 1 calc R U . . .
C33 C 0.2038(4) -0.0524(2) 0.5423(4) 0.0442(16) Uani 1 1 d . . . . .
H33A H 0.1606 -0.0607 0.5606 0.053 Uiso 1 1 calc R U . . .
H33B H 0.2457 -0.0826 0.5614 0.053 Uiso 1 1 calc R U . . .
C34 C 0.1639(5) -0.0509(3) 0.4519(5) 0.063(2) Uani 1 1 d . . . . .
H34A H 0.1342 -0.0858 0.4307 0.094 Uiso 1 1 calc R U . . .
H34B H 0.2071 -0.0459 0.4334 0.094 Uiso 1 1 calc R U . . .
H34C H 0.1242 -0.0201 0.4328 0.094 Uiso 1 1 calc R U . . .
C35 C 0.1367(4) 0.0417(3) 0.6177(4) 0.0457(16) Uani 1 1 d . . . . .
H35A H 0.1462 0.0584 0.6698 0.055 Uiso 1 1 calc R U . . .
H35B H 0.1185 0.0029 0.6174 0.055 Uiso 1 1 calc R U . . .
C36 C 0.0672(4) 0.0732(3) 0.5500(5) 0.0575(19) Uani 1 1 d . . . . .
H36A H 0.0159 0.0710 0.5569 0.086 Uiso 1 1 calc R U . . .
H36B H 0.0573 0.0568 0.4981 0.086 Uiso 1 1 calc R U . . .
H36C H 0.0836 0.1120 0.5513 0.086 Uiso 1 1 calc R U . . .
C37 C 0.2320(7) 0.1356(5) 0.7247(7) 0.035(3) Uani 0.5 1 d . . P . .
H37A H 0.1719 0.1264 0.6942 0.042 Uiso 0.5 1 calc R U P . .
H37B H 0.2352 0.1733 0.7466 0.042 Uiso 0.5 1 calc R U P . .
C37A C 0.2709(6) 0.0943(4) 0.7985(6) 0.027(2) Uani 0.5 1 d . . P . .
H37C H 0.2563 0.0565 0.7761 0.032 Uiso 0.5 1 calc R U P . .
H37D H 0.2404 0.1006 0.8314 0.032 Uiso 0.5 1 calc R U P . .
Sb1 Sb 0.5000 0.32551(3) 0.2500 0.0486(2) Uani 1 2 d S T P . .
F1 F 0.4281(3) 0.2733(2) 0.2544(4) 0.118(2) Uani 1 1 d . . . . .
F2 F 0.5598(4) 0.3270(3) 0.3611(3) 0.142(3) Uani 1 1 d . . . . .
F3 F 0.5711(4) 0.3815(2) 0.2498(5) 0.149(3) Uani 1 1 d . . . . .
Cl1 Cl 0.51755(15) 0.44588(13) 0.68109(19) 0.1201(11) Uani 1 1 d . . . . .
C1S C 0.5000 0.4847(5) 0.7500 0.165(10) Uani 1 2 d S T P . .
H1SA H 0.4524 0.5089 0.7216 0.198 Uiso 0.5 1 d . U P . .
loop_
_atom_site_aniso_label
_atom_site_aniso_U_11
_atom_site_aniso_U_22
_atom_site_aniso_U_33
_atom_site_aniso_U_23
_atom_site_aniso_U_13
_atom_site_aniso_U_12
Mn1 0.0215(4) 0.0444(5) 0.0265(5) -0.0021(4) 0.0105(4) -0.0021(4)
O1 0.011(2) 0.016(2) 0.011(2) 0.000 0.0034(18) 0.000
N1 0.022(2) 0.038(3) 0.030(3) 0.000(2) 0.012(2) -0.002(2)
N2 0.026(3) 0.049(3) 0.032(3) -0.005(2) 0.015(2) -0.008(2)
N3 0.026(2) 0.052(3) 0.030(3) 0.006(2) 0.015(2) 0.006(2)
N4 0.027(2) 0.033(3) 0.029(3) -0.001(2) 0.015(2) -0.001(2)
C1 0.029(3) 0.044(3) 0.035(3) -0.008(3) 0.016(3) -0.003(3)
C2 0.034(3) 0.040(3) 0.029(3) -0.009(3) 0.016(3) -0.004(3)
C3 0.038(3) 0.043(3) 0.026(3) -0.007(3) 0.013(3) -0.005(3)
C4 0.036(3) 0.044(4) 0.027(3) -0.007(3) 0.014(3) -0.009(3)
C5 0.053(4) 0.053(4) 0.048(4) -0.016(3) 0.031(4) -0.017(3)
C6 0.050(4) 0.057(4) 0.057(4) -0.027(3) 0.036(4) -0.022(3)
C7 0.070(5) 0.069(5) 0.100(6) -0.049(5) 0.070(5) -0.039(4)
C8 0.045(4) 0.084(5) 0.050(4) -0.034(4) 0.032(4) -0.033(4)
C9 0.027(3) 0.079(5) 0.024(3) -0.001(3) 0.010(3) -0.006(3)
C10 0.027(3) 0.084(5) 0.076(5) 0.048(4) 0.026(4) 0.010(4)
C11 0.036(3) 0.072(5) 0.033(3) 0.025(3) 0.020(3) 0.020(3)
C12 0.041(4) 0.062(4) 0.047(4) 0.028(3) 0.029(3) 0.023(3)
C13 0.041(4) 0.066(4) 0.028(3) 0.011(3) 0.021(3) 0.014(3)
C14 0.033(3) 0.049(4) 0.025(3) 0.006(3) 0.013(3) 0.011(3)
C15 0.037(3) 0.042(3) 0.031(3) 0.000(3) 0.016(3) 0.007(3)
C16 0.030(3) 0.043(3) 0.027(3) 0.002(3) 0.012(3) 0.005(3)
C17 0.034(3) 0.039(3) 0.035(3) 0.005(3) 0.017(3) 0.000(3)
C18 0.027(3) 0.037(3) 0.039(3) 0.006(3) 0.015(3) 0.002(3)
C19 0.019(3) 0.052(4) 0.033(3) -0.001(3) 0.012(3) 0.001(3)
C20 0.033(3) 0.049(4) 0.052(4) -0.014(3) 0.024(3) -0.011(3)
C21 0.039(3) 0.028(3) 0.042(4) 0.000(3) 0.019(3) 0.005(3)
C22 0.037(4) 0.069(5) 0.050(4) -0.007(3) 0.016(3) -0.004(3)
C23 0.048(4) 0.045(4) 0.048(4) -0.004(3) 0.024(3) -0.007(3)
C24 0.065(5) 0.063(5) 0.051(5) 0.012(4) 0.023(4) -0.001(4)
C25 0.033(6) 0.066(9) 0.049(8) -0.011(6) 0.017(6) -0.010(6)
C26 0.027(7) 0.071(10) 0.084(13) 0.002(9) 0.017(8) -0.021(6)
C27 0.060(5) 0.111(7) 0.103(7) -0.064(6) 0.063(5) -0.047(5)
C28 0.060(5) 0.054(4) 0.086(6) -0.015(4) 0.056(5) -0.010(3)
C29 0.036(4) 0.056(4) 0.065(5) 0.008(4) 0.026(4) 0.015(3)
C30 0.034(3) 0.056(4) 0.058(5) -0.014(4) 0.007(3) 0.012(3)
C31 0.048(4) 0.064(4) 0.046(4) 0.004(3) 0.027(3) 0.021(3)
C32 0.067(5) 0.059(4) 0.053(5) 0.005(3) 0.036(4) 0.007(4)
C33 0.045(4) 0.036(3) 0.065(5) -0.005(3) 0.037(4) -0.007(3)
C34 0.064(5) 0.053(4) 0.071(5) -0.020(4) 0.030(4) -0.021(4)
C35 0.043(4) 0.040(3) 0.061(4) 0.003(3) 0.030(4) 0.003(3)
C36 0.027(3) 0.069(5) 0.077(5) 0.000(4) 0.024(4) 0.004(3)
C37 0.024(6) 0.033(6) 0.049(7) -0.010(5) 0.016(5) 0.002(5)
C37A 0.021(5) 0.028(6) 0.032(6) 0.005(5) 0.012(5) -0.001(4)
Sb1 0.0340(4) 0.0566(4) 0.0545(4) 0.000 0.0189(3) 0.000
F1 0.070(3) 0.130(5) 0.142(5) 0.036(4) 0.035(4) -0.036(3)
F2 0.142(6) 0.195(7) 0.054(4) -0.022(4) 0.012(4) -0.031(5)
F3 0.092(4) 0.115(5) 0.226(8) 0.049(5) 0.057(5) -0.032(4)
Cl1 0.0707(16) 0.138(2) 0.130(2) 0.065(2) 0.0252(16) -0.0231(16)
C1S 0.31(3) 0.058(8) 0.034(8) 0.000 -0.012(11) 0.000
loop_
_atom_type_symbol
_atom_type_description
_atom_type_scat_dispersion_real
_atom_type_scat_dispersion_imag
_atom_type_scat_source
C C 0.0033 0.0016 'International Tables Vol C Tables 4.2.6.8 and 6.1.1.4'
H H 0.0000 0.0000 'International Tables Vol C Tables 4.2.6.8 and 6.1.1.4'
N N 0.0061 0.0033 'International Tables Vol C Tables 4.2.6.8 and 6.1.1.4'
O O 0.0106 0.0060 'International Tables Vol C Tables 4.2.6.8 and 6.1.1.4'
F F 0.0171 0.0103 'International Tables Vol C Tables 4.2.6.8 and 6.1.1.4'
Cl Cl 0.1484 0.1585 'International Tables Vol C Tables 4.2.6.8 and 6.1.1.4'
Mn Mn 0.3368 0.7283 'International Tables Vol C Tables 4.2.6.8 and 6.1.1.4'
Sb Sb -0.5866 1.5461 'International Tables Vol C Tables 4.2.6.8 and 6.1.1.4'
loop_
_geom_angle_atom_site_label_1
_geom_angle_atom_site_label_2
_geom_angle_atom_site_label_3
_geom_angle
_geom_angle_site_symmetry_1
_geom_angle_site_symmetry_3
O1 Mn1 N3 93.12(16) . .
O1 Mn1 N1 96.81(16) . .
N3 Mn1 N1 170.06(19) . .
O1 Mn1 N2 98.27(15) . .
N3 Mn1 N2 88.08(19) . .
N1 Mn1 N2 91.01(18) . .
O1 Mn1 N4 96.09(15) . .
N3 Mn1 N4 90.77(18) . .
N1 Mn1 N4 87.66(17) . .
N2 Mn1 N4 165.63(19) . .
Mn1 O1 Mn1 159.2(2) 2_656 .
C1 N1 C4 106.6(4) . .
C1 N1 Mn1 126.9(4) . .
C4 N1 Mn1 125.8(3) . .
C6 N2 C9 105.2(5) . .
C6 N2 Mn1 127.1(4) . .
C9 N2 Mn1 127.6(4) . .
C14 N3 C11 106.4(5) . .
C14 N3 Mn1 126.5(3) . .
C11 N3 Mn1 125.0(4) . .
C16 N4 C19 106.8(4) . .
C16 N4 Mn1 126.9(3) . .
C19 N4 Mn1 126.0(4) . .
N1 C1 C20 124.5(5) . .
N1 C1 C2 109.7(5) . .
C20 C1 C2 125.5(5) . .
C3 C2 C1 106.8(5) . .
C3 C2 C21 125.6(5) . .
C1 C2 C21 126.9(5) . .
C2 C3 C4 106.5(5) . .
C2 C3 C23 128.0(5) . .
C4 C3 C23 125.4(5) . .
C5 C4 N1 124.9(5) . .
C5 C4 C3 124.8(5) . .
N1 C4 C3 110.3(5) . .
C4 C5 C6 127.2(6) . .
C4 C5 H5A 116.4 . .
C6 C5 H5A 116.4 . .
N2 C6 C5 123.5(5) . .
N2 C6 C7 109.4(6) . .
C5 C6 C7 126.6(6) . .
C8 C7 C25 121.6(7) . .
C8 C7 C6 109.1(6) . .
C25 C7 C6 128.4(8) . .
C8 C7 C25A 130.8(9) . .
C6 C7 C25A 116.3(10) . .
C7 C8 C9 106.1(6) . .
C7 C8 C27 127.6(7) . .
C9 C8 C27 126.2(7) . .
N2 C9 C10 122.6(5) . .
N2 C9 C8 110.1(6) . .
C10 C9 C8 127.2(6) . .
C11 C10 C9 125.2(6) . .
C11 C10 C37A 124.8(6) . 2_656
C9 C10 C37A 105.9(7) . 2_656
C10 C11 N3 123.1(6) . .
C10 C11 C12 128.0(6) . .
N3 C11 C12 108.3(6) . .
C13 C12 C11 108.2(5) . .
C13 C12 C29 125.7(6) . .
C11 C12 C29 126.1(6) . .
C12 C13 C14 106.1(6) . .
C12 C13 C31 128.5(6) . .
C14 C13 C31 125.3(6) . .
N3 C14 C15 124.5(5) . .
N3 C14 C13 110.9(5) . .
C15 C14 C13 124.4(6) . .
C16 C15 C14 126.4(6) . .
C16 C15 H15A 116.8 . .
C14 C15 H15A 116.8 . .
N4 C16 C15 123.9(5) . .
N4 C16 C17 110.0(5) . .
C15 C16 C17 125.4(5) . .
C18 C17 C16 106.9(5) . .
C18 C17 C33 128.3(5) . .
C16 C17 C33 124.8(5) . .
C17 C18 C19 107.4(5) . .
C17 C18 C35 126.1(5) . .
C19 C18 C35 126.4(5) . .
N4 C19 C20 125.3(5) . .
N4 C19 C18 108.7(5) . .
C20 C19 C18 125.9(5) . .
C19 C20 C1 122.3(5) . .
C19 C20 C37 115.1(6) . .
C1 C20 C37 120.3(6) . .
C2 C21 C22 113.1(5) . .
C2 C21 H21A 109.0 . .
C22 C21 H21A 109.0 . .
C2 C21 H21B 109.0 . .
C22 C21 H21B 109.0 . .
H21A C21 H21B 107.8 . .
C21 C22 H22A 109.5 . .
C21 C22 H22B 109.5 . .
H22A C22 H22B 109.5 . .
C21 C22 H22C 109.5 . .
H22A C22 H22C 109.5 . .
H22B C22 H22C 109.5 . .
C3 C23 C24 113.0(5) . .
C3 C23 H23A 109.0 . .
C24 C23 H23A 109.0 . .
C3 C23 H23B 109.0 . .
C24 C23 H23B 109.0 . .
H23A C23 H23B 107.8 . .
C23 C24 H24A 109.5 . .
C23 C24 H24B 109.5 . .
H24A C24 H24B 109.5 . .
C23 C24 H24C 109.5 . .
H24A C24 H24C 109.5 . .
H24B C24 H24C 109.5 . .
C7 C25 C26 104.8(10) . .
C7 C25 H25A 110.8 . .
C26 C25 H25A 110.8 . .
C7 C25 H25B 110.8 . .
C26 C25 H25B 110.8 . .
H25A C25 H25B 108.9 . .
C25 C26 H26A 109.5 . .
C25 C26 H26B 109.5 . .
H26A C26 H26B 109.5 . .
C25 C26 H26C 109.5 . .
H26A C26 H26C 109.5 . .
H26B C26 H26C 109.5 . .
C26A C25A C7 104.1(15) . .
C26A C25A H25C 110.9 . .
C7 C25A H25C 110.9 . .
C26A C25A H25D 110.9 . .
C7 C25A H25D 110.9 . .
H25C C25A H25D 109.0 . .
C25A C26A H26D 109.5 . .
C25A C26A H26E 109.5 . .
H26D C26A H26E 109.5 . .
C25A C26A H26F 109.5 . .
H26D C26A H26F 109.5 . .
H26E C26A H26F 109.5 . .
C28 C27 C8 112.6(6) . .
C28 C27 H27A 109.1 . .
C8 C27 H27A 109.1 . .
C28 C27 H27B 109.1 . .
C8 C27 H27B 109.1 . .
H27A C27 H27B 107.8 . .
C27 C28 H28A 109.5 . .
C27 C28 H28B 109.5 . .
H28A C28 H28B 109.5 . .
C27 C28 H28C 109.5 . .
H28A C28 H28C 109.5 . .
H28B C28 H28C 109.5 . .
C30 C29 C12 112.4(5) . .
C30 C29 H29A 109.1 . .
C12 C29 H29A 109.1 . .
C30 C29 H29B 109.1 . .
C12 C29 H29B 109.1 . .
H29A C29 H29B 107.9 . .
C29 C30 H30A 109.5 . .
C29 C30 H30B 109.5 . .
H30A C30 H30B 109.5 . .
C29 C30 H30C 109.5 . .
H30A C30 H30C 109.5 . .
H30B C30 H30C 109.5 . .
C13 C31 C32 112.7(5) . .
C13 C31 H31A 109.1 . .
C32 C31 H31A 109.1 . .
C13 C31 H31B 109.1 . .
C32 C31 H31B 109.1 . .
H31A C31 H31B 107.8 . .
C31 C32 H32A 109.5 . .
C31 C32 H32B 109.5 . .
H32A C32 H32B 109.5 . .
C31 C32 H32C 109.5 . .
H32A C32 H32C 109.5 . .
H32B C32 H32C 109.5 . .
C17 C33 C34 112.2(5) . .
C17 C33 H33A 109.2 . .
C34 C33 H33A 109.2 . .
C17 C33 H33B 109.2 . .
C34 C33 H33B 109.2 . .
H33A C33 H33B 107.9 . .
C33 C34 H34A 109.5 . .
C33 C34 H34B 109.5 . .
H34A C34 H34B 109.5 . .
C33 C34 H34C 109.5 . .
H34A C34 H34C 109.5 . .
H34B C34 H34C 109.5 . .
C18 C35 C36 113.1(5) . .
C18 C35 H35A 109.0 . .
C36 C35 H35A 109.0 . .
C18 C35 H35B 109.0 . .
C36 C35 H35B 109.0 . .
H35A C35 H35B 107.8 . .
C35 C36 H36A 109.5 . .
C35 C36 H36B 109.5 . .
H36A C36 H36B 109.5 . .
C35 C36 H36C 109.5 . .
H36A C36 H36C 109.5 . .
H36B C36 H36C 109.5 . .
C20 C37 C37A 118.8(8) . .
C20 C37 H37A 107.6 . .
C37A C37 H37A 107.6 . .
C20 C37 H37B 107.6 . .
C37A C37 H37B 107.6 . .
H37A C37 H37B 107.0 . .
C37 C37A C10 123.1(8) . 2_656
C37 C37A H37C 106.6 . .
C10 C37A H37C 106.6 2_656 .
C37 C37A H37D 106.6 . .
C10 C37A H37D 106.6 2_656 .
H37C C37A H37D 106.5 . .
F1 Sb1 F1 92.5(4) 2_655 .
F1 Sb1 F2 89.6(3) 2_655 .
F1 Sb1 F2 92.0(3) . .
F1 Sb1 F2 92.0(3) 2_655 2_655
F1 Sb1 F2 89.6(3) . 2_655
F2 Sb1 F2 177.8(5) . 2_655
F1 Sb1 F3 90.6(3) 2_655 .
F1 Sb1 F3 176.3(3) . .
F2 Sb1 F3 86.0(3) . .
F2 Sb1 F3 92.4(3) 2_655 .
F1 Sb1 F3 176.3(3) 2_655 2_655
F1 Sb1 F3 90.6(3) . 2_655
F2 Sb1 F3 92.4(3) . 2_655
F2 Sb1 F3 86.0(3) 2_655 2_655
F3 Sb1 F3 86.4(4) . 2_655
Cl1 C1S Cl1 113.9(8) . 2_656
Cl1 C1S H1SA 109.1 . .
Cl1 C1S H1SA 109.1 2_656 .
loop_
_geom_bond_atom_site_label_1
_geom_bond_atom_site_label_2
_geom_bond_distance
_geom_bond_site_symmetry_2
Mn1 O1 1.9596(12) .
Mn1 N3 1.986(5) .
Mn1 N1 1.987(4) .
Mn1 N2 1.995(4) .
Mn1 N4 1.996(4) .
O1 Mn1 1.9596(12) 2_656
N1 C1 1.374(6) .
N1 C4 1.382(7) .
N2 C6 1.371(8) .
N2 C9 1.380(7) .
N3 C14 1.369(7) .
N3 C11 1.396(7) .
N4 C16 1.369(7) .
N4 C19 1.383(6) .
C1 C20 1.386(8) .
C1 C2 1.458(7) .
C2 C3 1.379(7) .
C2 C21 1.499(7) .
C3 C4 1.443(8) .
C3 C23 1.489(8) .
C4 C5 1.374(8) .
C5 C6 1.376(9) .
C5 H5A 0.9500 .
C6 C7 1.426(8) .
C7 C8 1.319(10) .
C7 C25 1.388(13) .
C7 C25A 1.74(2) .
C8 C9 1.442(9) .
C8 C27 1.517(8) .
C9 C10 1.389(9) .
C10 C11 1.387(9) .
C10 C37A 1.595(12) 2_656
C11 C12 1.439(9) .
C12 C13 1.369(9) .
C12 C29 1.513(8) .
C13 C14 1.429(8) .
C13 C31 1.500(9) .
C14 C15 1.382(8) .
C15 C16 1.382(7) .
C15 H15A 0.9500 .
C16 C17 1.441(7) .
C17 C18 1.356(8) .
C17 C33 1.491(8) .
C18 C19 1.453(8) .
C18 C35 1.504(7) .
C19 C20 1.385(8) .
C20 C37 1.559(12) .
C21 C22 1.511(8) .
C21 H21A 0.9900 .
C21 H21B 0.9900 .
C22 H22A 0.9800 .
C22 H22B 0.9800 .
C22 H22C 0.9800 .
C23 C24 1.519(9) .
C23 H23A 0.9900 .
C23 H23B 0.9900 .
C24 H24A 0.9800 .
C24 H24B 0.9800 .
C24 H24C 0.9800 .
C25 C26 1.51(2) .
C25 H25A 0.9900 .
C25 H25B 0.9900 .
C26 H26A 0.9800 .
C26 H26B 0.9800 .
C26 H26C 0.9800 .
C25A C26A 1.52(3) .
C25A H25C 0.9900 .
C25A H25D 0.9900 .
C26A H26D 0.9800 .
C26A H26E 0.9800 .
C26A H26F 0.9800 .
C27 C28 1.484(10) .
C27 H27A 0.9900 .
C27 H27B 0.9900 .
C28 H28A 0.9800 .
C28 H28B 0.9800 .
C28 H28C 0.9800 .
C29 C30 1.502(9) .
C29 H29A 0.9900 .
C29 H29B 0.9900 .
C30 H30A 0.9800 .
C30 H30B 0.9800 .
C30 H30C 0.9800 .
C31 C32 1.524(9) .
C31 H31A 0.9900 .
C31 H31B 0.9900 .
C32 H32A 0.9800 .
C32 H32B 0.9800 .
C32 H32C 0.9800 .
C33 C34 1.500(9) .
C33 H33A 0.9900 .
C33 H33B 0.9900 .
C34 H34A 0.9800 .
C34 H34B 0.9800 .
C34 H34C 0.9800 .
C35 C36 1.520(9) .
C35 H35A 0.9900 .
C35 H35B 0.9900 .
C36 H36A 0.9800 .
C36 H36B 0.9800 .
C36 H36C 0.9800 .
C37 C37A 1.582(15) .
C37 H37A 0.9900 .
C37 H37B 0.9900 .
C37A C10 1.596(12) 2_656
C37A H37C 0.9900 .
C37A H37D 0.9900 .
Sb1 F1 1.826(4) 2_655
Sb1 F1 1.827(4) .
Sb1 F2 1.851(6) .
Sb1 F2 1.851(6) 2_655
Sb1 F3 1.854(5) .
Sb1 F3 1.854(5) 2_655
Cl1 C1S 1.720(8) .
C1S Cl1 1.720(8) 2_656
C1S H1SA 0.9705 .
