#------------------------------------------------------------------------------
#$Date: 2019-11-23 03:02:52 +0200 (Sat, 23 Nov 2019) $
#$Revision: 231952 $
#$URL: file:///home/coder/svn-repositories/cod/cif/4/34/67/4346747.cif $
#------------------------------------------------------------------------------
#
# This file is available in the Crystallography Open Database (COD),
# http://www.crystallography.net/
#
# All data on this site have been placed in the public domain by the
# contributors.
#
data_4346747
loop_
_publ_author_name
'Dey, Soumyajit'
'Sil, Debangsu'
'Pandit, Younis Ahmad'
'Rath, Sankar Prasad'
_publ_section_title
;
 Effect of Two Interacting Rings in Metalloporphyrin Dimers upon Stepwise
 Oxidations.
;
_journal_issue                   7
_journal_name_full               'Inorganic chemistry'
_journal_page_first              3229
_journal_page_last               3238
_journal_paper_doi               10.1021/acs.inorgchem.5b02065
_journal_volume                  55
_journal_year                    2016
_chemical_formula_sum            'C74 H88 N8 Zn2'
_chemical_formula_weight         1220.26
_space_group_crystal_system      triclinic
_space_group_IT_number           2
_space_group_name_Hall           '-P 1'
_space_group_name_H-M_alt        'P -1'
_atom_sites_solution_hydrogens   geom
_audit_creation_method           SHELXL-2014
_cell_angle_alpha                81.987(5)
_cell_angle_beta                 82.363(5)
_cell_angle_gamma                81.137(5)
_cell_formula_units_Z            2
_cell_length_a                   11.000(5)
_cell_length_b                   12.095(5)
_cell_length_c                   23.230(5)
_cell_measurement_reflns_used    999
_cell_measurement_temperature    100(2)
_cell_measurement_theta_max      27.25
_cell_measurement_theta_min      2.5
_cell_volume                     3004(2)
_computing_cell_refinement       'Bruker SAINT'
_computing_data_collection       'Bruker APEX'
_computing_data_reduction        'Bruker SAINT'
_computing_molecular_graphics    'SHELXL 5.1, XP (Sheldrick, 1994)'
_computing_publication_material  SHELXS-97
_computing_structure_refinement  'SHELXL-2014 (Sheldrick, 2014)'
_computing_structure_solution    'SHELXS-97 (Sheldrick, 2008)'
_diffrn_ambient_temperature      100(2)
_diffrn_measured_fraction_theta_full 0.975
_diffrn_measured_fraction_theta_max 0.969
_diffrn_radiation_type           MoK\a
_diffrn_radiation_wavelength     0.71069
_diffrn_reflns_av_R_equivalents  0.0465
_diffrn_reflns_av_unetI/netI     0.0964
_diffrn_reflns_Laue_measured_fraction_full 0.975
_diffrn_reflns_Laue_measured_fraction_max 0.969
_diffrn_reflns_limit_h_max       13
_diffrn_reflns_limit_h_min       -13
_diffrn_reflns_limit_k_max       9
_diffrn_reflns_limit_k_min       -14
_diffrn_reflns_limit_l_max       27
_diffrn_reflns_limit_l_min       -28
_diffrn_reflns_number            16093
_diffrn_reflns_point_group_measured_fraction_full 0.975
_diffrn_reflns_point_group_measured_fraction_max 0.969
_diffrn_reflns_theta_full        25.000
_diffrn_reflns_theta_max         25.500
_diffrn_reflns_theta_min         1.717
_exptl_absorpt_coefficient_mu    0.851
_exptl_absorpt_correction_T_max  0.870
_exptl_absorpt_correction_T_min  0.815
_exptl_absorpt_correction_type   multi-scan
_exptl_absorpt_process_details   'SADABS 2.05 (Sheldrick, 2002)'
_exptl_crystal_colour            'dark red'
_exptl_crystal_density_diffrn    1.349
_exptl_crystal_description       block
_exptl_crystal_F_000             1296
_exptl_crystal_size_max          0.260
_exptl_crystal_size_mid          0.200
_exptl_crystal_size_min          0.160
_refine_diff_density_max         0.819
_refine_diff_density_min         -0.504
_refine_diff_density_rms         0.104
_refine_ls_extinction_method     none
_refine_ls_goodness_of_fit_ref   1.031
_refine_ls_hydrogen_treatment    constr
_refine_ls_matrix_type           full
_refine_ls_number_parameters     773
_refine_ls_number_reflns         10852
_refine_ls_number_restraints     0
_refine_ls_restrained_S_all      1.031
_refine_ls_R_factor_all          0.1005
_refine_ls_R_factor_gt           0.0628
_refine_ls_shift/su_max          0.001
_refine_ls_shift/su_mean         0.000
_refine_ls_structure_factor_coef Fsqd
_refine_ls_weighting_details
'w=1/[\s^2^(Fo^2^)+(0.0545P)^2^+3.5382P] where P=(Fo^2^+2Fc^2^)/3'
_refine_ls_weighting_scheme      calc
_refine_ls_wR_factor_gt          0.1310
_refine_ls_wR_factor_ref         0.1552
_reflns_Friedel_coverage         0.000
_reflns_number_gt                7349
_reflns_number_total             10852
_reflns_threshold_expression     'I > 2\s(I)'
_cod_data_source_file            ic5b02065_si_003.cif
_cod_data_source_block           18octam
_cod_database_code               4346747
_shelx_space_group_comment
;
The symmetry employed for this shelxl refinement is uniquely defined
by the following loop, which should always be used as a source of
symmetry information in preference to the above space-group names.
They are only intended as comments.
;
_shelx_estimated_absorpt_t_min   0.809
_shelx_estimated_absorpt_t_max   0.876
_shelxl_version_number           2014-3
_shelx_res_file
;
TITL 18octam in P -1
CELL  0.71069  11.0000  12.0950  23.2300   81.987   82.363   81.137
ZERR     2.00   0.0050   0.0050   0.0050    0.005    0.005    0.005
LATT   1
SFAC  C    H    N    ZN
UNIT  148  176  16   4
MERG   2
OMIT     4.00 180.00
omit -3 51.0
omit 1  -8   4
omit -10 -10   4
omit -7  -2  21
omit -6  11  10
omit -2  13  12
omit 11  -6   4
omit -7 -11   9
omit 6  -5  22
omit -5 -11  12
omit 12   4  13
omit -6  11   8
omit 11  -1  17
omit -4 -11  13
omit -2  -9  19
omit -6 -11  11
omit -5   3  24
omit -4  12  12
omit 2  -7  22
omit 5  -5  23
omit 4   7   1
omit 2  12  19
omit 7  10  20
omit -1 -10  17
omit 0  13  15
omit 12   3  14
omit 3  12  19
omit 11   9   0
omit -4 -10  16
omit -8  -3  19
omit 7  -3  23
omit 4  12  18
omit 12   5  12
omit 3  -8  20
omit 5  12  18
omit 5  -6  21
omit -7  -1  21
omit 13   5   7
omit -5  12   9
omit -7   0  21
omit 12   5  13
omit 0   0   1
omit 1   2   9
omit 9  -9   3
omit -2  13  11
omit 0  13  14
omit 1  -9  19
omit 10  -1  19
omit 8  -3  21
omit 3  -8  19
omit -3   1   1
bond $H
TEMP -173.0
size 0.26 0.20 0.16 ! red block
L.S.   30
CONF
acta 50
FMAP   2
PLAN   5
LIST   1
L.S.   30
WGHT    0.054500    3.538200
FVAR       0.16380
ZN1   4    0.183375    0.125207    0.787961    11.00000    0.01925    0.01980 =
         0.01375   -0.00139   -0.00190   -0.00218
ZN2   4    0.344470    0.355533    0.716006    11.00000    0.01864    0.01880 =
         0.01424   -0.00215   -0.00303   -0.00226
N1    3    0.170523    0.148110    0.700563    11.00000    0.01569    0.01936 =
         0.02027   -0.00188    0.00043   -0.00631
N2    3    0.043362    0.255355    0.799885    11.00000    0.01573    0.02530 =
         0.01298   -0.00101   -0.00347   -0.00045
N3    3    0.191910    0.099065    0.875282    11.00000    0.01929    0.02101 =
         0.01479   -0.00152   -0.00084   -0.00767
N4    3    0.314969   -0.011266    0.775799    11.00000    0.01735    0.01807 =
         0.01742    0.00239   -0.00096   -0.00647
N51   3    0.476692    0.220347    0.728597    11.00000    0.01742    0.01932 =
         0.01509   -0.00743   -0.00282   -0.00261
N52   3    0.325600    0.371827    0.803536    11.00000    0.02066    0.01960 =
         0.01462   -0.00239   -0.00335   -0.00357
N53   3    0.217637    0.494490    0.703291    11.00000    0.01767    0.01390 =
         0.01786    0.00022   -0.00541   -0.00131
N54   3    0.370675    0.343079    0.628602    11.00000    0.01738    0.01487 =
         0.01538    0.00040   -0.00322   -0.00262
C1    1    0.240627    0.089190    0.657634    11.00000    0.01756    0.01699 =
         0.01818   -0.00635   -0.00045   -0.00846
C2    1    0.199058    0.134092    0.600944    11.00000    0.02030    0.02003 =
         0.01201   -0.00265   -0.00145   -0.00976
C3    1    0.109280    0.223517    0.610306    11.00000    0.01704    0.02090 =
         0.01413    0.00012   -0.00396   -0.00590
C4    1    0.091300    0.231508    0.671966    11.00000    0.01813    0.02236 =
         0.01772    0.00117   -0.00199   -0.00406
C5    1    0.005830    0.311442    0.698894    11.00000    0.01872    0.01911 =
         0.01806   -0.00079   -0.00355   -0.00316
AFIX  43
H5A   2   -0.041065    0.365137    0.673659    11.00000   -1.20000
AFIX   0
C6    1   -0.018734    0.321847    0.757737    11.00000    0.01344    0.02136 =
         0.02176   -0.00305    0.00008    0.00160
C7    1   -0.117805    0.400284    0.783339    11.00000    0.02393    0.01848 =
         0.01890    0.00283   -0.00486   -0.00298
C8    1   -0.114334    0.380609    0.842135    11.00000    0.02208    0.02126 =
         0.01407   -0.00204   -0.00222   -0.00311
C9    1   -0.011397    0.291942    0.852052    11.00000    0.01692    0.01985 =
         0.01402    0.00041    0.00401   -0.00547
C10   1    0.027682    0.247703    0.906421    11.00000    0.02225    0.02121 =
         0.01427   -0.00693   -0.00097   -0.00296
AFIX  43
H10A  2   -0.015402    0.280708    0.939433    11.00000   -1.20000
AFIX   0
C11   1    0.122796    0.160642    0.917249    11.00000    0.02062    0.02202 =
         0.01648   -0.00317   -0.00039   -0.01172
C12   1    0.164480    0.119075    0.974354    11.00000    0.02225    0.01829 =
         0.01396   -0.00145    0.00340   -0.00728
C13   1    0.257706    0.032631    0.965618    11.00000    0.02189    0.01833 =
         0.02212   -0.00188   -0.00185   -0.00998
C14   1    0.273073    0.019685    0.904505    11.00000    0.01657    0.01955 =
         0.01784    0.00238   -0.00171   -0.00538
C15   1    0.356326   -0.061736    0.877540    11.00000    0.02320    0.01584 =
         0.02240    0.00105   -0.00613   -0.00263
AFIX  43
H15A  2    0.407216   -0.112032    0.902495    11.00000   -1.20000
AFIX   0
C16   1    0.374516   -0.078862    0.819328    11.00000    0.02223    0.01617 =
         0.01860   -0.00128   -0.00140    0.00031
C17   1    0.461288   -0.167793    0.794603    11.00000    0.01890    0.02053 =
         0.01542   -0.00265   -0.00154    0.00025
C18   1    0.455346   -0.152491    0.736590    11.00000    0.01836    0.01771 =
         0.02039   -0.00453    0.00047   -0.00422
C19   1    0.366305   -0.052270    0.724276    11.00000    0.01840    0.01777 =
         0.01860   -0.00126   -0.00193   -0.00577
C20   1    0.338268    0.001858    0.668856    11.00000    0.02340    0.01506 =
         0.02097   -0.00212   -0.00195   -0.00574
C21   1    0.234716    0.087593    0.543379    11.00000    0.02019    0.02471 =
         0.01525   -0.00487   -0.00638   -0.00323
AFIX  23
H21A  2    0.313211    0.035379    0.545108    11.00000   -1.20000
H21B  2    0.248920    0.150228    0.512064    11.00000   -1.20000
AFIX   0
C22   1    0.135013    0.025166    0.528362    11.00000    0.02330    0.03130 =
         0.02826   -0.01250   -0.00395   -0.00233
AFIX 137
H22A  2    0.164031   -0.008383    0.492091    11.00000   -1.50000
H22B  2    0.059305    0.078198    0.523114    11.00000   -1.50000
H22C  2    0.117622   -0.034438    0.560229    11.00000   -1.50000
AFIX   0
C23   1    0.040492    0.302818    0.565645    11.00000    0.02159    0.02463 =
         0.01217   -0.00174   -0.00117    0.00106
AFIX  23
H23A  2    0.087597    0.296568    0.526572    11.00000   -1.20000
H23B  2    0.038711    0.380943    0.574314    11.00000   -1.20000
AFIX   0
C24   1   -0.092651    0.282934    0.562771    11.00000    0.02461    0.02653 =
         0.02451   -0.00074   -0.00560    0.00123
AFIX 137
H24A  2   -0.129928    0.338936    0.533133    11.00000   -1.50000
H24B  2   -0.140991    0.290051    0.600998    11.00000   -1.50000
H24C  2   -0.092219    0.207093    0.552345    11.00000   -1.50000
AFIX   0
C25   1   -0.210692    0.478885    0.749851    11.00000    0.01900    0.02185 =
         0.02342   -0.00334   -0.00579    0.00024
AFIX  23
H25A  2   -0.167800    0.511369    0.712586    11.00000   -1.20000
H25B  2   -0.245982    0.541721    0.772820    11.00000   -1.20000
AFIX   0
C26   1   -0.316406    0.421008    0.736406    11.00000    0.02831    0.03391 =
         0.03091   -0.00150   -0.00685    0.00418
AFIX 137
H26A  2   -0.373679    0.475993    0.714479    11.00000   -1.50000
H26B  2   -0.360804    0.390422    0.773139    11.00000   -1.50000
H26C  2   -0.282342    0.359595    0.713002    11.00000   -1.50000
AFIX   0
C27   1   -0.202907    0.436859    0.887583    11.00000    0.02747    0.02641 =
         0.01713    0.00230   -0.00143   -0.00044
AFIX  23
H27A  2   -0.193949    0.391741    0.926133    11.00000   -1.20000
H27B  2   -0.288420    0.436544    0.878714    11.00000   -1.20000
AFIX   0
C28   1   -0.185364    0.558264    0.892111    11.00000    0.02461    0.03382 =
         0.02263   -0.00844   -0.00515    0.00849
AFIX 137
H28A  2   -0.249485    0.589920    0.921114    11.00000   -1.50000
H28B  2   -0.191874    0.603529    0.853945    11.00000   -1.50000
H28C  2   -0.103495    0.559115    0.904175    11.00000   -1.50000
AFIX   0
C29   1    0.112146    0.163869    1.030792    11.00000    0.02145    0.02487 =
         0.01665    0.00045   -0.00441   -0.00319
AFIX  23
H29A  2    0.090301    0.246680    1.023140    11.00000   -1.20000
H29B  2    0.176630    0.148337    1.057914    11.00000   -1.20000
AFIX   0
C30   1   -0.002379    0.112901    1.060327    11.00000    0.02788    0.03025 =
         0.01912   -0.00482   -0.00003   -0.00248
AFIX 137
H30A  2   -0.030144    0.143191    1.097588    11.00000   -1.50000
H30B  2    0.018076    0.030765    1.067554    11.00000   -1.50000
H30C  2   -0.068604    0.132021    1.034802    11.00000   -1.50000
AFIX   0
C31   1    0.329651   -0.040028    1.010659    11.00000    0.02467    0.02758 =
         0.01455   -0.00698   -0.00408   -0.00161
AFIX  23
H31A  2    0.332575    0.003891    1.043246    11.00000   -1.20000
H31B  2    0.415770   -0.060364    0.992940    11.00000   -1.20000
AFIX   0
C32   1    0.275218   -0.147900    1.035224    11.00000    0.02584    0.03143 =
         0.02083   -0.00138   -0.00316    0.00385
AFIX 137
H32A  2    0.321337   -0.187915    1.066990    11.00000   -1.50000
H32B  2    0.281301   -0.196237    1.004142    11.00000   -1.50000
H32C  2    0.188059   -0.128823    1.050316    11.00000   -1.50000
AFIX   0
C33   1    0.538815   -0.259895    0.829027    11.00000    0.02567    0.02557 =
         0.01789   -0.00673   -0.00225    0.00542
AFIX  23
H33A  2    0.552530   -0.233145    0.865720    11.00000   -1.20000
H33B  2    0.620636   -0.276659    0.806159    11.00000   -1.20000
AFIX   0
C34   1    0.480169   -0.367405    0.844018    11.00000    0.03977    0.03275 =
         0.03826    0.01371   -0.00160   -0.00409
AFIX 137
H34A  2    0.528835   -0.420812    0.870785    11.00000   -1.50000
H34B  2    0.478320   -0.400874    0.808131    11.00000   -1.50000
H34C  2    0.395462   -0.349988    0.862823    11.00000   -1.50000
AFIX   0
C35   1    0.515713   -0.236962    0.695285    11.00000    0.02513    0.01831 =
         0.01855   -0.00318   -0.00267    0.00272
AFIX  23
H35A  2    0.556199   -0.196681    0.659567    11.00000   -1.20000
H35B  2    0.580451   -0.290075    0.714381    11.00000   -1.20000
AFIX   0
C36   1    0.421929   -0.302527    0.678378    11.00000    0.03254    0.02797 =
         0.02148   -0.00644   -0.00039   -0.00848
AFIX 137
H36A  2    0.464376   -0.358768    0.653300    11.00000   -1.50000
H36B  2    0.360853   -0.250661    0.657133    11.00000   -1.50000
H36C  2    0.379878   -0.340575    0.713760    11.00000   -1.50000
AFIX   0
C37   1    0.439637   -0.018688    0.619343    11.00000    0.02014    0.01648 =
         0.01366   -0.00372   -0.00473   -0.00002
AFIX  43
H37A  2    0.444990   -0.083598    0.599856    11.00000   -1.20000
AFIX   0
C51   1    0.532549    0.149998    0.688359    11.00000    0.02006    0.01472 =
         0.01531   -0.00098   -0.00460   -0.00221
C52   1    0.622931    0.063699    0.715666    11.00000    0.01674    0.01892 =
         0.02354   -0.00001   -0.00383   -0.00397
C53   1    0.618268    0.082842    0.772340    11.00000    0.02246    0.02123 =
         0.01574   -0.00463    0.00003   -0.00244
C54   1    0.524692    0.178819    0.780360    11.00000    0.01585    0.01932 =
         0.02348   -0.00042   -0.00163   -0.00812
C55   1    0.483346    0.218480    0.834019    11.00000    0.02034    0.01841 =
         0.01202   -0.00111   -0.00377   -0.00601
AFIX  43
H55A  2    0.523992    0.181242    0.866430    11.00000   -1.20000
AFIX   0
C56   1    0.390105    0.305670    0.845617    11.00000    0.02155    0.02005 =
         0.01340   -0.00076   -0.00181   -0.00250
C57   1    0.342585    0.339110    0.902747    11.00000    0.02370    0.02193 =
         0.01297   -0.00451   -0.00212   -0.00904
C58   1    0.247846    0.424806    0.894687    11.00000    0.02262    0.02524 =
         0.01453   -0.00432   -0.00317   -0.01007
C59   1    0.238649    0.445968    0.832518    11.00000    0.01948    0.02181 =
         0.01498   -0.00231    0.00158   -0.00712
C60   1    0.158399    0.530553    0.804941    11.00000    0.02269    0.01517 =
         0.01648   -0.00570   -0.00054    0.00409
AFIX  43
H60A  2    0.102265    0.575985    0.829674    11.00000   -1.20000
AFIX   0
C61   1    0.150999    0.556023    0.745756    11.00000    0.01319    0.02235 =
         0.02196   -0.00334   -0.00371   -0.00240
C62   1    0.073442    0.652353    0.718399    11.00000    0.01672    0.01461 =
         0.01956   -0.00035   -0.00004   -0.00187
C63   1    0.094375    0.646647    0.659764    11.00000    0.01728    0.02176 =
         0.02065   -0.00260   -0.00028   -0.00134
C64   1    0.182791    0.547542    0.650573    11.00000    0.01447    0.02201 =
         0.01943    0.00049   -0.00031   -0.00622
C65   1    0.226925    0.508484    0.596933    11.00000    0.01588    0.02541 =
         0.01543    0.00039   -0.00237   -0.00624
AFIX  43
H65A  2    0.195046    0.551923    0.563544    11.00000   -1.20000
AFIX   0
C66   1    0.311428    0.414253    0.586340    11.00000    0.01413    0.01727 =
         0.01404   -0.00041   -0.00258   -0.00043
C67   1    0.346234    0.372928    0.530529    11.00000    0.01747    0.02246 =
         0.01293   -0.00219   -0.00461   -0.01153
C68   1    0.426118    0.275626    0.538499    11.00000    0.01794    0.01864 =
         0.01479   -0.00261   -0.00050   -0.00661
C69   1    0.438728    0.256047    0.601661    11.00000    0.01570    0.01552 =
         0.01878   -0.00533   -0.00123   -0.00317
C70   1    0.505166    0.159802    0.630920    11.00000    0.01690    0.01851 =
         0.01973   -0.00551   -0.00018   -0.00371
C71   1    0.716342   -0.022526    0.686302    11.00000    0.02401    0.02072 =
         0.01950   -0.00236   -0.00187    0.00239
AFIX  23
H71A  2    0.672983   -0.063986    0.663316    11.00000   -1.20000
H71B  2    0.754404   -0.077646    0.716712    11.00000   -1.20000
AFIX   0
C72   1    0.817578    0.030557    0.646162    11.00000    0.02547    0.03444 =
         0.02962   -0.00689   -0.00120   -0.00152
AFIX 137
H72A  2    0.876106   -0.028516    0.628638    11.00000   -1.50000
H72B  2    0.861354    0.071168    0.668751    11.00000   -1.50000
H72C  2    0.780703    0.083325    0.615156    11.00000   -1.50000
AFIX   0
C73   1    0.699007    0.023626    0.816932    11.00000    0.03302    0.02187 =
         0.01441   -0.00501   -0.00775    0.00556
AFIX  23
H73A  2    0.724172   -0.055704    0.809388    11.00000   -1.20000
H73B  2    0.651554    0.023442    0.856258    11.00000   -1.20000
AFIX   0
C74   1    0.814141    0.079549    0.815956    11.00000    0.03130    0.03721 =
         0.02914   -0.00407   -0.01784    0.00240
AFIX 137
H74A  2    0.862580    0.040901    0.847193    11.00000   -1.50000
H74B  2    0.789567    0.158843    0.822023    11.00000   -1.50000
H74C  2    0.864449    0.074931    0.778024    11.00000   -1.50000
AFIX   0
C75   1    0.391255    0.289936    0.959349    11.00000    0.02045    0.02730 =
         0.01001   -0.00286   -0.00317   -0.00163
AFIX  23
H75A  2    0.442336    0.216378    0.954103    11.00000   -1.20000
H75B  2    0.320615    0.276059    0.989304    11.00000   -1.20000
AFIX   0
C76   1    0.469455    0.366195    0.981555    11.00000    0.02927    0.02969 =
         0.02069   -0.00410   -0.00783   -0.00607
AFIX 137
H76A  2    0.499383    0.329488    1.018359    11.00000   -1.50000
H76B  2    0.418694    0.438312    0.988139    11.00000   -1.50000
H76C  2    0.540258    0.379518    0.952357    11.00000   -1.50000
AFIX   0
C77   1    0.163109    0.483633    0.940547    11.00000    0.02444    0.03286 =
         0.01542   -0.00188   -0.00181    0.00474
AFIX  23
H77A  2    0.171828    0.438042    0.978994    11.00000   -1.20000
H77B  2    0.076661    0.486039    0.932303    11.00000   -1.20000
AFIX   0
C78   1    0.185001    0.603389    0.945180    11.00000    0.03959    0.03130 =
         0.01660   -0.00829   -0.00080    0.00351
AFIX 137
H78A  2    0.124515    0.635079    0.975583    11.00000   -1.50000
H78B  2    0.175658    0.649987    0.907566    11.00000   -1.50000
H78C  2    0.268899    0.602062    0.955367    11.00000   -1.50000
AFIX   0
C79   1   -0.003057    0.743506    0.749953    11.00000    0.02273    0.02393 =
         0.02103   -0.00416   -0.00419    0.00475
AFIX  23
H79A  2   -0.040610    0.709746    0.788202    11.00000   -1.20000
H79B  2   -0.071109    0.779815    0.726885    11.00000   -1.20000
AFIX   0
C80   1    0.073208    0.832581    0.759919    11.00000    0.04300    0.03058 =
         0.03671   -0.01482    0.00169   -0.00146
AFIX 137
H80A  2    0.020112    0.889818    0.781265    11.00000   -1.50000
H80B  2    0.107991    0.868245    0.722093    11.00000   -1.50000
H80C  2    0.140614    0.797018    0.782814    11.00000   -1.50000
AFIX   0
C81   1    0.034966    0.727648    0.613425    11.00000    0.02958    0.02015 =
         0.01349    0.00071   -0.00012    0.00245
AFIX  23
H81A  2    0.089168    0.724457    0.575924    11.00000   -1.20000
H81B  2    0.027619    0.805068    0.624050    11.00000   -1.20000
AFIX   0
C82   1   -0.092626    0.703354    0.604946    11.00000    0.03220    0.03967 =
         0.03030    0.00409   -0.01422   -0.00083
AFIX 137
H82A  2   -0.129358    0.762031    0.576327    11.00000   -1.50000
H82B  2   -0.145665    0.702583    0.642357    11.00000   -1.50000
H82C  2   -0.085094    0.629789    0.590688    11.00000   -1.50000
AFIX   0
C83   1    0.301696    0.428341    0.472972    11.00000    0.01811    0.01854 =
         0.01356   -0.00046   -0.00413   -0.00007
AFIX  23
H83A  2    0.217815    0.470334    0.480959    11.00000   -1.20000
H83B  2    0.295168    0.368901    0.448685    11.00000   -1.20000
AFIX   0
C84   1    0.386502    0.509228    0.438342    11.00000    0.02908    0.02417 =
         0.02279    0.00443   -0.00610   -0.00376
AFIX 137
H84A  2    0.355517    0.538443    0.400730    11.00000   -1.50000
H84B  2    0.470557    0.469062    0.431462    11.00000   -1.50000
H84C  2    0.387800    0.572036    0.460634    11.00000   -1.50000
AFIX   0
C85   1    0.496314    0.210939    0.491292    11.00000    0.02812    0.02162 =
         0.00934   -0.00164   -0.00709   -0.00760
AFIX  23
H85A  2    0.458360    0.235944    0.454500    11.00000   -1.20000
H85B  2    0.489596    0.129825    0.502172    11.00000   -1.20000
AFIX   0
C86   1    0.633365    0.226620    0.480792    11.00000    0.02537    0.02423 =
         0.02048   -0.00743    0.00149   -0.00098
AFIX 137
H86A  2    0.676029    0.180237    0.450827    11.00000   -1.50000
H86B  2    0.671016    0.203559    0.517300    11.00000   -1.50000
H86C  2    0.640745    0.306097    0.467529    11.00000   -1.50000
AFIX   0
C87   1    0.521086    0.052773    0.602814    11.00000    0.01764    0.02368 =
         0.01404   -0.00436   -0.00063    0.00521
AFIX  43
H87A  2    0.588452    0.036819    0.573714    11.00000   -1.20000

AFIX   0
HKLF    4

REM  18octam in P -1
REM R1 =  0.0628 for    7349 Fo > 4sig(Fo)  and  0.1005 for all   10852 data
REM    773 parameters refined using      0 restraints

END

WGHT      0.0545      3.5380

REM Highest difference peak  0.819,  deepest hole -0.504,  1-sigma level  0.104
Q1    1   0.1132  0.1847  0.7827  11.00000  0.05    0.82
Q2    1   0.4291  0.2795  0.7173  11.00000  0.05    0.76
Q3    1   0.2701  0.4227  0.7102  11.00000  0.05    0.73
Q4    1   0.2648  0.0469  0.7908  11.00000  0.05    0.67
Q5    1   0.2293  0.1046  0.7483  11.00000  0.05    0.63
;
_shelx_res_checksum              31870
_shelx_hkl_file
;
  -1   0   0   66.51    2.21
   1   0   0   66.39    2.18
  -2   0   0   31.15    1.91
   2   0   0   33.74    1.95
  -3   0   0   65.86    3.21
   3   0   0   66.46    3.33
  -4   0   0   27.39    2.44
   4   0   0   28.48    2.47
   5   0   0   19.26    2.31
  -5   0   0   20.71    2.36
   5   0   0   15.41    2.11
  -6   0   0  479.12   14.98
   6   0   0  488.72   15.39
   6   0   0  482.32   14.86
   7   0   0  124.18    6.43
  -7   0   0  125.55    6.30
   7   0   0  127.20    6.36
  -8   0   0    4.08    1.85
   8   0   0    0.32    1.78
   8   0   0    3.35    1.80
   9   0   0    2.92    2.02
  -9   0   0    5.30    2.35
  10   0   0    0.29    1.37
 -10   0   0    2.04    1.99
  11   0   0   62.00    5.38
 -11   0   0   59.83    5.46
  12   0   0    5.85    2.19
  13   0   0   14.22    3.29
  14   0   0    7.95    3.00
  13  -1   0    1.84    1.75
  12  -1   0    7.37    2.55
  11  -1   0    5.93    2.33
  10  -1   0    7.05    2.46
 -10   1   0    8.34    2.72
  -9   1   0   36.52    4.04
   9  -1   0   30.07    3.84
   8  -1   0   20.79    3.21
   8  -1   0   29.26    3.26
  -8   1   0   24.64    3.13
   7  -1   0  107.22    5.91
  -7   1   0   99.40    5.47
   7  -1   0  108.07    5.59
   6  -1   0   36.59    3.39
  -6   1   0   38.72    3.14
   6  -1   0   31.16    2.88
  -5   1   0   38.37    2.97
   5  -1   0   39.36    3.14
   5  -1   0   40.32    2.80
   4  -1   0    1.90    1.21
  -4   1   0    2.20    1.18
   4  -1   0    1.71    0.98
  -4   1   0    1.96    1.23
   3  -1   0   56.89    2.72
  -3   1   0   53.97    2.96
  -3   1   0   58.01    3.06
   3  -1   0   55.38    3.09
   2  -1   0    0.07    0.74
   2  -1   0    2.12    0.80
   2  -1   0    2.50    0.97
   1  -1   0  169.25    4.68
   1  -1   0  166.24    4.84
   0  -1   0   22.83    0.97
   0  -1   0   26.34    1.06
  -1  -1   0  806.16   20.51
   1   1   0  805.44   21.39
  -2  -1   0    8.27    1.25
   2   1   0    5.42    1.33
   2   1   0    7.82    1.03
   3   1   0   43.43    3.09
   3   1   0   39.06    2.59
  -3  -1   0   42.29    2.77
   4   1   0   61.21    3.38
  -4  -1   0   56.64    3.49
   4   1   0   62.00    3.91
   5   1   0   41.50    3.13
   5   1   0   48.12    3.65
  -5  -1   0   49.48    3.48
   6   1   0    9.14    1.90
   6   1   0    8.76    2.09
  -6  -1   0   10.85    2.17
   7   1   0   10.30    2.23
  -7  -1   0    6.16    2.03
   7   1   0    7.44    2.05
   8   1   0    4.93    1.99
  -8  -1   0    5.36    2.10
   9   1   0   31.47    3.75
  -9  -1   0   45.06    4.67
  10   1   0    4.49    2.14
 -10  -1   0    1.50    2.31
  11   1   0   65.61    5.37
 -11  -1   0   60.10    5.55
 -12  -1   0   23.81    4.26
  12   1   0   19.57    3.59
  13   1   0   14.73    3.47
  14   1   0    2.78    1.97
  13  -2   0   25.90    4.37
  12  -2   0    4.30    2.00
  11  -2   0    2.76    2.28
  10  -2   0    3.61    2.14
 -10   2   0    6.59    2.46
  -9   2   0  112.25    6.37
   9  -2   0  118.05    7.03
  -8   2   0   23.79    2.99
   8  -2   0   20.11    3.19
  -7   2   0   -0.31    1.08
   7  -2   0    2.42    1.30
   7  -2   0   -1.43    1.13
  -6   2   0    0.37    1.10
   6  -2   0   -0.60    1.16
   6  -2   0    0.53    0.93
  -5   2   0   54.94    3.55
   5  -2   0   58.43    3.16
   5  -2   0   62.25    3.90
  -5   2   0   59.44    3.59
   4  -2   0  405.51   11.91
   4  -2   0  401.62   11.22
  -4   2   0  350.45   11.49
   3  -2   0  164.21    5.60
   3  -2   0  175.64    6.18
   2  -2   0    6.97    1.13
   2  -2   0    8.34    1.37
   1  -2   0    5.07    0.85
   1  -2   0    4.09    0.98
   0  -2   0    0.57    0.62
   0  -2   0   -0.20    0.50
  -1  -2   0    5.97    1.04
   2   2   0 9999.89  247.33
  -2  -2   0 9690.03  239.31
   3   2   0   25.06    2.72
  -3  -2   0   27.57    2.47
   4   2   0  262.05    8.24
   4   2   0  272.44    9.82
  -4  -2   0  265.44    9.03
  -5  -2   0   10.50    2.02
   5   2   0   14.30    1.89
   5   2   0   10.71    2.32
   6   2   0    3.38    1.94
  -6  -2   0    3.70    1.68
   6   2   0    2.42    1.36
   7   2   0    6.22    2.25
  -7  -2   0    0.68    1.61
   7   2   0    2.02    1.49
  -8  -2   0  136.90    7.34
   8   2   0  126.05    6.54
   8   2   0  129.15    7.48
   9   2   0   64.55    5.59
  -9  -2   0   60.98    5.28
   9   2   0   60.53    4.73
 -10  -2   0    3.54    2.58
  10   2   0    1.07    1.66
 -11  -2   0   29.84    4.52
  11   2   0   25.15    3.72
 -12  -2   0   13.00    3.71
  12   2   0    5.79    2.39
 -13  -2   0   -0.89    2.70
  13   2   0    2.50    1.70
  14   2   0    3.30    1.85
  13  -3   0    3.21    2.21
  12  -3   0   15.72    3.50
  11  -3   0   23.12    4.00
  10  -3   0   15.97    3.31
   9  -3   0   17.88    3.29
  -9   3   0   13.08    2.49
   8  -3   0   13.09    2.91
  -8   3   0    9.92    2.10
   7  -3   0    3.27    1.89
  -7   3   0    4.07    1.47
   6  -3   0   21.00    2.85
   6  -3   0   22.16    2.04
   5  -3   0  134.87    6.24
   5  -3   0  137.78    5.21
   4  -3   0   99.60    4.90
   4  -3   0  102.84    4.15
   4  -3   0   96.54    4.26
   3  -3   0  267.64    8.05
   3  -3   0  255.43    8.49
   2  -3   0   65.12    2.95
   2  -3   0   66.91    3.39
   1  -3   0   25.61    2.10
   1  -3   0   24.68    1.88
   0  -3   0   67.43    2.89
   0  -3   0   63.67    2.86
  -2  -3   0    1.08    1.19
  -3  -3   0 4600.62  111.96
   4   3   0  231.42    9.08
  -4  -3   0  225.64    8.27
   5   3   0   13.98    2.59
  -5  -3   0   14.48    2.33
  -6  -3   0   14.94    2.59
   6   3   0   16.41    2.88
   7   3   0    7.88    1.95
  -7  -3   0   10.31    2.46
   7   3   0   13.60    2.95
   8   3   0    6.28    2.06
  -8  -3   0    8.52    2.68
   8   3   0   10.61    3.08
   9   3   0   86.41    5.56
  -9  -3   0   89.01    6.25
 -10  -3   0   36.37    4.80
  10   3   0   44.89    4.40
 -11  -3   0   25.60    4.44
  11   3   0   19.77    3.18
 -12  -3   0    2.09    2.74
 -13  -3   0   15.67    4.15
  12  -4   0    4.46    2.25
  11  -4   0   55.73    5.84
  10  -4   0    3.99    2.35
   9  -4   0    1.40    1.90
   8  -4   0    4.05    2.24
   5  -4   0    6.91    1.17
   5  -4   0    8.15    1.61
   5  -4   0    7.72    1.97
   4  -4   0   61.83    3.99
   4  -4   0   56.83    3.20
   3  -4   0    3.05    1.37
   3  -4   0    4.05    1.17
   2  -4   0   70.61    3.66
   2  -4   0   65.63    3.23
   1  -4   0    8.44    1.42
   1  -4   0    9.05    1.48
   0  -4   0   66.33    3.14
   0  -4   0   61.63    3.15
  -1  -4   0   14.00    1.73
  -3  -4   0   71.20    4.06
  -4  -4   0   65.19    4.18
  -5  -4   0    3.99    1.80
  -6  -4   0  167.46    7.64
  -7  -4   0   36.70    4.07
  -8  -4   0   32.07    4.18
  -9  -4   0    4.65    2.42
 -10  -4   0   -0.47    2.44
 -11  -4   0   10.53    3.40
 -12  -4   0    8.19    3.27
 -13  -4   0   22.32    4.56
 -14  -4   0   16.89    4.72
  12  -5   0   31.34    4.79
  11  -5   0    1.88    1.63
  10  -5   0    4.72    2.35
   9  -5   0   13.36    3.18
   8  -5   0   14.50    3.12
  -7   5   0   29.03    3.16
   7  -5   0   24.16    3.51
  -7   5   0   22.74    2.91
   6  -5   0   99.59    6.07
   6  -5   0   98.14    4.96
   5  -5   0    5.95    1.60
   5  -5   0    4.75    1.93
   4  -5   0    0.30    1.26
   4  -5   0    3.88    1.25
   3  -5   0   19.94    2.11
   3  -5   0   19.14    2.39
   2  -5   0   50.01    3.33
   2  -5   0   63.18    3.28
   1  -5   0  759.19   20.47
   1  -5   0  774.52   20.52
   0  -5   0   11.16    1.69
   0  -5   0   11.11    1.55
  -1  -5   0    2.69    1.02
  -1  -5   0    3.68    1.37
  -3  -5   0   -0.31    1.15
  -4  -5   0    0.60    1.37
  -5  -5   0 3153.01   79.55
  -6  -5   0  245.33   10.21
  -7  -5   0   66.93    5.24
  -8  -5   0    2.62    2.28
  -9  -5   0    8.08    3.18
 -10  -5   0   10.59    3.39
 -11  -5   0   36.50    5.00
 -12  -5   0   19.78    4.84
 -13  -5   0    4.97    3.35
 -14  -5   0    1.97    4.18
  11  -6   0    4.82    2.32
  10  -6   0    3.01    2.20
   9  -6   0   57.66    5.82
   8  -6   0    7.78    2.72
   7  -6   0   11.06    2.85
   6  -6   0    3.95    1.52
   6  -6   0    1.67    1.88
   5  -6   0    9.64    2.49
   5  -6   0    7.57    1.73
   4  -6   0   44.05    3.67
   4  -6   0   43.21    3.10
   3  -6   0    8.64    1.93
   3  -6   0    6.39    1.50
   2  -6   0  110.09    5.29
   2  -6   0  116.19    5.05
   1  -6   0  101.74    4.86
   1  -6   0  104.64    4.77
   0  -6   0   29.55    2.64
   0  -6   0   21.96    2.21
  -1  -6   0    4.01    1.45
  -1  -6   0    4.56    1.27
  -3  -6   0    4.33    1.67
  -3  -6   0    4.91    1.35
  -4  -6   0  263.53   10.06
  -5  -6   0   43.11    4.22
  -6  -6   0   85.65    5.81
  -7  -6   0    0.61    1.94
  -8  -6   0   12.51    3.40
  -9  -6   0   15.29    3.93
 -10  -6   0   54.69    6.19
 -11  -6   0   10.15    3.78
 -12  -6   0    6.77    3.78
 -13  -6   0   -4.25    2.60
  11  -7   0    3.10    1.99
   9  -7   0    2.68    2.11
   8  -7   0   34.51    4.52
   7  -7   0    0.73    1.82
   6  -7   0    5.01    2.35
   5  -7   0    3.68    1.54
   5  -7   0    4.87    2.19
   4  -7   0  157.09    7.56
   4  -7   0  164.47    6.72
   3  -7   0   71.97    4.70
   3  -7   0   72.91    4.17
   2  -7   0    8.07    1.86
   2  -7   0    8.94    1.94
   1  -7   0    6.01    1.67
   1  -7   0    8.85    1.83
   0  -7   0    1.70    1.21
   0  -7   0    1.44    1.14
  -1  -7   0  395.13   11.91
  -1  -7   0  367.77   12.26
  -2  -7   0    0.04    0.55
  -2  -7   0    1.92    1.56
  -3  -7   0   43.24    3.77
  -3  -7   0   45.51    3.12
  -4  -7   0    0.48    1.39
  -4  -7   0    1.05    1.59
  -5  -7   0   49.18    4.24
  -6  -7   0    0.00    1.46
  -7  -7   0  649.09   21.34
  -8  -7   0  123.34    7.80
  -9  -7   0   54.06    5.73
 -10  -7   0   10.85    3.82
 -11  -7   0   -0.46    2.95
 -12  -7   0   -1.87    2.47
 -13  -7   0    5.88    4.19
  10  -8   0    1.23    1.67
   9  -8   0    2.13    2.44
   8  -8   0    3.09    2.24
   7  -8   0   41.86    4.94
   6  -8   0   39.39    4.49
   5  -8   0    2.66    2.13
   4  -8   0    5.09    2.10
   4  -8   0    7.17    1.95
   3  -8   0   28.10    3.00
   3  -8   0   20.84    3.03
   2  -8   0    3.21    1.66
   2  -8   0    2.96    1.76
   1  -8   0    2.15    1.47
   1  -8   0    2.68    1.65
   0  -8   0  117.29    5.63
   0  -8   0  113.12    5.64
  -1  -8   0   33.92    3.48
  -1  -8   0   37.74    3.06
  -3  -8   0    3.50    1.50
  -3  -8   0    3.44    1.81
  -4  -8   0    3.80    1.43
  -4  -8   0    4.02    1.69
  -5  -8   0   -1.58    1.38
  -5  -8   0    1.04    1.37
  -6  -8   0   41.70    4.52
  -7  -8   0   19.05    3.67
  -8  -8   0  239.16   11.52
  -9  -8   0   31.99    4.94
 -10  -8   0   -1.97    2.45
 -11  -8   0    5.63    2.87
 -12  -8   0   -0.32    2.48
   9  -9   0   -0.43    1.88
   8  -9   0   13.52    3.44
   7  -9   0    9.37    3.01
   6  -9   0   63.80    5.58
   5  -9   0   16.69    3.24
   4  -9   0    2.41    1.77
   3  -9   0   -1.42    1.39
   3  -9   0    1.84    1.83
   2  -9   0   65.82    4.74
   2  -9   0   60.29    4.46
   1  -9   0   78.83    4.91
   1  -9   0   80.24    4.99
   0  -9   0    4.93    1.87
   0  -9   0    6.59    1.85
  -1  -9   0   30.47    3.12
  -1  -9   0   30.44    3.51
  -2  -9   0   16.63    2.81
  -3  -9   0    9.39    2.03
  -3  -9   0   10.57    2.49
  -4  -9   0    2.26    1.35
  -4  -9   0    1.01    1.62
  -5  -9   0  111.80    6.93
  -6  -9   0    7.94    2.59
  -7  -9   0   59.28    5.71
  -8  -9   0    5.45    2.36
  -9  -9   0   13.64    3.90
 -10  -9   0    8.14    3.65
 -11  -9   0   -0.37    2.95
 -12  -9   0   -2.14    2.40
   9 -10   0    0.22    2.06
   8 -10   0   -0.13    2.24
   7 -10   0   20.89    4.08
   6 -10   0    7.21    2.87
   5 -10   0    2.98    2.29
   4 -10   0    5.46    2.19
   3 -10   0    4.98    2.24
   2 -10   0   35.04    3.95
   2 -10   0   32.89    3.39
   1 -10   0   82.29    5.35
   1 -10   0   76.30    4.93
   0 -10   0   54.24    4.25
   0 -10   0   46.16    3.92
  -1 -10   0    5.53    2.03
  -1 -10   0    3.50    1.79
  -2 -10   0   46.64    4.32
  -3 -10   0   -0.40    1.55
  -3 -10   0    0.79    1.42
  -4 -10   0   76.02    5.70
  -5 -10   0    5.87    2.30
  -6 -10   0   38.08    4.75
  -7 -10   0    6.50    2.75
  -8 -10   0    0.12    1.82
  -9 -10   0    0.37    1.94
 -11 -10   0   -3.11    2.05
   8 -11   0   -0.06    1.87
   7 -11   0   -0.74    2.25
   6 -11   0    2.84    2.21
   5 -11   0    0.51    2.05
   4 -11   0   33.42    4.26
   3 -11   0   23.41    3.69
   2 -11   0   11.30    2.31
   2 -11   0   14.10    2.94
   1 -11   0    2.63    1.83
   1 -11   0    1.78    1.40
   0 -11   0    0.36    1.38
   0 -11   0    0.69    1.41
  -1 -11   0    9.95    2.49
  -1 -11   0    7.80    2.25
  -2 -11   0    3.75    2.08
  -3 -11   0   51.97    5.04
  -4 -11   0    1.97    1.99
  -5 -11   0    4.75    2.27
  -6 -11   0   -0.87    1.55
  -7 -11   0    4.41    2.63
  -8 -11   0    3.42    2.37
  -9 -11   0   27.62    4.59
 -10 -11   0    0.36    2.07
   7 -12   0   -2.12    2.28
   6 -12   0    5.44    2.71
   5 -12   0   22.56    4.20
   4 -12   0    3.48    2.45
   3 -12   0   10.29    2.94
   2 -12   0   19.70    3.53
   1 -12   0    6.95    2.48
   1 -12   0   18.57    2.97
   0 -12   0    2.12    1.70
   0 -12   0    4.23    1.90
  -1 -12   0   48.23    4.31
  -2 -12   0   69.46    5.49
  -3 -12   0   30.51    4.16
  -4 -12   0    1.27    2.15
  -5 -12   0   -0.91    2.01
  -6 -12   0   43.38    5.43
  -7 -12   0    1.59    2.01
  -8 -12   0   23.16    4.44
  -9 -12   0    0.22    2.15
   6 -13   0   14.81    4.25
   5 -13   0    3.32    2.65
   4 -13   0    2.86    2.33
   3 -13   0    5.29    2.69
   2 -13   0   16.98    3.67
   0 -13   0    3.44    1.57
  -1 -13   0    6.20    2.28
  -2 -13   0    9.51    2.67
  -3 -13   0    2.41    2.11
  -4 -13   0    4.34    2.38
  -5 -13   0   27.23    4.51
  -6 -13   0    0.15    1.86
  -7 -13   0   34.03    5.10
  -8 -13   0    0.13    2.29
   5 -14   0    2.27    3.34
  -2 -14   0    1.40    1.50
  -3 -14   0    7.14    2.52
  -4 -14   0   60.02    6.18
  -5 -14   0    8.51    3.37
  -6 -14   0    2.86    2.14
  -7 -14   0    0.53    2.18
  -3 -15   0    1.98    1.96
  -4 -15   0    9.32    2.92
  -5 -15   0   41.87    5.63
  -5 -15   1    1.71    2.23
  -4 -15   1    9.36    2.82
  -3 -15   1   -1.04    1.67
  -2 -15   1    0.47    1.64
  -7 -14   1   -0.27    1.94
  -6 -14   1    5.78    2.69
  -5 -14   1   28.85    4.79
  -4 -14   1    1.49    2.12
  -3 -14   1   25.43    4.17
  -2 -14   1   10.62    2.89
  -1 -14   1   17.08    3.39
  -8 -13   1   12.13    3.90
  -7 -13   1    3.97    2.18
  -6 -13   1   21.40    4.25
  -5 -13   1    3.84    2.52
  -4 -13   1   14.36    3.60
  -3 -13   1    1.62    1.94
  -2 -13   1   -3.31    1.39
  -1 -13   1   -0.22    1.45
   0 -13   1   13.81    2.97
   3 -13   1   -0.40    1.93
   4 -13   1    0.21    2.13
   5 -13   1    2.15    2.39
   6 -13   1   -1.46    2.52
  -9 -12   1   12.90    3.50
  -8 -12   1    1.47    1.92
  -7 -12   1   37.56    5.27
  -6 -12   1    2.56    2.36
  -5 -12   1   36.00    4.96
  -4 -12   1   14.50    3.52
  -3 -12   1   13.74    3.38
  -2 -12   1    7.71    2.57
  -1 -12   1   49.11    4.51
   0 -12   1    5.05    1.88
   1 -12   1   14.35    2.85
   1 -12   1    9.94    2.53
   2 -12   1   51.33    5.18
   3 -12   1   15.29    3.22
   4 -12   1   28.27    4.36
   5 -12   1   11.07    3.15
   6 -12   1    7.37    3.10
   7 -12   1   -1.37    2.30
 -10 -11   1   -3.25    1.59
  -9 -11   1   -0.43    2.09
  -8 -11   1   17.41    3.89
  -7 -11   1   -0.21    1.83
  -6 -11   1   -0.40    1.66
  -5 -11   1   -0.03    1.70
  -4 -11   1   16.26    3.27
  -3 -11   1    9.55    2.90
  -2 -11   1   88.44    6.06
  -1 -11   1   47.83    4.27
   0 -11   1    0.33    1.49
   0 -11   1    3.60    1.67
   1 -11   1    3.38    2.00
   2 -11   1   33.03    4.04
   2 -11   1   36.91    3.79
   3 -11   1    8.85    2.69
   4 -11   1   10.43    3.04
   5 -11   1   16.30    3.65
   6 -11   1    0.84    2.22
   7 -11   1   -1.61    1.98
   8 -11   1    1.59    2.62
 -11 -10   1   -1.57    2.18
 -10 -10   1   -2.97    2.52
  -9 -10   1   -1.11    2.18
  -8 -10   1    0.05    2.04
  -7 -10   1    1.37    2.15
  -6 -10   1    0.05    1.68
  -5 -10   1   37.52    4.47
  -4 -10   1   14.74    3.09
  -3 -10   1   89.20    6.00
  -2 -10   1    7.93    2.48
  -2 -10   1    8.35    1.99
  -1 -10   1    4.34    1.86
  -1 -10   1    1.50    0.88
   0 -10   1   26.40    3.17
   0 -10   1   31.28    3.56
   1 -10   1   50.87    4.27
   1 -10   1   51.70    4.09
   2 -10   1    1.53    1.60
   2 -10   1    2.10    1.45
   3 -10   1   -0.18    1.64
   3 -10   1    3.06    1.50
   4 -10   1  102.76    6.71
   5 -10   1    6.35    2.70
   6 -10   1   -0.37    1.88
   7 -10   1   -0.91    1.74
   8 -10   1    7.13    3.04
   9 -10   1    0.71    2.06
 -12  -9   1   -3.10    2.61
 -11  -9   1    2.36    3.02
 -10  -9   1   27.24    4.93
  -9  -9   1    1.04    2.48
  -8  -9   1    8.23    3.22
  -7  -9   1    0.52    1.92
  -6  -9   1   29.03    4.26
  -5  -9   1    3.01    1.97
  -4  -9   1  114.14    6.75
  -3  -9   1    6.44    2.26
  -3  -9   1    5.72    1.76
  -2  -9   1    1.34    1.26
  -2  -9   1    0.14    1.59
  -1  -9   1   38.04    3.80
   0  -9   1   20.16    2.68
   0  -9   1   28.02    3.20
   1  -9   1   92.95    5.29
   1  -9   1   84.06    5.27
   2  -9   1  113.57    6.13
   2  -9   1  110.20    6.09
   3  -9   1    1.02    1.63
   3  -9   1    0.30    1.54
   4  -9   1   24.65    2.89
   4  -9   1   21.92    3.42
   5  -9   1   -1.47    1.83
   6  -9   1   15.08    3.39
   7  -9   1   48.80    5.38
   8  -9   1    2.06    2.14
   9  -9   1    0.92    2.01
 -12  -8   1   -0.49    2.13
 -11  -8   1    4.34    3.61
 -10  -8   1    0.48    2.66
  -9  -8   1    2.82    2.89
  -8  -8   1    3.44    2.61
  -7  -8   1   54.38    5.48
  -6  -8   1    1.92    1.97
  -5  -8   1    3.93    2.06
  -5  -8   1    3.57    1.55
  -4  -8   1    7.83    2.31
  -3  -8   1   10.47    2.34
  -3  -8   1   11.87    2.05
  -2  -8   1   -0.40    1.34
  -2  -8   1    1.23    1.22
   0  -8   1   24.41    2.97
   0  -8   1   23.38    2.64
   1  -8   1   48.22    3.69
   1  -8   1   54.17    3.93
   2  -8   1    2.52    1.60
   2  -8   1    2.58    1.70
   3  -8   1    7.60    1.98
   3  -8   1    7.86    2.28
   4  -8   1   -0.59    1.35
   4  -8   1   -1.71    1.42
   5  -8   1    5.99    1.94
   5  -8   1    5.47    2.33
   6  -8   1   61.68    5.33
   7  -8   1    4.25    2.47
   8  -8   1   15.66    3.48
   9  -8   1   -0.21    2.03
  10  -8   1    0.41    1.24
 -13  -7   1    4.91    4.09
 -12  -7   1   -3.77    2.69
 -11  -7   1   -0.08    3.11
 -10  -7   1    0.04    2.65
  -9  -7   1   11.01    3.71
  -8  -7   1   91.80    6.81
  -7  -7   1    2.20    2.25
  -6  -7   1    0.09    1.79
  -5  -7   1    1.65    1.51
  -4  -7   1   46.88    4.08
  -4  -7   1   43.66    3.13
  -3  -7   1    7.92    2.14
  -3  -7   1    4.52    1.24
  -2  -7   1  295.68    9.38
  -2  -7   1  282.79   10.36
  -1  -7   1   17.78    2.54
   0  -7   1  100.63    4.77
   0  -7   1   98.14    5.00
   1  -7   1   33.17    3.06
   1  -7   1   28.56    2.79
   2  -7   1    2.11    1.47
   2  -7   1    2.17    1.43
   3  -7   1   40.12    3.29
   3  -7   1   38.53    3.62
   4  -7   1  266.90    9.55
   4  -7   1  263.00   10.38
   5  -7   1   36.27    3.29
   5  -7   1   39.39    4.16
   6  -7   1    4.13    2.18
   6  -7   1    3.28    1.60
   7  -7   1   11.62    2.96
   8  -7   1   20.69    3.70
   9  -7   1   19.47    3.82
  10  -7   1    1.41    2.17
  11  -7   1   -0.79    1.59
 -12  -6   1   -2.98    2.84
 -11  -6   1   18.58    4.43
 -10  -6   1   16.54    4.13
  -9  -6   1   23.76    4.29
  -8  -6   1   -1.09    2.00
  -7  -6   1    2.52    2.26
  -6  -6   1    4.41    2.16
  -5  -6   1   14.09    2.76
  -4  -6   1    8.42    2.15
  -3  -6   1   60.74    3.37
  -3  -6   1   64.72    4.29
  -2  -6   1    4.64    1.60
  -2  -6   1    6.30    1.38
  -1  -6   1    8.22    1.80
   0  -6   1    0.37    0.87
   0  -6   1    1.91    1.28
   1  -6   1   42.09    3.10
   1  -6   1   41.91    2.97
   2  -6   1  102.03    4.78
   2  -6   1   92.58    4.82
   3  -6   1   21.49    2.58
   3  -6   1   21.88    2.37
   4  -6   1   45.86    3.96
   4  -6   1   49.49    3.42
   5  -6   1   10.50    2.06
   5  -6   1   15.72    2.87
   6  -6   1   12.28    2.18
   6  -6   1    7.06    2.38
   7  -6   1   17.31    2.52
   7  -6   1   16.08    3.11
   8  -6   1   41.78    4.84
   9  -6   1    9.08    3.00
  10  -6   1   17.16    3.79
  11  -6   1    2.94    1.69
 -14  -5   1   -0.88    4.10
 -13  -5   1   25.51    5.12
 -12  -5   1    3.63    3.50
 -11  -5   1   13.27    3.93
 -10  -5   1   13.92    3.83
  -9  -5   1   10.48    3.51
  -8  -5   1   10.41    3.08
  -7  -5   1    7.35    2.63
  -6  -5   1   57.06    4.54
  -5  -5   1   -0.26    1.34
  -4  -5   1  120.83    5.99
  -3  -5   1   -0.16    1.03
  -3  -5   1    1.06    1.30
  -2  -5   1    0.50    1.14
  -2  -5   1   -0.02    0.73
  -1  -5   1    0.39    0.72
  -1  -5   1    2.28    1.24
   0  -5   1  171.79    5.95
   0  -5   1  168.58    6.28
   1  -5   1   33.91    2.66
   1  -5   1   37.21    2.63
   2  -5   1  287.94    9.27
   2  -5   1  298.52    9.55
   3  -5   1    5.53    1.43
   3  -5   1    5.22    1.63
   4  -5   1   21.33    2.33
   4  -5   1   23.04    2.76
   5  -5   1   34.13    2.84
   5  -5   1   35.18    3.58
   6  -5   1   75.09    5.24
   6  -5   1   66.29    4.13
   7  -5   1   24.71    3.57
  -8   5  -1   -0.51    0.75
   8  -5   1    4.18    2.18
  -8   5  -1   -1.14    0.66
   9  -5   1   71.52    5.84
  10  -5   1   17.63    3.54
  11  -5   1    1.33    1.58
  12  -5   1   -0.27    1.54
 -14  -4   1    4.48    3.45
 -13  -4   1    4.32    3.62
 -12  -4   1   22.38    4.54
 -11  -4   1   48.52    5.45
 -10  -4   1    5.98    2.97
  -9  -4   1    4.05    2.44
  -8  -4   1   23.09    3.65
   8   4  -1   24.30    4.08
  -7  -4   1   24.99    3.51
   7   4  -1   25.45    3.94
  -6  -4   1   15.05    2.72
   6   4  -1   14.47    3.08
  -5  -4   1  438.54   14.42
   5   4  -1  441.58   15.63
  -4  -4   1    7.19    1.84
  -3  -4   1   33.08    2.91
  -2  -4   1    7.97    1.35
  -2  -4   1   12.63    1.85
  -1  -4   1   81.73    3.85
  -1  -4   1   78.09    3.21
   0  -4   1  279.38    8.57
   0  -4   1  273.58    8.08
   1  -4   1  435.74   12.34
   1  -4   1  437.61   12.22
   2  -4   1    0.23    0.96
   2  -4   1   -0.85    0.94
   3  -4   1   38.88    2.78
   3  -4   1   49.05    3.25
   4  -4   1   63.76    4.09
   4  -4   1   70.67    3.70
   5  -4   1    9.89    2.11
   5  -4   1    9.67    1.14
   5  -4   1    8.98    1.77
   6  -4   1  137.93    6.90
   6  -4   1  142.09    6.13
  -7   4  -1   56.28    4.13
  -7   4  -1   63.77    4.41
   7  -4   1   68.28    5.13
  -8   4  -1   32.79    3.53
  -8   4  -1   33.64    3.55
   8  -4   1   32.00    4.04
   9  -4   1   -0.18    1.48
  10  -4   1    5.74    2.61
  11  -4   1    0.92    1.71
  12  -4   1   22.34    3.97
 -13  -3   1   19.02    4.19
 -12  -3   1    7.70    3.46
  12   3  -1    6.30    2.27
  11   3  -1    7.68    2.19
 -11  -3   1    8.65    3.25
  10   3  -1   -0.53    2.17
 -10  -3   1    1.66    2.40
  10   3  -1    2.40    1.87
   9   3  -1   22.50    3.96
  -9  -3   1   35.31    4.40
   9   3  -1   28.01    3.43
   8   3  -1  135.57    6.59
  -8  -3   1  131.18    7.29
   8   3  -1  131.24    7.99
  -7  -3   1    4.89    2.14
   7   3  -1    4.69    1.64
   7   3  -1    6.19    2.64
   6   3  -1   19.83    2.30
  -6  -3   1   19.56    2.77
   6   3  -1   18.72    3.18
  -5  -3   1    8.36    1.95
   5   3  -1    8.61    2.46
  -4  -3   1    8.92    1.87
   4   3  -1    8.83    2.11
   3   3  -1   -0.17    1.44
  -3  -3   1   -1.19    1.03
   2   3  -1 1219.52   32.77
  -2  -3   1 1204.82   30.95
  -1  -3   1    9.62    1.06
   1  -3   1  217.28    6.70
   1  -3   1  218.53    6.68
   2  -3   1   31.83    2.26
   2  -3   1   38.26    2.61
   3  -3   1  127.94    5.37
   3  -3   1  134.72    5.00
   4  -3   1  184.63    6.50
   4  -3   1  179.41    5.84
   4  -3   1  173.35    6.96
   5  -3   1   30.27    2.02
   5  -3   1   32.49    3.10
   5  -3   1   32.48    2.68
  -6   3  -1   45.94    3.58
  -6   3  -1   42.75    3.42
   6  -3   1   45.19    2.65
   6  -3   1   44.33    3.84
   7  -3   1   -1.49    1.25
  -7   3  -1   -1.29    1.01
  -7   3  -1    1.85    1.16
   8  -3   1   -0.25    1.65
  -8   3  -1    0.86    1.40
   9  -3   1    1.84    1.94
  -9   3  -1    2.49    1.59
  10  -3   1    3.88    2.17
  11  -3   1   62.09    5.59
  12  -3   1    1.28    1.51
  13  -3   1   16.84    3.68
  13   2  -1    6.04    2.31
 -12  -2   1    5.66    2.82
  12   2  -1   -0.69    1.50
  11   2  -1   -2.93    1.22
 -11  -2   1    2.54    2.37
  10   2  -1   64.87    5.96
  10   2  -1   56.90    4.76
 -10  -2   1   70.94    5.66
  -9  -2   1   84.07    5.90
   9   2  -1   82.65    6.60
   9   2  -1   82.37    5.45
  -8  -2   1   33.60    4.03
   8   2  -1   35.79    3.58
   8   2  -1   32.29    4.19
  -7  -2   1   33.97    3.59
   7   2  -1   22.71    3.42
   7   2  -1   25.69    2.86
  -6  -2   1    2.63    1.54
   6   2  -1    3.13    1.29
   6   2  -1    5.92    2.19
   5   2  -1   12.66    1.79
   5   2  -1   14.60    2.55
  -5  -2   1   15.79    2.27
   4   2  -1   15.60    2.48
   4   2  -1   17.42    1.76
  -4  -2   1   19.71    2.30
   3   2  -1 1667.95   40.34
   3   2  -1 1621.66   43.81
  -3  -2   1 1691.71   41.84
  -2  -2   1    2.22    1.18
   2   2  -1    3.18    1.63
  -1  -2   1   16.39    1.45
  -1  -2   1   15.85    1.21
   1   2  -1   18.90    1.84
   1  -2   1   43.60    2.27
   1  -2   1   40.35    2.15
   2  -2   1   92.11    3.62
   2  -2   1   98.38    3.97
   3  -2   1  820.99   21.60
   3  -2   1  820.72   21.34
   3  -2   1  821.26   21.30
   4  -2   1  124.05    4.41
   4  -2   1  126.98    5.35
   4  -2   1  122.54    4.94
   5  -2   1  225.01    8.48
   5  -2   1  226.69    7.46
  -5   2  -1  229.12    8.66
  -5   2  -1  242.73    8.59
   6  -2   1   13.32    1.80
  -6   2  -1   11.10    2.14
  -6   2  -1   16.98    2.50
   6  -2   1   11.20    2.27
  -7   2  -1   -0.10    1.22
   7  -2   1    1.34    1.50
  -8   2  -1   27.84    3.36
   8  -2   1   33.40    3.86
   9  -2   1  118.52    7.07
  -9   2  -1  116.08    6.62
 -10   2  -1   35.83    4.25
  10  -2   1   28.16    3.90
  11  -2   1    0.47    1.85
  12  -2   1    7.19    2.54
  13  -2   1    6.13    2.38
  14   1  -1    2.91    2.50
  13   1  -1    7.52    2.58
  12   1  -1   17.54    3.47
 -12  -1   1   12.92    3.27
 -11  -1   1   16.64    3.73
  11   1  -1   17.73    3.19
  10   1  -1   13.96    2.84
 -10  -1   1   12.51    3.38
  -9  -1   1    8.80    2.76
   9   1  -1    8.53    2.55
   9   1  -1    5.47    2.05
   8   1  -1   11.68    2.50
   8   1  -1   13.47    2.84
  -8  -1   1   14.28    2.88
  -7  -1   1   12.94    2.52
   7   1  -1   13.59    2.37
   7   1  -1   16.36    2.86
   6   1  -1  194.45    7.43
   6   1  -1  186.31    8.34
  -6  -1   1  188.65    7.79
   5   1  -1   25.38    2.38
  -5  -1   1   22.52    2.51
   5   1  -1   12.35    2.36
  -4  -1   1   55.61    3.37
   4   1  -1   57.41    3.14
   4   1  -1   51.95    3.66
   3   1  -1   96.81    3.85
  -3  -1   1  102.35    4.24
   3   1  -1   96.25    4.69
   2   1  -1   29.01    1.77
  -2  -1   1   27.71    1.94
   2   1  -1   29.26    2.38
   1   1  -1    7.38    1.21
  -1  -1   1   11.44    1.08
   0  -1   1  699.68   17.37
   0   1  -1  695.45   18.16
   1  -1   1    1.21    0.59
   1  -1   1    0.02    0.58
   2  -1   1  261.50    7.18
   2  -1   1  265.91    7.64
   2  -1   1  257.65    7.46
   3  -1   1  264.47    7.58
   3  -1   1  256.56    8.13
  -4   1  -1   74.58    3.94
  -4   1  -1   70.50    3.87
   4  -1   1   68.83    3.80
   4  -1   1   70.52    3.32
   5  -1   1   23.73    2.66
  -5   1  -1   21.16    2.49
   5  -1   1   21.79    2.12
  -5   1  -1   21.96    2.64
   6  -1   1   76.30    4.13
   6  -1   1   66.46    4.42
  -6   1  -1   78.13    4.57
  -7   1  -1   56.59    4.15
   7  -1   1   49.40    4.13
   7  -1   1   62.25    4.03
   8  -1   1    3.68    2.01
  -8   1  -1    5.57    1.99
   9  -1   1   22.98    3.39
  -9   1  -1   21.85    3.34
 -10   1  -1    2.89    2.02
  10  -1   1    3.81    2.04
 -11   1  -1   15.21    3.56
  11  -1   1   12.95    3.00
  12  -1   1    1.23    1.71
  13  -1   1   21.19    3.77
  14   0  -1   -0.76    1.98
  13   0  -1    4.72    2.14
  12   0  -1   13.56    3.15
  11   0  -1  114.78    7.28
 -11   0   1  110.66    7.13
 -10   0   1    4.37    2.63
  10   0  -1    5.93    2.33
  -9   0   1   15.63    3.06
   9   0  -1   11.70    2.60
   9   0  -1   11.78    2.78
  -8   0   1   37.89    3.86
   8   0  -1   25.16    3.23
   8   0  -1   36.41    3.92
   7   0  -1   24.39    3.03
  -7   0   1   24.50    3.00
  -6   0   1   42.42    3.40
   6   0  -1   40.06    3.31
  -5   0   1  207.91    7.59
   5   0  -1  199.40    7.44
  -4   0   1   40.81    2.79
   4   0  -1   41.43    2.86
   4   0  -1   39.91    2.69
   3   0  -1  111.24    4.48
   3   0  -1  110.40    4.24
  -3   0   1  104.59    4.19
  -2   0   1   41.67    1.99
   2   0  -1   42.10    2.33
   2   0  -1   45.41    2.14
   1   0  -1  719.46   18.74
   1   0  -1  722.45   17.66
   0   0   1    0.00    0.06
   1   0   1 2215.86   52.97
   2   0   1  144.90    4.65
  -2   0  -1  138.94    4.95
   2   0   1  159.63    4.82
  -2   0  -1  139.39    4.85
  -3   0  -1    8.90    1.51
   3   0   1   12.03    1.62
   4   0   1    5.99    1.54
   4   0   1    6.21    1.52
  -4   0  -1    7.18    1.52
   5   0   1   14.44    2.13
  -5   0  -1   15.68    2.11
   5   0   1   11.15    1.89
   6   0   1  218.50    8.40
   6   0   1  217.42    8.38
  -6   0  -1  221.38    8.58
   7   0   1  229.42    9.12
  -7   0  -1  229.12    9.24
   7   0   1  229.00    9.07
   8   0   1   30.67    3.49
   8   0   1   31.78    3.63
  -8   0  -1   28.84    3.47
   9   0   1    6.93    2.41
  -9   0  -1    9.82    2.63
  10   0   1    2.08    1.80
 -10   0  -1   -0.82    1.98
  11   0   1   25.39    3.88
 -11   0  -1   37.30    4.79
 -12   0  -1   27.63    4.31
  12   0   1   15.14    3.21
  13   0   1    3.39    2.18
  14   0   1   20.26    3.88
  14  -1  -1    5.76    2.44
  13  -1  -1   15.99    3.54
  12  -1  -1    4.52    2.13
  11  -1  -1    0.25    1.72
  10  -1  -1    0.40    1.58
 -10   1   1    1.39    1.76
   9  -1  -1   37.10    4.19
  -9   1   1   35.07    4.08
   8  -1  -1    8.13    2.33
   8  -1  -1    5.09    2.04
  -8   1   1    7.24    2.03
   7  -1  -1   49.12    3.95
  -7   1   1   49.45    3.68
   7  -1  -1   44.59    4.09
  -6   1   1  172.28    7.03
   6  -1  -1  183.24    7.36
   6  -1  -1  167.44    7.26
   5  -1  -1    3.13    1.41
  -5   1   1    5.11    1.24
   5  -1  -1    3.49    1.25
   4  -1  -1    7.29    1.52
   4  -1  -1    7.41    1.33
   3  -1  -1  258.36    7.95
  -2   1   1  329.37    9.65
  -2   1   1  324.68    9.32
   2  -1  -1  381.60    9.59
   1  -1  -1    0.64    0.41
   1  -1  -1    1.29    0.59
   0  -1  -1 1137.51   27.78
   0  -1  -1 1164.72   28.81
  -1  -1  -1    6.67    0.87
   2   1   1   99.10    3.48
  -2  -1  -1   99.84    3.78
   3   1   1  181.62    6.58
  -3  -1  -1  194.15    6.44
   3   1   1  180.66    5.99
  -4  -1  -1   86.89    4.31
   4   1   1  101.09    4.30
   4   1   1   84.96    4.33
   5   1   1   51.57    3.39
  -5  -1  -1   48.72    3.45
   6   1   1  154.35    6.72
  -6  -1  -1  166.66    7.23
  -7  -1  -1   12.50    2.56
   7   1   1   10.42    2.23
   8   1   1    2.53    1.77
  -8  -1  -1    2.36    1.72
   8   1   1    1.17    1.79
   9   1   1   14.16    2.76
   9   1   1   13.57    2.85
  -9  -1  -1   15.60    3.34
 -10  -1  -1    6.36    2.84
  10   1   1    7.18    2.31
 -11  -1  -1   28.64    4.41
  11   1   1   17.56    3.32
 -12  -1  -1   31.83    4.71
  12   1   1   26.91    4.05
  13   1   1   33.76    4.56
  14   1   1    4.28    2.43
  13  -2  -1    8.97    2.90
  12  -2  -1   29.97    4.41
  11  -2  -1   52.16    5.44
  10  -2  -1   22.83    3.66
   9  -2  -1  137.47    7.73
  -9   2   1  152.32    7.32
  -8   2   1   45.65    3.63
   8  -2  -1   42.71    4.31
   7  -2  -1   20.76    2.48
   7  -2  -1   13.40    2.43
  -7   2   1   12.88    1.94
  -6   2   1    0.16    0.38
   6  -2  -1   -0.79    1.23
   6  -2  -1    1.34    0.86
   5  -2  -1   -0.83    0.76
   5  -2  -1    0.71    1.30
  -5   2   1   -0.40    0.46
  -4   2   1   36.32    2.66
  -4   2   1   34.26    2.59
   4  -2  -1   47.29    3.11
   4  -2  -1   53.81    2.93
   3  -2  -1  560.64   15.46
   3  -2  -1  567.14   14.92
   2  -2  -1    7.83    1.16
   2  -2  -1    8.81    1.43
   1  -2  -1  266.78    7.23
   1  -2  -1  275.82    7.70
   0  -2  -1   92.72    3.16
   0  -2  -1   87.17    2.92
  -1  -2  -1   36.02    2.03
  -2  -2  -1   30.78    2.25
  -3  -2  -1 2654.59   65.55
   4   2   1    3.68    1.21
  -4  -2  -1    3.67    1.39
   5   2   1   88.39    4.36
   5   2   1   98.93    5.35
  -5  -2  -1   87.83    4.84
  -6  -2  -1    5.77    1.97
   6   2   1    5.71    1.61
   6   2   1    4.91    1.90
   7   2   1   22.25    3.18
   7   2   1   24.03    2.89
  -7  -2  -1   23.82    3.26
   8   2   1   66.94    4.71
  -8  -2  -1   68.54    5.25
   9   2   1   73.09    5.14
  -9  -2  -1   85.42    6.17
 -10  -2  -1   54.94    5.54
  10   2   1   51.45    4.55
 -11  -2  -1    8.77    3.20
  11   2   1    3.91    2.05
 -12  -2  -1    6.92    3.00
  12   2   1   -2.42    1.30
  13   2   1    4.17    1.73
 -13  -2  -1    4.06    3.04
  14   2   1    5.39    2.17
  13  -3  -1    1.84    1.76
  12  -3  -1    6.63    2.55
  11  -3  -1    3.17    2.05
  10  -3  -1    4.32    2.52
   9  -3  -1   18.64    3.42
   8  -3  -1   36.47    4.13
   7  -3  -1   13.10    2.66
  -7   3   1    6.89    1.64
  -6   3   1   -0.53    0.92
  -6   3   1    0.20    0.90
   6  -3  -1    1.16    1.01
   6  -3  -1    0.05    1.38
   5  -3  -1  145.85    5.76
  -5   3   1  145.02    5.96
  -5   3   1  140.32    6.00
   5  -3  -1  135.92    6.32
   4  -3  -1  300.07    8.93
   4  -3  -1  280.30    9.69
   3  -3  -1   54.91    3.34
   3  -3  -1   57.45    2.81
   2  -3  -1  271.96    7.81
   2  -3  -1  276.65    8.54
   1  -3  -1  311.03    9.10
   1  -3  -1  317.12    8.66
   0  -3  -1   62.74    2.91
   0  -3  -1   69.77    2.85
  -1  -3  -1  106.79    3.91
  -1  -3  -1  104.46    4.03
  -2  -3  -1 3092.67   75.67
  -3  -3  -1   31.02    2.76
  -4  -3  -1  920.26   24.99
  -5  -3  -1   10.15    2.05
  -6  -3  -1   95.80    5.47
  -7  -3  -1   60.10    4.70
   8   3   1   68.67    4.80
  -8  -3  -1   75.90    5.62
  -9  -3  -1   35.66    4.59
   9   3   1   40.24    4.00
  10   3   1   68.87    5.22
 -10  -3  -1   72.97    6.07
 -11  -3  -1   11.02    3.54
 -12  -3  -1    4.00    3.04
 -13  -3  -1    2.72    2.83
 -14  -3  -1   21.74    4.14
  12  -4  -1   20.40    4.00
  11  -4  -1    2.65    2.02
  10  -4  -1   89.98    6.71
   9  -4  -1   24.75    3.87
   8  -4  -1    6.75    2.40
  -7   4   1   59.15    3.81
   7  -4  -1   59.09    4.69
  -7   4   1   48.92    3.70
  -6   4   1   61.56    4.00
   6  -4  -1   70.27    3.81
   6  -4  -1   70.45    4.84
  -6   4   1   65.02    4.05
   5  -4  -1    6.79    1.28
   5  -4  -1    1.48    1.57
   4  -4  -1   18.75    2.43
   4  -4  -1   20.51    2.00
   3  -4  -1  103.16    4.08
   3  -4  -1   97.16    4.77
   2  -4  -1   41.85    2.92
   2  -4  -1   43.30    2.46
   1  -4  -1  181.90    6.27
   1  -4  -1  178.13    5.84
   0  -4  -1   53.91    2.94
   0  -4  -1   50.69    2.71
  -1  -4  -1   89.97    3.77
  -1  -4  -1   95.16    4.02
  -2  -4  -1    1.06    1.10
  -2  -4  -1   -1.20    0.83
  -3  -4  -1  391.59   12.27
  -4  -4  -1   30.94    3.02
  -5  -4  -1  166.71    7.30
  -6  -4  -1    4.85    1.93
  -7  -4  -1  106.93    6.39
  -8  -4  -1   15.75    3.29
  -9  -4  -1   29.23    4.36
 -10  -4  -1    7.56    3.20
 -11  -4  -1    0.53    2.53
 -12  -4  -1    2.94    3.10
 -13  -4  -1   -4.34    2.73
 -14  -4  -1    8.02    3.70
  12  -5  -1    4.88    2.14
  11  -5  -1   24.23    4.21
  10  -5  -1    2.33    2.04
   9  -5  -1    1.77    1.95
   8  -5  -1   28.04    3.89
   7  -5  -1    8.20    2.44
   6  -5  -1  134.86    7.09
   5  -5  -1   28.75    3.34
   5  -5  -1   23.04    2.36
   4  -5  -1   12.18    1.71
   4  -5  -1   15.40    2.35
   3  -5  -1   90.48    3.97
   3  -5  -1   86.89    4.66
   2  -5  -1  105.87    4.93
   2  -5  -1  108.69    4.37
   1  -5  -1  160.98    5.69
   1  -5  -1  152.27    5.97
   0  -5  -1  138.54    5.36
   0  -5  -1  132.63    5.17
  -1  -5  -1    3.67    1.22
  -1  -5  -1    2.84    1.25
  -2  -5  -1    2.74    1.16
  -2  -5  -1    2.25    1.31
  -3  -5  -1    2.00    1.39
  -4  -5  -1  503.02   15.69
  -5  -5  -1   67.03    4.72
  -6  -5  -1 1211.24   33.73
  -7  -5  -1    1.73    1.84
  -8  -5  -1    4.20    2.33
  -9  -5  -1    1.73    2.49
 -10  -5  -1   33.32    4.78
 -11  -5  -1   21.40    4.44
 -12  -5  -1   37.07    5.38
 -13  -5  -1   21.12    4.89
 -14  -5  -1    1.54    3.92
  10  -6  -1    8.55    2.93
   9  -6  -1   20.34    3.74
   8  -6  -1   64.71    5.50
   7  -6  -1   -1.03    1.47
   6  -6  -1    7.28    2.40
   5  -6  -1    3.55    2.01
   5  -6  -1    1.45    1.23
   4  -6  -1   23.10    2.96
   4  -6  -1   25.48    2.37
   3  -6  -1    5.27    1.65
   3  -6  -1    5.27    1.32
   2  -6  -1   37.14    2.81
   2  -6  -1   42.31    3.28
   1  -6  -1  462.80   13.69
   1  -6  -1  484.30   14.15
   0  -6  -1    4.09    1.30
   0  -6  -1    6.28    1.51
  -1  -6  -1   41.63    2.99
  -1  -6  -1   31.88    2.61
  -2  -6  -1    1.27    1.27
  -2  -6  -1    0.14    0.75
  -3  -6  -1  178.14    6.75
  -3  -6  -1  194.70    7.62
  -4  -6  -1   20.02    2.90
  -5  -6  -1 1067.84   30.13
  -6  -6  -1    0.92    1.58
  -7  -6  -1   38.27    4.51
  -8  -6  -1    8.71    3.11
  -9  -6  -1   16.70    3.82
 -10  -6  -1   24.21    4.62
 -11  -6  -1   34.88    5.34
 -12  -6  -1   -0.87    2.82
 -13  -6  -1    0.19    3.25
  11  -7  -1    7.85    2.87
  10  -7  -1    7.80    2.81
   9  -7  -1   14.68    3.59
   8  -7  -1    0.14    1.81
   7  -7  -1   40.44    4.71
   6  -7  -1    4.63    2.35
   5  -7  -1   -0.39    1.53
   5  -7  -1   -0.68    1.12
   4  -7  -1  135.22    5.77
   4  -7  -1  133.03    6.87
   3  -7  -1   65.70    3.83
   3  -7  -1   69.78    4.60
   2  -7  -1   50.95    3.83
   2  -7  -1   50.07    3.42
   1  -7  -1   -0.43    1.04
   1  -7  -1    0.34    1.18
   0  -7  -1    1.34    1.21
   0  -7  -1    1.31    1.08
  -1  -7  -1   59.09    3.70
  -1  -7  -1   59.96    3.84
  -2  -7  -1  102.28    5.23
  -2  -7  -1   96.94    4.80
  -3  -7  -1   12.98    2.36
  -3  -7  -1   11.09    1.68
  -4  -7  -1   -0.08    0.45
  -5  -7  -1    6.27    2.15
  -6  -7  -1    2.89    1.77
  -7  -7  -1    8.72    2.91
  -8  -7  -1  503.37   18.25
  -9  -7  -1   14.67    3.90
 -10  -7  -1    5.14    3.19
 -11  -7  -1    2.43    3.18
 -12  -7  -1    0.23    3.11
 -13  -7  -1    0.90    2.99
  10  -8  -1    1.06    1.82
   9  -8  -1   -1.23    1.73
   8  -8  -1    0.25    1.75
   7  -8  -1   14.72    3.34
   6  -8  -1   13.45    3.12
   5  -8  -1    8.74    2.56
   4  -8  -1   37.41    3.24
   4  -8  -1   40.58    4.17
   3  -8  -1   19.14    2.55
   3  -8  -1   18.30    2.92
   2  -8  -1    0.15    1.30
   2  -8  -1    2.04    1.54
   1  -8  -1    5.84    1.77
   1  -8  -1    3.58    1.67
   0  -8  -1   25.37    2.80
   0  -8  -1   25.20    2.87
  -1  -8  -1  385.40   12.65
  -1  -8  -1  372.03   12.27
  -2  -8  -1   26.76    2.83
  -2  -8  -1   24.79    3.03
  -3  -8  -1   98.78    5.52
  -3  -8  -1   74.68    4.23
  -4  -8  -1    8.06    2.28
  -6  -8  -1   28.86    3.95
  -7  -8  -1  458.53   16.90
  -8  -8  -1    8.24    3.18
  -9  -8  -1  174.66    9.92
 -10  -8  -1    8.16    3.66
 -11  -8  -1    4.50    3.38
 -12  -8  -1    0.01    2.51
   9  -9  -1    0.78    1.78
   8  -9  -1    3.30    2.53
   7  -9  -1   14.21    3.44
   6  -9  -1   28.80    4.26
   5  -9  -1   95.72    6.46
   4  -9  -1    1.49    1.86
   3  -9  -1    4.15    2.01
   3  -9  -1    1.30    1.58
   2  -9  -1   26.73    3.16
   2  -9  -1   29.04    3.41
   1  -9  -1   33.07    3.33
   1  -9  -1   33.51    3.52
   0  -9  -1   24.80    2.97
   0  -9  -1   26.41    3.07
  -1  -9  -1   21.97    3.07
  -1  -9  -1   16.95    2.46
  -2  -9  -1   55.64    4.34
  -2  -9  -1   42.94    3.63
  -3  -9  -1    0.37    1.62
  -3  -9  -1    2.02    1.22
  -4  -9  -1   18.31    3.10
  -5  -9  -1    1.13    1.91
  -5  -9  -1    3.36    1.48
  -6  -9  -1   30.67    3.99
  -7  -9  -1   13.25    3.20
  -8  -9  -1   77.68    6.28
  -9  -9  -1   -0.17    2.52
 -10  -9  -1   15.96    4.28
 -11  -9  -1   -3.11    2.65
 -12  -9  -1    0.14    2.65
   9 -10  -1    1.18    1.94
   8 -10  -1    0.88    2.17
   7 -10  -1    0.11    1.91
   6 -10  -1   55.75    5.80
   5 -10  -1   -1.12    1.71
   4 -10  -1    1.81    1.85
   3 -10  -1   10.90    2.69
   2 -10  -1    8.51    2.38
   2 -10  -1   11.35    2.37
   1 -10  -1   62.68    4.37
   1 -10  -1   62.19    4.75
   0 -10  -1   13.56    2.53
   0 -10  -1   18.25    2.69
  -1 -10  -1   14.94    2.68
  -1 -10  -1   14.74    2.55
  -2 -10  -1    3.73    1.80
  -2 -10  -1    0.61    1.49
  -3 -10  -1   38.79    3.39
  -3 -10  -1   64.77    4.93
  -4 -10  -1    5.70    2.26
  -4 -10  -1    0.19    1.09
  -5 -10  -1   73.99    5.65
  -6 -10  -1    1.02    1.66
  -7 -10  -1    1.48    1.90
  -8 -10  -1    0.68    1.80
  -9 -10  -1   60.62    6.24
 -10 -10  -1    8.03    3.60
 -11 -10  -1    0.93    2.25
   8 -11  -1   -2.30    1.69
   7 -11  -1    3.52    2.65
   6 -11  -1    6.83    2.92
   5 -11  -1    0.57    2.12
   4 -11  -1   32.96    4.42
   3 -11  -1   70.57    5.70
   2 -11  -1   14.89    3.00
   1 -11  -1   16.46    2.60
   1 -11  -1   11.82    2.58
   0 -11  -1    4.23    1.93
   0 -11  -1    6.29    1.85
  -1 -11  -1    2.51    1.80
  -1 -11  -1    2.78    1.70
  -2 -11  -1   -0.92    1.42
  -2 -11  -1   -0.97    1.49
  -3 -11  -1   11.11    2.84
  -4 -11  -1   98.89    6.63
  -5 -11  -1   -0.30    1.73
  -6 -11  -1    2.71    1.73
  -7 -11  -1   -0.19    1.66
  -8 -11  -1   15.08    3.66
  -9 -11  -1    9.30    3.15
 -10 -11  -1  123.43    8.80
   7 -12  -1    0.24    2.69
   6 -12  -1    3.73    2.63
   5 -12  -1    2.53    2.45
   4 -12  -1   54.84    5.56
   3 -12  -1    4.11    2.50
   2 -12  -1    7.80    2.51
   1 -12  -1    1.97    1.93
   0 -12  -1   -1.26    1.74
   0 -12  -1   -0.53    1.30
  -1 -12  -1   25.12    3.56
  -1 -12  -1   35.69    3.95
  -2 -12  -1   48.88    4.80
  -3 -12  -1   28.27    3.96
  -4 -12  -1    1.09    1.95
  -5 -12  -1    2.25    2.21
  -6 -12  -1   -1.70    1.77
  -7 -12  -1   64.57    5.95
  -8 -12  -1    1.74    2.14
  -9 -12  -1   20.06    4.34
 -10 -12  -1    1.46    1.99
   6 -13  -1   -0.21    2.69
   5 -13  -1    7.83    3.26
   4 -13  -1    1.50    2.20
   3 -13  -1   -0.90    1.96
   2 -13  -1    4.50    2.55
   1 -13  -1   14.24    3.11
  -1 -13  -1    4.20    2.07
  -2 -13  -1    1.61    1.78
  -3 -13  -1   -2.17    1.57
  -4 -13  -1    1.03    2.36
  -5 -13  -1    1.18    1.98
  -6 -13  -1   64.91    6.04
  -7 -13  -1    5.03    2.65
  -8 -13  -1   16.04    3.85
  -9 -13  -1    2.53    2.12
   4 -14  -1    2.23    2.05
   3 -14  -1    2.92    2.31
  -2 -14  -1    2.07    1.84
  -3 -14  -1    3.94    2.27
  -4 -14  -1   24.30    4.28
  -5 -14  -1   11.12    3.41
  -6 -14  -1    5.27    2.63
  -7 -14  -1   12.23    3.45
  -3 -15  -1    3.52    1.99
  -4 -15  -1   20.21    3.93
  -5 -15  -1    8.83    2.86
  -6 -15  -1   20.03    4.52
  -5 -15   2    5.24    2.78
  -4 -15   2    1.75    1.64
  -3 -15   2    3.84    2.46
  -2 -15   2    6.95    2.45
  -6 -14   2    1.41    2.21
  -5 -14   2   -0.96    1.63
  -4 -14   2   22.73    4.36
  -3 -14   2   28.47    4.35
  -2 -14   2    0.95    1.69
  -1 -14   2   12.55    3.11
  -8 -13   2    2.20    2.57
  -7 -13   2   26.38    4.93
  -6 -13   2    3.41    2.39
  -5 -13   2   23.04    4.34
  -4 -13   2    4.55    2.75
  -3 -13   2    0.17    1.81
  -2 -13   2   -2.03    1.43
  -1 -13   2    4.49    1.99
   0 -13   2   -0.48    1.44
   1 -13   2   42.82    4.65
   5 -13   2    0.82    2.54
   6 -13   2   -0.11    2.61
  -9 -12   2    2.34    2.34
  -8 -12   2   27.79    4.89
  -7 -12   2    0.43    2.09
  -6 -12   2   18.61    3.97
  -5 -12   2   -1.61    1.87
  -4 -12   2   11.11    3.23
  -3 -12   2    0.34    2.17
  -2 -12   2   35.99    4.33
  -1 -12   2    8.55    2.64
   0 -12   2    5.22    2.06
   1 -12   2   15.98    3.06
   2 -12   2    8.17    2.06
   3 -12   2    3.63    2.25
   4 -12   2    5.76    2.87
   5 -12   2   16.16    3.85
   6 -12   2    2.24    2.30
   7 -12   2    2.96    2.59
 -10 -11   2   -1.61    1.99
  -9 -11   2   -0.84    2.27
  -8 -11   2    0.91    1.97
  -7 -11   2   19.50    4.08
  -6 -11   2   -0.56    2.14
  -5 -11   2    9.27    3.12
  -4 -11   2   -1.85    1.44
  -3 -11   2   16.86    3.37
  -2 -11   2    4.94    2.36
  -1 -11   2   81.92    5.62
   0 -11   2   47.11    4.49
   1 -11   2   15.11    2.83
   1 -11   2   15.40    2.75
   2 -11   2    1.57    1.87
   2 -11   2    5.22    1.76
   3 -11   2   41.24    4.11
   3 -11   2   39.38    4.37
   4 -11   2   46.40    5.01
   5 -11   2    8.33    2.89
   6 -11   2   16.74    3.75
   7 -11   2    1.70    2.43
   8 -11   2    2.18    2.56
 -11 -10   2   -1.09    2.41
 -10 -10   2    1.84    3.28
  -9 -10   2    6.81    3.28
  -8 -10   2   -5.55    2.29
  -7 -10   2    2.41    2.06
  -6 -10   2   12.97    3.26
  -5 -10   2    9.52    2.88
  -4 -10   2  103.93    6.79
  -3 -10   2   18.65    3.37
  -2 -10   2   38.52    4.29
  -1 -10   2   16.95    2.92
  -1 -10   2   17.09    2.54
   0 -10   2    4.07    1.83
   0 -10   2    1.90    1.52
   1 -10   2    5.02    1.93
   1 -10   2    3.93    1.85
   2 -10   2   -0.80    1.14
   2 -10   2   -1.62    1.27
   3 -10   2    8.21    2.09
   3 -10   2    7.03    2.36
   4 -10   2    9.04    2.24
   4 -10   2    7.40    2.52
   5 -10   2    9.53    2.83
   6 -10   2    2.86    2.22
   7 -10   2   11.24    3.24
   8 -10   2    3.06    2.24
   9 -10   2    0.19    2.20
 -12  -9   2   -2.09    2.72
 -11  -9   2   -2.68    2.25
 -10  -9   2    8.16    3.66
  -9  -9   2    1.38    2.38
  -8  -9   2   -2.40    1.94
  -7  -9   2    0.39    2.05
  -6  -9   2    9.09    2.94
  -5  -9   2   33.78    4.17
  -4  -9   2   10.26    2.70
  -3  -9   2   13.08    2.86
  -2  -9   2    1.19    1.16
  -2  -9   2    0.67    1.51
  -1  -9   2    0.61    1.17
  -1  -9   2    0.02    1.43
   0  -9   2   13.83    2.58
   0  -9   2   17.25    2.33
   1  -9   2  142.30    6.81
   1  -9   2  151.82    7.09
   2  -9   2   90.61    5.66
   2  -9   2  116.02    5.96
   3  -9   2   11.03    2.29
   3  -9   2    9.44    2.47
   4  -9   2   20.46    3.37
   4  -9   2   17.04    2.65
   5  -9   2   49.92    5.04
   6  -9   2   20.38    3.72
   7  -9   2   15.13    3.37
   8  -9   2   38.62    5.05
   9  -9   2   -0.78    1.53
 -12  -8   2    0.63    2.42
 -11  -8   2    2.98    3.14
 -10  -8   2    1.20    2.84
  -9  -8   2    5.98    3.23
  -8  -8   2    2.89    2.59
  -7  -8   2   22.09    3.92
  -6  -8   2   -0.92    1.56
  -5  -8   2    8.75    2.65
  -4  -8   2    3.45    1.25
  -4  -8   2    6.42    2.25
  -3  -8   2   31.48    3.65
  -3  -8   2   33.73    2.77
  -2  -8   2   77.37    4.16
  -2  -8   2   80.44    5.12
  -1  -8   2   33.36    2.79
  -1  -8   2   33.14    3.43
   0  -8   2   57.50    4.02
   0  -8   2   42.43    3.14
   1  -8   2    2.37    1.69
   1  -8   2    1.38    1.37
   2  -8   2   25.32    2.97
   2  -8   2   22.53    2.96
   3  -8   2   27.73    3.33
   3  -8   2   24.43    3.06
   4  -8   2    3.37    2.00
   4  -8   2    8.64    2.18
   5  -8   2    0.97    1.83
   5  -8   2    0.44    1.19
   6  -8   2    6.76    2.49
   7  -8   2   52.88    5.30
   8  -8   2    0.73    2.00
   9  -8   2    6.11    2.88
  10  -8   2    0.33    1.23
 -13  -7   2   15.61    4.89
 -12  -7   2    4.44    3.72
 -11  -7   2    5.13    3.15
 -10  -7   2    5.87    3.36
  -9  -7   2   -1.34    2.31
  -8  -7   2   32.54    4.66
  -7  -7   2   45.01    4.94
  -6  -7   2    4.15    2.34
  -5  -7   2    0.40    1.53
  -5  -7   2    0.88    1.29
  -4  -7   2   19.97    2.22
  -4  -7   2   21.62    3.15
  -3  -7   2   31.58    2.47
  -3  -7   2   26.42    3.23
  -2  -7   2   53.83    3.21
  -2  -7   2   51.12    3.92
  -1  -7   2   71.80    4.49
  -1  -7   2   75.75    3.85
   0  -7   2   14.38    2.28
   1  -7   2   92.41    4.99
   1  -7   2   97.91    4.82
   2  -7   2   65.65    4.22
   2  -7   2   68.10    4.29
   3  -7   2   37.41    3.56
   3  -7   2   33.93    3.16
   4  -7   2   46.33    4.14
   4  -7   2   42.55    3.59
   5  -7   2    2.74    1.75
   5  -7   2    2.70    2.00
   6  -7   2   23.87    3.66
   6  -7   2   28.65    3.10
   7  -7   2   21.69    3.65
   8  -7   2   -0.99    1.60
   9  -7   2   -2.29    1.69
  10  -7   2    8.59    2.96
  11  -7   2    0.59    1.81
 -13  -6   2    1.38    2.37
 -12  -6   2    4.52    3.36
 -11  -6   2    7.52    3.52
 -10  -6   2   33.51    4.82
  -9  -6   2    0.84    2.38
  -8  -6   2    1.43    2.07
  -7  -6   2    0.33    2.07
  -6  -6   2   12.56    2.91
  -5  -6   2    6.03    2.07
  -4  -6   2    2.65    1.65
  -4  -6   2    3.11    1.25
  -3  -6   2    5.98    1.85
  -3  -6   2    5.67    1.24
  -2  -6   2  175.90    6.02
  -2  -6   2  169.64    7.07
  -1  -6   2   22.37    2.60
  -1  -6   2   20.14    1.89
   0  -6   2   -0.81    0.97
   0  -6   2    0.38    0.37
   1  -6   2    7.95    1.56
   1  -6   2    9.67    1.86
   2  -6   2   70.06    4.00
   2  -6   2   64.89    3.98
   3  -6   2   49.02    3.59
   3  -6   2   51.02    3.48
   4  -6   2  106.60    5.87
   4  -6   2  117.20    5.47
   5  -6   2   61.32    4.79
   5  -6   2   62.49    4.14
   6  -6   2    2.89    1.56
   6  -6   2    1.34    1.90
   7  -6   2    3.89    1.61
   7  -6   2    3.75    2.21
   8  -6   2   40.94    4.72
   9  -6   2   64.06    6.08
  10  -6   2   14.55    3.63
  11  -6   2    2.61    1.91
 -14  -5   2   -1.93    3.76
 -13  -5   2    0.62    3.14
 -12  -5   2    5.13    3.31
 -11  -5   2   73.57    6.73
 -10  -5   2    0.33    2.54
  -9  -5   2    0.03    2.39
  -8  -5   2   56.47    5.13
   7   5  -2   -0.31    2.43
  -7  -5   2    1.78    1.94
   6   5  -2   36.64    4.61
  -6  -5   2   47.93    4.37
  -5  -5   2  155.77    7.32
  -4  -5   2   19.85    2.66
  -3  -5   2   25.77    2.10
  -3  -5   2   26.62    2.83
  -2  -5   2   -0.85    0.61
  -2  -5   2    0.31    1.18
  -1  -5   2   19.01    2.23
  -1  -5   2   19.55    1.76
   0  -5   2    1.15    1.14
   0  -5   2    0.24    0.36
   1  -5   2  212.95    7.11
   1  -5   2  206.54    7.38
   2  -5   2  114.17    4.97
   2  -5   2  110.71    4.98
   3  -5   2  435.46   13.63
   3  -5   2  456.78   13.42
   4  -5   2   32.71    2.83
   4  -5   2   32.03    3.20
   5  -5   2    3.95    1.80
   5  -5   2    1.51    1.44
   6  -5   2   20.99    2.74
   6  -5   2   20.37    3.16
   7  -5   2   21.47    3.50
   7  -5   2   27.30    3.00
  -8   5  -2    1.33    1.74
  -8   5  -2    2.60    1.70
   8  -5   2   -0.70    1.67
   9  -5   2    2.48    2.10
  10  -5   2   20.88    3.74
  11  -5   2   -1.49    1.43
  12  -5   2    1.59    1.66
 -13  -4   2    5.42    3.35
 -12  -4   2    7.89    3.67
 -11  -4   2    2.10    3.14
 -10  -4   2    8.54    3.23
  -9  -4   2    1.79    2.38
   9   4  -2    1.23    2.34
  -8  -4   2   21.04    3.61
   8   4  -2   14.29    3.83
   7   4  -2   -0.04    2.25
  -7  -4   2    3.79    2.23
   6   4  -2    2.58    2.27
  -6  -4   2    0.06    1.38
   5   4  -2   13.59    2.92
  -5  -4   2   13.39    2.37
  -4  -4   2  177.23    7.27
   4   4  -2  179.82    8.44
   3   4  -2   -0.18    1.37
  -3  -4   2    0.67    1.14
  -2  -4   2    7.60    1.65
  -2  -4   2    7.83    1.21
  -1  -4   2   18.06    1.56
  -1  -4   2   19.38    2.08
   0  -4   2  156.96    5.74
   1  -4   2   27.84    2.15
   1  -4   2   30.09    2.39
   2  -4   2   61.06    3.35
   2  -4   2   61.92    3.39
   3  -4   2    0.65    1.09
   3  -4   2    0.76    1.20
   4  -4   2   14.25    2.26
   5  -4   2   23.75    2.87
   5  -4   2   21.72    1.56
   5  -4   2   22.33    2.50
   6  -4   2  117.05    6.33
   6  -4   2  115.12    5.53
  -7   4  -2  216.72    9.01
  -7   4  -2  211.46    8.93
   7  -4   2  198.84    9.18
  -8   4  -2   18.21    2.97
  -8   4  -2   13.18    2.80
   8  -4   2    6.57    2.57
   9  -4   2   10.12    2.87
  -9   4  -2   10.45    2.81
  10  -4   2   53.77    5.43
  11  -4   2    9.38    2.99
  12  -4   2   -0.53    1.40
 -13  -3   2   11.18    3.87
 -12  -3   2   16.46    4.08
 -11  -3   2   41.86    5.13
  11   3  -2   31.37    4.91
  11   3  -2   41.00    4.35
  10   3  -2    4.72    2.83
 -10  -3   2    4.72    2.65
  10   3  -2    2.54    1.62
   9   3  -2   45.23    5.44
   9   3  -2   56.68    4.40
  -9  -3   2   56.08    5.07
  -8  -3   2   -0.17    1.79
   8   3  -2   -0.49    2.17
   8   3  -2   -0.25    1.38
   7   3  -2   16.69    2.47
   7   3  -2   15.56    3.31
  -7  -3   2   17.51    2.87
  -6  -3   2   48.10    3.87
   6   3  -2   46.78    3.23
   6   3  -2   52.96    4.73
  -5  -3   2    4.75    1.71
   5   3  -2    3.12    2.01
   4   3  -2   31.89    3.41
  -4  -3   2   30.71    2.87
   3   3  -2   84.95    5.09
  -3  -3   2   90.34    4.42
   2   3  -2   43.82    3.68
  -2  -3   2   51.89    3.04
  -1  -3   2   90.87    3.00
  -1  -3   2   87.76    3.79
   1   3  -2   81.58    4.39
   0  -3   2    1.63    0.77
   0  -3   2    3.94    1.16
   1  -3   2    1.98    0.98
   1  -3   2    2.23    1.08
   2  -3   2  188.01    6.35
   2  -3   2  182.33    6.19
   3  -3   2  247.07    7.89
   3  -3   2  238.23    8.16
   4  -3   2  138.80    4.42
   4  -3   2  126.65    5.35
   4  -3   2  139.71    5.92
   5  -3   2   95.73    4.70
   5  -3   2  100.47    5.22
   5  -3   2   94.74    3.51
   6  -3   2    5.24    1.85
  -7   3  -2   60.51    4.45
  -7   3  -2   61.61    4.37
   7  -3   2   61.73    4.73
   8  -3   2    2.33    1.97
  -8   3  -2   -0.51    1.32
  -8   3  -2   -0.74    1.25
   9  -3   2   14.67    3.00
  -9   3  -2   15.37    2.95
 -10   3  -2    6.48    2.51
  10  -3   2    4.26    2.45
  11  -3   2   12.80    3.22
  12  -3   2   47.69    5.38
  13  -3   2   -0.12    1.53
  12   2  -2    0.42    1.62
 -12  -2   2   -0.65    2.17
  11   2  -2    1.84    1.85
 -11  -2   2    4.27    2.78
 -10  -2   2    4.48    2.47
  10   2  -2    3.94    1.82
  10   2  -2    4.70    2.61
   9   2  -2   22.82    3.09
  -9  -2   2   34.87    4.23
   9   2  -2   24.67    4.16
   8   2  -2   88.14    6.39
   8   2  -2   88.07    5.22
  -8  -2   2   92.15    5.83
  -7  -2   2   25.91    3.33
   7   2  -2   31.33    3.12
   7   2  -2   33.58    4.04
  -6  -2   2   17.42    2.55
   6   2  -2   20.82    3.09
   6   2  -2   18.87    2.32
  -5  -2   2    0.03    1.09
   5   2  -2    2.42    1.86
   5   2  -2    1.32    0.98
  -4  -2   2   19.94    2.27
   4   2  -2   22.43    2.83
   4   2  -2   15.30    1.63
   3   2  -2   79.90    3.18
   3   2  -2   75.57    4.59
  -3  -2   2   90.10    4.12
  -2  -2   2 1136.45   29.13
   2   2  -2 1162.37   31.07
   1   2  -2    8.12    1.62
  -1  -2   2    6.79    0.67
  -1  -2   2    7.21    1.17
   0  -2   2   16.17    1.44
   0  -2   2   14.68    1.14
   0   2  -2   17.42    1.67
   1  -2   2   20.76    1.79
   1  -2   2   24.42    1.82
   2  -2   2    1.36    1.01
   2  -2   2    1.67    1.09
   3  -2   2   44.55    2.74
   3  -2   2   35.06    1.67
   3  -2   2   41.10    2.81
   4  -2   2  270.87    7.59
   4  -2   2  264.51    8.54
   4  -2   2  251.61    8.82
   5  -2   2   33.80    3.13
   5  -2   2   33.12    2.15
  -6   2  -2   19.86    2.73
  -6   2  -2   23.32    2.94
   6  -2   2   21.97    2.01
   6  -2   2   17.65    2.65
  -7   2  -2   14.88    2.53
   7  -2   2   11.28    2.42
  -7   2  -2   10.66    2.26
  -8   2  -2    0.98    1.34
   8  -2   2    0.05    1.48
   9  -2   2  113.92    6.96
  -9   2  -2  118.81    6.92
 -10   2  -2    0.33    1.83
  10  -2   2   -0.23    1.30
 -11   2  -2   15.84    3.38
  11  -2   2   19.39    3.59
  12  -2   2   13.20    3.14
  13  -2   2    1.37    1.98
  13   1  -2    4.29    2.13
  12   1  -2    9.67    2.70
  11   1  -2   60.93    5.15
 -11  -1   2   67.08    5.75
  10   1  -2   41.30    4.20
 -10  -1   2   28.44    4.08
  10   1  -2   29.30    4.37
   9   1  -2  100.66    6.83
   9   1  -2   81.48    5.59
  -9  -1   2   99.52    6.11
   8   1  -2   32.23    3.98
   8   1  -2   24.11    3.20
  -8  -1   2   26.89    3.51
   7   1  -2    0.72    1.80
  -7  -1   2    0.03    1.44
   7   1  -2    1.30    1.40
  -6  -1   2    3.44    1.56
   6   1  -2    2.71    1.87
   6   1  -2    2.39    1.33
   5   1  -2  197.00    7.02
  -5  -1   2  190.08    7.31
   5   1  -2  191.18    8.12
   4   1  -2    2.63    1.68
  -4  -1   2    6.69    1.45
   4   1  -2    7.16    1.40
   3   1  -2   20.97    2.42
   3   1  -2   25.76    2.01
  -3  -1   2   23.37    2.08
   2   1  -2   20.08    1.52
  -2  -1   2   20.29    1.81
   2   1  -2   22.73    2.21
   1   1  -2   17.67    1.60
  -1  -1   2   17.08    1.37
   0   1  -2   14.71    1.24
   0  -1   2   14.10    0.79
   0  -1   2   14.10    1.16
   1  -1   2   59.35    2.24
   1  -1   2   44.54    2.18
   2  -1   2   48.80    2.55
   2  -1   2   56.60    2.82
   3  -1   2  188.31    6.18
   3  -1   2  181.91    5.52
   3  -1   2  186.37    6.42
  -4   1  -2   31.39    2.88
  -4   1  -2   29.59    2.70
   4  -1   2   24.01    1.99
   4  -1   2   25.48    2.50
  -5   1  -2    1.66    1.34
  -5   1  -2    2.65    1.53
   5  -1   2    3.10    1.17
   5  -1   2    4.54    1.59
   6  -1   2   10.76    2.18
  -6   1  -2   10.11    2.03
   6  -1   2   12.68    1.82
   7  -1   2   11.14    1.98
   7  -1   2   12.55    2.41
  -7   1  -2   12.58    2.34
  -8   1  -2   47.48    4.11
   8  -1   2   47.01    4.24
  -9   1  -2   76.24    5.44
   9  -1   2   63.39    5.16
 -10   1  -2   34.16    4.19
  10  -1   2   34.43    4.20
 -11   1  -2    4.30    2.59
  11  -1   2    5.16    2.28
  12  -1   2    9.12    2.78
  13  -1   2    2.06    1.69
  14   0  -2    4.89    2.79
  13   0  -2    5.02    2.41
  12   0  -2    1.19    1.72
  11   0  -2   43.99    4.71
  10   0  -2   52.48    4.68
 -10   0   2   56.85    4.89
  -9   0   2    2.64    2.12
   9   0  -2    6.41    2.19
   9   0  -2    1.22    0.90
  -8   0   2    1.30    1.50
   8   0  -2    0.42    0.71
   8   0  -2    0.72    1.50
   7   0  -2   52.85    4.15
  -7   0   2   47.25    3.76
   7   0  -2   45.39    3.74
  -6   0   2  157.90    6.71
   6   0  -2  156.75    7.24
   6   0  -2  150.16    6.55
   5   0  -2   13.81    2.05
   5   0  -2   19.26    2.37
  -5   0   2   16.87    2.12
   4   0  -2   32.25    2.46
   4   0  -2   28.27    2.65
  -4   0   2   29.58    2.34
   3   0  -2    5.91    1.24
   3   0  -2   10.24    1.70
  -3   0   2    2.33    0.63
   2   0  -2    4.19    1.25
   2   0  -2    3.90    0.92
   1   0  -2   38.20    1.52
   1   0  -2   39.43    2.11
   1   0   2    0.05    0.44
   1   0   2    0.42    0.50
   2   0   2    2.77    1.02
  -2   0  -2    2.37    1.05
  -2   0  -2    3.11    1.19
   3   0   2    8.84    1.57
  -3   0  -2    8.09    1.60
  -3   0  -2    6.20    1.60
   4   0   2    2.45    1.24
   4   0   2    0.05    1.09
  -4   0  -2    1.47    1.22
  -4   0  -2    0.13    1.13
   5   0   2   38.38    3.10
   5   0   2   40.46    2.92
  -5   0  -2   38.92    3.19
   6   0   2  225.25    8.39
  -6   0  -2  227.95    8.95
   6   0   2  224.70    8.57
  -7   0  -2   77.86    5.00
   7   0   2   78.65    5.01
   7   0   2   76.78    4.72
   8   0   2   94.80    5.84
   8   0   2   97.28    5.53
  -8   0  -2   96.83    5.91
  -9   0  -2    1.71    1.66
   9   0   2    0.53    1.73
 -10   0  -2   35.04    4.54
  10   0   2   38.96    4.32
 -11   0  -2    9.28    3.05
  11   0   2    9.06    2.65
  12   0   2   18.78    3.57
 -12   0  -2   15.70    3.81
  13   0   2    2.22    1.99
  14   0   2   -1.66    1.72
  14  -1  -2   46.69    5.77
  13  -1  -2   13.65    3.14
  12  -1  -2   15.46    3.21
  11  -1  -2   18.38    3.41
  10  -1  -2   12.25    2.89
  -9   1   2   28.45    3.61
   9  -1  -2   30.74    3.84
   8  -1  -2   67.38    4.91
   8  -1  -2   57.91    4.69
  -8   1   2   58.48    4.32
   7  -1  -2   48.33    3.86
  -7   1   2   36.82    3.14
   7  -1  -2   42.55    3.90
  -4   1   2    5.89    1.18
   4  -1  -2    9.54    1.62
  -3   1   2  203.07    6.33
   3  -1  -2  195.13    6.81
   3  -1  -2  208.43    6.68
   2  -1  -2   20.74    1.67
  -2   1   2   15.32    1.31
   2  -1  -2   14.64    1.59
   1  -1  -2   74.95    2.73
   0  -1  -2    1.29    0.36
   0  -1  -2    1.75    0.52
  -1  -1  -2  882.50   22.08
  -2  -1  -2    0.76    0.87
   3   1   2   33.22    2.39
  -3  -1  -2   29.59    2.40
   4   1   2    0.48    0.98
  -4  -1  -2    0.51    1.00
   5   1   2  160.59    6.41
  -5  -1  -2  167.90    6.86
  -6  -1  -2   74.35    4.58
   6   1   2   71.83    4.36
   6   1   2   69.48    4.28
   7   1   2  149.08    6.87
  -7  -1  -2  146.68    7.17
  -8  -1  -2   -1.22    1.41
   8   1   2   -1.19    1.17
  -9  -1  -2    5.72    2.37
   9   1   2    4.46    1.90
 -10  -1  -2   36.15    4.65
  10   1   2   26.42    3.67
 -11  -1  -2   28.32    4.40
  11   1   2   20.50    3.51
  12   1   2   83.84    6.43
 -12  -1  -2   81.41    6.86
 -13  -1  -2    2.51    3.02
  13   1   2   -3.16    1.24
  14   1   2   10.53    2.90
  13  -2  -2   20.44    3.83
  12  -2  -2   -0.74    1.67
  11  -2  -2    0.56    1.83
  10  -2  -2    3.78    2.15
   9  -2  -2   15.57    3.18
   7  -2  -2    3.49    1.53
  -7   2   2    2.64    1.31
   7  -2  -2    4.35    1.98
   6  -2  -2  130.61    6.18
   6  -2  -2  130.59    5.88
  -6   2   2  124.20    5.57
   5  -2  -2    3.23    1.26
   5  -2  -2    5.88    1.65
  -5   2   2    4.44    1.27
   4  -2  -2   72.29    3.94
   4  -2  -2   69.70    3.76
  -4   2   2   73.40    3.52
  -3   2   2   -0.46    0.88
  -3   2   2    1.14    0.88
   3  -2  -2   -0.47    0.93
   2  -2  -2    3.37    0.81
   2  -2  -2    1.98    1.06
   1  -2  -2   41.42    2.26
   0  -2  -2    5.90    0.75
   0  -2  -2    6.22    0.97
  -1  -2  -2    6.65    1.02
  -2  -2  -2  246.33    7.64
  -3  -2  -2    7.05    1.55
  -4  -2  -2    2.59    1.32
   5   2   2   30.59    2.68
  -5  -2  -2   31.70    3.12
   6   2   2   58.65    3.88
  -6  -2  -2   61.81    4.34
  -7  -2  -2   13.93    2.77
   7   2   2   11.56    2.31
   8   2   2   25.35    3.23
  -8  -2  -2   27.94    3.81
  -9  -2  -2   52.47    5.28
   9   2   2   47.90    4.52
  10   2   2   46.01    4.64
 -10  -2  -2   59.00    5.76
 -11  -2  -2   18.03    4.02
  11   2   2   15.87    3.24
 -12  -2  -2   19.47    4.28
  12   2   2   24.03    3.79
 -13  -2  -2    1.90    2.78
  13   2   2    1.95    1.78
 -14  -2  -2   -2.06    2.37
  13  -3  -2    3.63    2.16
  12  -3  -2   17.94    3.64
  11  -3  -2   23.67    4.05
  10  -3  -2    5.49    2.50
   9  -3  -2    8.05    2.76
  -8   3   2   73.11    4.49
   8  -3  -2   82.20    5.67
   7  -3  -2    6.95    1.64
  -7   3   2    6.84    1.82
   7  -3  -2    9.75    2.42
   6  -3  -2   79.11    4.99
   6  -3  -2   81.72    4.45
  -6   3   2   82.48    4.30
   5  -3  -2   -0.46    1.18
   5  -3  -2    2.87    1.26
  -5   3   2    1.71    1.07
  -5   3   2    2.49    1.11
   4  -3  -2   93.12    4.66
   3  -3  -2  288.52    8.11
   3  -3  -2  267.82    8.95
   2  -3  -2  103.51    3.61
   2  -3  -2  108.81    4.47
   1  -3  -2  140.03    4.32
   1  -3  -2  139.96    5.04
   0  -3  -2   10.05    1.44
   0  -3  -2   10.62    1.19
  -1  -3  -2    0.43    0.88
  -1  -3  -2    0.98    0.97
  -2  -3  -2   11.55    1.59
  -3  -3  -2 2887.13   71.23
  -4  -3  -2   -0.02    1.18
  -5  -3  -2   24.03    2.88
  -6  -3  -2   11.85    2.40
  -7  -3  -2   10.50    2.56
  -8  -3  -2   70.47    5.50
  -9  -3  -2   89.92    6.48
 -10  -3  -2    8.11    3.23
 -11  -3  -2   11.69    3.56
 -12  -3  -2    5.11    3.16
 -13  -3  -2    5.75    3.47
 -14  -3  -2   35.37    5.03
  12  -4  -2   12.86    3.38
  11  -4  -2   34.30    4.70
  10  -4  -2    2.99    2.37
   9  -4  -2   17.74    3.39
   8  -4  -2    9.39    2.67
  -7   4   2    2.27    1.29
   7  -4  -2    1.95    1.78
  -6   4   2   52.81    3.56
   6  -4  -2   58.65    3.74
   6  -4  -2   55.47    4.32
  -6   4   2   57.30    3.55
   5  -4  -2   42.11    3.63
   5  -4  -2   40.42    2.92
   4  -4  -2  520.10   14.24
   4  -4  -2  508.16   15.39
   3  -4  -2    1.52    1.14
   3  -4  -2    0.95    0.84
   2  -4  -2    0.96    0.84
   2  -4  -2    1.46    1.12
   1  -4  -2    1.46    1.00
   1  -4  -2    1.00    0.86
   0  -4  -2  113.51    4.22
   0  -4  -2  119.31    4.63
  -1  -4  -2    1.66    0.99
  -1  -4  -2    1.04    0.99
  -2  -4  -2    5.13    1.39
  -3  -4  -2    1.20    1.22
  -4  -4  -2   27.03    2.82
  -5  -4  -2   18.70    2.67
  -6  -4  -2    5.02    1.90
  -7  -4  -2    0.96    1.71
  -8  -4  -2   97.89    6.38
  -9  -4  -2    0.59    2.32
 -10  -4  -2    4.08    3.03
 -11  -4  -2   10.77    3.74
 -12  -4  -2    0.96    2.71
 -13  -4  -2    8.75    3.70
 -14  -4  -2   20.84    4.92
  12  -5  -2   22.57    4.18
  11  -5  -2    5.00    2.45
  10  -5  -2    6.75    2.46
   9  -5  -2   37.54    4.65
   8  -5  -2    5.51    2.17
   7  -5  -2    4.67    2.16
   6  -5  -2   98.43    5.99
  -6   5   2   98.76    4.89
  -6   5   2   94.26    4.80
   5  -5  -2  123.93    6.36
   5  -5  -2  114.66    4.91
   4  -5  -2   23.71    2.14
   4  -5  -2   30.86    3.14
   3  -5  -2    0.71    1.28
   3  -5  -2    0.56    0.87
   2  -5  -2   57.97    2.94
   2  -5  -2   60.79    3.70
   1  -5  -2  376.31   10.67
   1  -5  -2  365.25   11.35
   0  -5  -2   45.97    3.04
   0  -5  -2   45.56    2.71
  -1  -5  -2  235.96    7.86
  -1  -5  -2  242.70    7.95
  -2  -5  -2    6.80    1.59
  -2  -5  -2    8.42    1.56
  -3  -5  -2    2.89    1.39
  -4  -5  -2   80.95    4.76
  -5  -5  -2 1426.15   38.28
  -6  -5  -2   -0.63    1.36
  -7  -5  -2   45.88    4.62
  -8  -5  -2    0.52    1.97
  -9  -5  -2    5.90    2.69
 -10  -5  -2    3.48    2.84
 -11  -5  -2   20.42    4.49
 -12  -5  -2   39.08    5.51
 -13  -5  -2   10.01    3.97
 -14  -5  -2    7.79    4.64
  11  -6  -2   -0.38    1.69
  10  -6  -2   -0.44    2.11
   9  -6  -2   19.42    3.71
   8  -6  -2   31.88    4.12
   7  -6  -2   20.94    3.47
   6  -6  -2    0.30    1.71
   5  -6  -2   17.29    2.82
   5  -6  -2   10.17    1.74
   4  -6  -2   -0.69    0.92
   4  -6  -2    0.91    1.50
   3  -6  -2   28.58    3.04
   3  -6  -2   25.20    2.26
   2  -6  -2  120.93    4.88
   2  -6  -2  113.12    5.54
   1  -6  -2   16.26    1.89
   1  -6  -2   15.12    2.10
   0  -6  -2  164.82    6.07
   0  -6  -2  147.60    6.17
  -1  -6  -2   -0.47    0.98
  -1  -6  -2   -0.07    1.03
  -2  -6  -2    0.26    0.93
  -2  -6  -2    1.16    1.17
  -3  -6  -2    3.75    1.61
  -3  -6  -2    3.40    1.42
  -4  -6  -2   13.45    2.50
  -5  -6  -2   40.22    3.98
  -6  -6  -2  203.29    9.16
  -7  -6  -2   42.27    4.63
  -8  -6  -2   24.90    3.96
  -9  -6  -2    1.68    2.29
 -10  -6  -2   23.64    4.53
 -11  -6  -2   24.93    4.85
 -12  -6  -2   17.46    4.51
 -13  -6  -2    1.80    3.88
  11  -7  -2    1.83    1.91
  10  -7  -2   21.88    4.07
   9  -7  -2   18.41    3.57
   8  -7  -2   41.26    4.87
   7  -7  -2   40.13    4.63
   6  -7  -2   20.57    3.49
   5  -7  -2    9.98    2.52
   4  -7  -2   85.11    5.45
   4  -7  -2   81.30    4.16
   3  -7  -2  145.68    5.79
   3  -7  -2  145.14    6.94
   2  -7  -2    2.21    1.37
   2  -7  -2   -0.50    0.97
   1  -7  -2   14.83    2.20
   1  -7  -2   13.39    1.95
   0  -7  -2   26.07    2.66
   0  -7  -2   21.42    2.43
  -1  -7  -2   67.26    4.01
  -1  -7  -2   68.14    4.00
  -2  -7  -2   34.77    2.87
  -2  -7  -2   36.86    3.20
  -3  -7  -2   67.07    4.38
  -3  -7  -2   73.48    4.15
  -4  -7  -2    7.28    1.92
  -4  -7  -2    5.32    1.95
  -5  -7  -2   77.15    5.42
  -6  -7  -2   90.55    5.92
  -7  -7  -2  145.86    8.14
  -8  -7  -2    0.32    2.27
  -9  -7  -2   34.34    5.04
 -10  -7  -2    1.83    2.80
 -11  -7  -2   10.94    3.87
 -12  -7  -2   -0.83    3.09
 -13  -7  -2   -2.08    2.66
  10  -8  -2    0.06    1.78
   9  -8  -2   16.53    3.75
   8  -8  -2    0.60    2.00
   7  -8  -2    1.22    1.95
   6  -8  -2  102.18    6.81
   5  -8  -2    1.44    1.86
   4  -8  -2   18.97    3.18
   3  -8  -2  174.05    8.03
   3  -8  -2  165.06    6.74
   2  -8  -2   55.33    4.20
   2  -8  -2   54.08    3.65
   1  -8  -2   19.18    2.66
   1  -8  -2   18.51    2.44
   0  -8  -2   15.87    2.33
   0  -8  -2   10.49    2.03
  -1  -8  -2   33.68    3.21
  -1  -8  -2   34.73    3.27
  -2  -8  -2  261.30    9.50
  -2  -8  -2  268.65    9.97
  -3  -8  -2    5.07    1.52
  -3  -8  -2    3.75    1.82
  -4  -8  -2   67.43    4.39
  -4  -8  -2   71.68    4.84
  -5  -8  -2    7.58    2.04
  -5  -8  -2    5.66    2.11
  -6  -8  -2    9.03    2.66
  -7  -8  -2  107.15    7.00
  -8  -8  -2  443.25   16.92
  -9  -8  -2   22.53    4.38
 -10  -8  -2   61.09    6.56
 -11  -8  -2    2.53    3.04
 -12  -8  -2    0.05    2.67
   9  -9  -2   -0.71    1.19
   8  -9  -2    1.50    2.14
   7  -9  -2    2.28    2.34
   6  -9  -2   49.29    5.22
   5  -9  -2   -1.03    1.37
   4  -9  -2    7.43    2.53
   3  -9  -2   20.29    3.17
   2  -9  -2   11.12    2.26
   2  -9  -2   12.61    2.56
   1  -9  -2   14.27    2.39
   1  -9  -2   16.23    2.71
   0  -9  -2   20.79    2.71
   0  -9  -2   20.43    2.78
  -1  -9  -2   92.46    5.35
  -1  -9  -2   93.10    5.43
  -2  -9  -2    0.59    1.31
  -2  -9  -2    0.29    1.49
  -3  -9  -2    7.12    2.12
  -3  -9  -2    4.24    1.92
  -4  -9  -2   17.66    2.98
  -4  -9  -2   19.09    2.62
  -5  -9  -2   19.38    2.62
  -5  -9  -2   20.87    3.26
  -6  -9  -2    0.69    0.74
  -6  -9  -2    1.37    1.76
  -8  -9  -2    5.67    2.54
  -9  -9  -2    9.18    3.03
 -10  -9  -2   -0.37    2.48
 -11  -9  -2   -1.43    2.62
 -12  -9  -2   -1.69    2.44
   9 -10  -2    0.23    1.84
   8 -10  -2    1.39    2.35
   7 -10  -2   17.45    3.83
   6 -10  -2   -0.72    1.83
   5 -10  -2   12.00    2.94
   4 -10  -2   39.08    4.52
   3 -10  -2    5.48    2.35
   2 -10  -2   12.48    2.67
   1 -10  -2  120.01    6.18
   1 -10  -2  115.72    6.62
   0 -10  -2   98.39    5.82
   0 -10  -2   90.23    5.37
  -1 -10  -2    1.16    1.49
  -1 -10  -2   -0.31    1.32
  -2 -10  -2    2.39    1.71
  -2 -10  -2    1.21    1.58
  -3 -10  -2   16.84    2.74
  -3 -10  -2   18.97    3.08
  -4 -10  -2  104.47    5.95
  -4 -10  -2  105.28    6.44
  -5 -10  -2    3.18    1.38
  -5 -10  -2    5.72    2.23
  -6 -10  -2   46.49    4.88
  -7 -10  -2    9.96    2.91
  -8 -10  -2    2.43    1.96
  -9 -10  -2   42.05    5.28
 -10 -10  -2  199.49   11.30
 -11 -10  -2   -1.19    1.74
   8 -11  -2    0.92    2.14
   7 -11  -2    0.82    2.16
   6 -11  -2    0.71    2.01
   5 -11  -2    0.65    1.74
   4 -11  -2    3.21    2.17
   3 -11  -2   40.72    4.59
   2 -11  -2    2.78    1.91
   1 -11  -2    1.02    1.40
   0 -11  -2    8.34    2.24
   0 -11  -2    8.26    2.36
  -1 -11  -2    5.92    2.09
  -1 -11  -2    7.12    2.12
  -2 -11  -2   27.07    3.74
  -2 -11  -2   22.17    3.35
  -3 -11  -2   58.12    4.94
  -3 -11  -2   53.49    4.53
  -4 -11  -2    0.42    1.70
  -5 -11  -2   32.87    4.21
  -6 -11  -2    2.59    1.96
  -7 -11  -2    0.71    1.95
  -8 -11  -2    2.06    1.96
  -9 -11  -2   33.92    4.96
 -10 -11  -2    9.95    3.13
 -11 -11  -2   47.45    6.39
   7 -12  -2    0.37    2.07
   6 -12  -2    8.88    3.35
   5 -12  -2   13.74    3.51
   4 -12  -2    7.88    3.03
   3 -12  -2   41.40    4.96
   2 -12  -2    6.19    2.31
   1 -12  -2   18.71    3.25
   0 -12  -2   -0.72    1.53
  -1 -12  -2    6.00    1.99
  -1 -12  -2    2.96    2.06
  -2 -12  -2   60.99    4.97
  -2 -12  -2   58.02    4.93
  -3 -12  -2    3.06    2.04
  -4 -12  -2   31.55    4.22
  -5 -12  -2    0.43    2.00
  -6 -12  -2    7.92    2.86
  -7 -12  -2   -0.19    1.40
  -8 -12  -2   28.81    4.54
  -9 -12  -2    4.76    2.27
 -10 -12  -2   42.81    5.76
   6 -13  -2    2.67    3.17
   4 -13  -2    5.77    2.72
   3 -13  -2   -2.67    1.90
   2 -13  -2    2.54    2.17
   1 -13  -2   34.25    4.35
   0 -13  -2   -3.25    1.35
  -2 -13  -2   40.03    4.55
  -3 -13  -2   21.45    3.69
  -4 -13  -2    0.45    2.13
  -5 -13  -2   -0.11    1.91
  -6 -13  -2   -0.89    1.66
  -7 -13  -2   42.31    5.43
  -8 -13  -2    3.29    2.22
  -9 -13  -2    4.48    2.34
   4 -14  -2    1.09    1.84
   3 -14  -2    2.51    2.70
   2 -14  -2   14.99    3.58
  -3 -14  -2   -1.34    1.51
  -4 -14  -2   16.65    3.48
  -5 -14  -2    4.00    2.55
  -6 -14  -2   44.81    5.68
  -7 -14  -2    2.71    2.13
  -4 -15  -2   24.29    4.40
  -5 -15  -2   19.73    4.01
  -6 -15  -2    2.40    2.22
  -4 -15   3    2.15    2.53
  -3 -15   3    0.69    1.82
  -2 -15   3   19.68    3.87
  -1 -15   3   46.07    5.34
  -6 -14   3    6.23    2.67
  -5 -14   3   18.59    4.32
  -4 -14   3    1.60    2.15
  -3 -14   3    2.28    2.33
  -2 -14   3    3.24    2.11
  -1 -14   3   -2.99    1.20
   0 -14   3    3.73    2.13
  -8 -13   3    0.20    2.29
  -7 -13   3    0.60    2.32
  -6 -13   3   42.10    5.70
  -5 -13   3    7.08    2.71
  -4 -13   3   19.89    3.98
  -3 -13   3   22.85    4.05
  -2 -13   3    2.13    1.85
  -1 -13   3    5.90    2.40
   0 -13   3   21.40    3.54
   1 -13   3   36.95    4.61
   6 -13   3    0.54    2.58
  -9 -12   3    0.81    2.06
  -8 -12   3    0.28    2.23
  -7 -12   3   33.90    5.21
  -6 -12   3   15.76    3.64
  -5 -12   3    0.73    2.16
  -4 -12   3   -0.57    1.83
  -3 -12   3   -2.39    1.75
  -2 -12   3   13.24    3.15
  -1 -12   3   31.72    4.21
   0 -12   3   11.15    2.74
   1 -12   3    9.98    2.46
   2 -12   3    9.82    2.44
   4 -12   3    4.96    2.66
   5 -12   3   15.26    3.59
   6 -12   3   22.96    4.28
   7 -12   3    1.43    2.57
 -10 -11   3   -1.74    2.20
  -9 -11   3   -2.06    2.22
  -8 -11   3   20.17    4.13
  -7 -11   3    1.60    2.02
  -6 -11   3   15.93    3.76
  -5 -11   3   17.51    3.61
  -4 -11   3   11.53    3.13
  -3 -11   3    1.88    2.08
  -2 -11   3    3.86    2.01
  -1 -11   3   11.50    2.77
   0 -11   3    3.38    1.69
   1 -11   3    3.49    1.76
   2 -11   3   10.84    2.45
   2 -11   3    9.42    2.62
   3 -11   3   16.36    3.31
   3 -11   3   13.55    2.89
   4 -11   3    2.63    2.28
   5 -11   3   64.78    5.86
   6 -11   3    2.01    2.13
   7 -11   3    9.15    3.01
   8 -11   3    6.37    2.99
 -11 -10   3   -3.68    2.16
 -10 -10   3   -1.98    2.45
  -9 -10   3    4.57    3.11
  -8 -10   3    5.00    3.13
  -7 -10   3   12.54    3.50
  -6 -10   3    2.10    2.17
  -5 -10   3   32.74    4.45
  -4 -10   3    2.66    2.09
  -3 -10   3   23.75    3.77
  -2 -10   3   15.19    2.98
  -1 -10   3    4.94    2.14
   0 -10   3   17.08    2.87
   1 -10   3   24.17    3.11
   1 -10   3   20.64    2.98
   2 -10   3   -0.89    1.42
   2 -10   3    1.92    1.48
   3 -10   3   18.40    3.25
   3 -10   3   23.14    3.16
   4 -10   3   70.97    4.91
   4 -10   3   62.62    5.39
   5 -10   3   16.87    3.45
   6 -10   3    0.95    2.16
   7 -10   3   18.17    3.64
   8 -10   3   17.17    3.83
   9 -10   3   -1.36    1.73
 -11  -9   3   -1.53    2.17
 -10  -9   3   15.92    4.21
  -9  -9   3    3.27    3.12
  -8  -9   3    0.84    2.57
  -7  -9   3    0.21    2.18
  -6  -9   3   11.90    3.13
  -5  -9   3   -1.23    1.64
  -4  -9   3   83.08    5.89
  -3  -9   3   15.65    2.98
  -2  -9   3   26.68    3.61
  -1  -9   3    8.71    1.86
  -1  -9   3    6.09    2.13
   0  -9   3    0.74    0.74
   0  -9   3    0.85    1.45
   1  -9   3    9.89    2.29
   1  -9   3    9.40    2.12
   2  -9   3   34.30    3.67
   2  -9   3   38.57    3.78
   3  -9   3   27.60    3.26
   3  -9   3   23.54    3.41
   4  -9   3    0.11    1.68
   4  -9   3    0.32    1.40
   5  -9   3    0.12    1.72
   5  -9   3    4.18    1.76
   6  -9   3    3.09    2.28
   7  -9   3   41.75    5.05
   8  -9   3    8.81    2.93
   9  -9   3    3.80    2.74
 -12  -8   3   -6.85    2.33
 -11  -8   3    7.11    3.69
 -10  -8   3    6.47    3.47
  -9  -8   3    3.03    2.49
  -8  -8   3    4.29    2.44
  -7  -8   3   17.16    3.66
  -6  -8   3    5.72    2.57
  -5  -8   3   78.74    5.68
  -4  -8   3    0.21    1.64
  -3  -8   3   -0.90    1.43
  -2  -8   3   58.44    4.50
  -2  -8   3   64.12    3.57
  -1  -8   3  117.43    5.18
  -1  -8   3  110.84    6.06
   0  -8   3   14.16    1.93
   1  -8   3   17.29    2.38
   1  -8   3   18.14    2.78
   2  -8   3   59.77    4.39
   2  -8   3   63.44    4.31
   3  -8   3    4.05    1.92
   3  -8   3   11.20    2.52
   4  -8   3    4.26    2.10
   4  -8   3   -0.13    1.32
   5  -8   3   35.14    4.09
   5  -8   3   32.14    3.45
   6  -8   3   67.73    4.53
   6  -8   3   59.56    5.21
   7  -8   3   13.15    3.31
   8  -8   3    8.87    3.00
   9  -8   3    6.72    3.17
  10  -8   3   -0.74    1.37
 -13  -7   3   -2.80    3.29
 -12  -7   3    2.60    2.93
 -11  -7   3   -0.70    2.64
 -10  -7   3    3.31    2.81
  -9  -7   3   -1.68    2.19
  -8  -7   3    8.73    3.19
  -7  -7   3    3.68    2.55
  -6  -7   3    4.06    2.23
  -5  -7   3    1.39    1.77
  -4  -7   3    5.22    1.98
  -4  -7   3    2.36    0.93
  -3  -7   3    1.47    1.58
  -3  -7   3    0.51    1.06
  -2  -7   3  183.66    6.48
  -2  -7   3  188.53    7.99
  -1  -7   3   18.43    1.95
  -1  -7   3   16.71    2.62
   0  -7   3   92.04    4.38
   0  -7   3   96.77    5.09
   1  -7   3    4.10    1.72
   1  -7   3    4.20    1.39
   2  -7   3    5.30    1.79
   2  -7   3    4.44    1.66
   3  -7   3   -1.14    1.27
   3  -7   3   -1.85    1.26
   4  -7   3   95.74    5.35
   4  -7   3   96.22    5.74
   5  -7   3    1.42    1.77
   5  -7   3    2.24    1.66
   6  -7   3    3.96    2.20
   6  -7   3    3.40    1.52
   7  -7   3   35.28    3.54
   7  -7   3   34.76    4.33
   8  -7   3    2.15    2.31
   9  -7   3    9.38    3.11
  10  -7   3    6.18    2.79
  11  -7   3    0.18    1.98
 -13  -6   3   -0.74    2.43
 -12  -6   3   -1.23    2.98
 -11  -6   3   10.81    3.99
 -10  -6   3    1.49    2.67
  -9  -6   3   18.44    3.98
  -8  -6   3    6.97    3.03
  -7  -6   3   19.29    3.53
  -6  -6   3    1.06    1.89
  -5  -6   3   15.57    2.79
  -4  -6   3   -0.41    1.25
  -4  -6   3   -0.38    0.86
  -3  -6   3   69.80    3.17
  -3  -6   3   68.70    4.45
  -2  -6   3    8.77    1.40
  -2  -6   3    6.56    1.89
  -1  -6   3   76.12    3.47
  -1  -6   3   71.27    4.27
   0  -6   3  159.88    6.66
   0  -6   3  166.90    5.95
   1  -6   3   40.87    3.26
   1  -6   3   42.32    2.87
   2  -6   3    9.54    1.91
   2  -6   3    6.30    1.67
   3  -6   3   11.46    2.18
   3  -6   3    9.92    2.01
   4  -6   3   99.43    5.49
   4  -6   3   96.79    5.18
   5  -6   3    1.10    1.81
   5  -6   3    0.92    1.53
   6  -6   3    3.01    1.99
   6  -6   3    0.93    1.43
   7  -6   3    8.72    2.07
   7  -6   3    1.95    1.96
   8  -6   3    9.99    2.82
   9  -6   3   10.53    3.07
  10  -6   3   54.40    5.81
  11  -6   3   -0.49    1.44
 -13  -5   3    0.48    2.92
 -12  -5   3   29.78    4.64
 -11  -5   3    3.53    3.02
 -10  -5   3   31.28    4.65
   9   5  -3    9.75    3.74
  -9  -5   3    7.58    2.95
   8   5  -3   37.40    5.23
  -8  -5   3   37.25    4.56
   7   5  -3    1.20    2.56
  -7  -5   3   -1.25    1.70
   6   5  -3    2.76    2.51
  -6  -5   3    4.25    2.02
   5   5  -3    2.74    2.31
  -5  -5   3    3.19    1.69
  -4  -5   3    0.40    1.26
   4   5  -3    1.90    2.03
   3   5  -3    1.55    1.90
  -3  -5   3    0.48    1.32
  -3  -5   3    1.51    0.78
  -2  -5   3   33.38    2.00
  -2  -5   3   30.42    2.87
  -1  -5   3    1.65    1.27
  -1  -5   3    0.99    0.73
   0  -5   3   95.46    4.48
   0  -5   3   87.78    3.76
   1  -5   3    0.49    1.15
   1  -5   3    0.69    0.84
   2  -5   3  126.40    5.28
   2  -5   3  126.15    5.47
   3  -5   3   31.25    2.94
   3  -5   3   31.42    2.78
   4  -5   3    3.73    1.59
   4  -5   3    1.98    1.50
   5  -5   3    1.62    1.53
   5  -5   3    3.40    1.84
   6  -5   3   80.12    5.39
   6  -5   3   73.63    4.66
   7  -5   3   17.26    2.61
   7  -5   3   18.80    3.40
   8  -5   3    2.05    2.09
  -8   5  -3    2.02    1.77
  -8   5  -3   -3.53    1.43
   9  -5   3   80.15    6.36
  -9   5  -3   91.08    5.99
  -9   5  -3   88.60    6.12
  10  -5   3   15.05    3.44
  11  -5   3    9.42    3.01
  12  -5   3    3.67    2.17
 -13  -4   3    8.64    3.52
 -12  -4   3   21.38    4.36
  11   4  -3   29.82    5.10
 -11  -4   3   29.56    4.51
 -10  -4   3    9.04    3.30
  10   4  -3   11.37    3.60
  -9  -4   3   -1.36    2.20
   9   4  -3   -0.74    2.45
  -8  -4   3    3.36    2.43
   8   4  -3    1.60    2.66
   7   4  -3   28.56    4.45
  -7  -4   3   25.41    3.57
  -6  -4   3    3.36    1.79
   6   4  -3    2.59    2.21
  -5  -4   3   24.20    2.93
   5   4  -3   16.19    3.15
   4   4  -3   14.61    2.95
  -4  -4   3   17.76    2.40
   3   4  -3   33.41    3.62
  -3  -4   3   31.28    2.86
   2   4  -3    1.34    1.63
  -2  -4   3   -0.11    1.05
  -2  -4   3    0.67    0.59
  -1  -4   3   25.64    2.35
  -1  -4   3   22.27    1.57
   0  -4   3   -0.37    0.96
   0  -4   3    0.80    0.70
   1  -4   3  236.16    7.79
   1  -4   3  231.35    7.22
   2  -4   3   95.18    4.34
   2  -4   3   99.93    4.50
   3  -4   3  103.95    4.90
   3  -4   3  102.58    4.71
   4  -4   3    1.43    1.21
   4  -4   3    1.02    1.46
   5  -4   3    1.05    1.46
   5  -4   3    1.26    1.33
   6  -4   3   18.30    2.86
   6  -4   3   20.42    2.60
   7  -4   3   27.86    3.68
  -8   4  -3    8.98    2.54
   8  -4   3    9.86    2.83
  -8   4  -3   12.74    2.80
  -9   4  -3    0.45    1.82
   9  -4   3    2.83    2.38
  -9   4  -3    4.02    2.07
  10  -4   3   -0.04    1.55
  11  -4   3    2.55    1.86
  12  -4   3   36.63    4.83
 -12  -3   3    7.01    3.44
 -11  -3   3   17.05    3.84
  11   3  -3   18.28    4.37
 -10  -3   3    2.90    2.61
  10   3  -3    5.30    3.11
  10   3  -3    5.99    1.97
   9   3  -3    3.91    1.58
   9   3  -3   -1.86    2.26
  -9  -3   3    2.07    2.17
  -8  -3   3  159.37    8.00
   8   3  -3  160.49    7.18
   8   3  -3  152.87    9.13
  -7  -3   3    9.90    2.43
   7   3  -3    8.55    1.94
   7   3  -3    9.41    2.91
   6   3  -3   49.07    4.79
  -6  -3   3   55.42    4.15
   6   3  -3   59.72    3.50
   5   3  -3    6.20    1.32
  -5  -3   3    5.09    1.71
   5   3  -3    6.10    2.22
   4   3  -3    2.32    1.81
  -4  -3   3    3.23    1.42
  -3  -3   3    0.10    1.04
   3   3  -3   -0.01    1.63
   2   3  -3   14.68    2.44
  -2  -3   3   14.87    1.89
  -1  -3   3    7.60    0.83
   1   3  -3   10.09    1.98
  -1  -3   3    8.19    1.51
   0  -3   3  240.24    6.66
   0   3  -3  241.46    8.07
   0  -3   3  236.55    7.47
   1  -3   3   25.61    1.76
   2  -3   3    2.71    1.12
   2  -3   3    0.96    0.99
   3  -3   3  112.36    4.78
   3  -3   3  115.59    5.00
   4  -3   3  200.46    7.17
   4  -3   3  188.71    7.37
   5  -3   3  197.16    7.44
   5  -3   3  189.64    7.76
   6  -3   3   35.71    3.26
   6  -3   3   33.80    3.52
   7  -3   3   19.85    3.19
  -7   3  -3   21.13    3.07
  -7   3  -3   20.78    3.08
  -8   3  -3    8.02    2.37
  -8   3  -3    7.60    2.40
   8  -3   3   10.66    2.67
   9  -3   3   20.84    3.40
  -9   3  -3   18.96    3.33
 -10   3  -3    4.42    2.26
  10  -3   3    1.18    1.77
  11  -3   3   56.79    5.65
  12  -3   3   10.13    3.11
  13  -3   3   42.35    5.41
 -11  -2   3   23.54    4.05
  11   2  -3   26.15    3.56
  10   2  -3    0.74    1.45
 -10  -2   3    2.80    2.27
  10   2  -3    1.30    2.54
   9   2  -3   18.82    2.88
   9   2  -3   28.76    4.46
  -9  -2   3   23.12    3.54
   8   2  -3    8.85    2.20
   8   2  -3   12.76    3.18
  -8  -2   3   11.66    2.46
   7   2  -3   52.87    4.96
  -7  -2   3   54.66    4.16
   7   2  -3   60.06    3.97
   6   2  -3   29.35    2.67
  -6  -2   3   25.16    2.87
   6   2  -3   26.85    3.50
  -5  -2   3   30.68    2.89
   5   2  -3   28.72    2.41
   5   2  -3   32.10    3.53
   4   2  -3    0.62    1.68
   4   2  -3    2.67    0.99
  -4  -2   3    1.73    1.29
  -3  -2   3    7.52    1.50
   3   2  -3    3.45    1.70
   3   2  -3    3.62    0.88
   2   2  -3    2.01    1.63
  -2  -2   3    0.39    0.95
  -1  -2   3   69.77    3.12
   1   2  -3   66.12    3.76
   0  -2   3   17.59    1.61
   0  -2   3   17.40    1.28
   0   2  -3   18.78    1.91
   1  -2   3    4.41    1.18
  -1   2  -3    6.48    1.18
   2  -2   3  120.63    4.55
   2  -2   3  113.51    4.46
   3  -2   3  123.39    4.86
   3  -2   3  117.86    4.90
   4  -2   3   88.39    4.47
   4  -2   3   82.41    4.13
   5  -2   3  272.72    7.89
   5  -2   3  256.43    8.99
   5  -2   3  269.88    9.56
  -6   2  -3    8.79    2.26
  -6   2  -3   11.30    2.26
   6  -2   3    9.79    1.37
   6  -2   3    6.97    2.02
  -7   2  -3   26.16    3.43
   7  -2   3   23.87    3.22
  -7   2  -3   27.30    3.40
  -8   2  -3   10.01    2.54
   8  -2   3    8.13    2.45
  -9   2  -3   62.28    4.96
   9  -2   3   65.50    5.25
  10  -2   3    3.20    1.89
 -10   2  -3    4.46    2.29
 -11   2  -3    3.80    2.54
  11  -2   3    4.34    2.26
  12  -2   3   11.90    2.97
  13  -2   3   -0.48    1.29
  12   1  -3    5.14    2.05
 -11  -1   3    4.63    2.49
  11   1  -3    5.27    2.22
  10   1  -3   14.97    2.88
 -10  -1   3   18.25    3.54
  10   1  -3   18.58    3.66
  -9  -1   3   40.54    4.35
   9   1  -3   27.53    4.26
   9   1  -3   35.79    3.83
   8   1  -3   41.16    3.85
   8   1  -3   42.26    4.63
  -8  -1   3   43.46    3.94
   7   1  -3   65.05    5.19
   7   1  -3   73.24    4.51
  -7  -1   3   71.70    4.62
   6   1  -3   52.64    4.38
  -6  -1   3   50.38    3.69
   6   1  -3   52.88    3.55
   5   1  -3   21.82    2.94
   5   1  -3   21.07    2.20
  -5  -1   3   21.33    2.43
   4   1  -3   34.91    3.23
   4   1  -3   33.48    2.45
  -4  -1   3   36.60    2.65
   3   1  -3   10.85    1.97
  -3  -1   3   11.29    1.63
   3   1  -3    9.51    1.37
  -2  -1   3    1.00    0.87
   2   1  -3    0.41    0.69
   2   1  -3    1.22    1.30
  -1  -1   3   11.49    1.22
   1   1  -3   13.63    1.58
   0   1  -3   -0.18    0.75
   0  -1   3   -0.39    0.67
   0  -1   3   -0.24    0.40
  -1   1  -3    0.04    0.56
   1  -1   3   -0.91    0.61
   1  -1   3    1.12    0.76
   2  -1   3  116.48    4.47
   2  -1   3  134.30    4.66
   3  -1   3  131.04    5.17
   3  -1   3  137.10    5.09
   4  -1   3   73.76    3.74
   4  -1   3   72.77    3.99
   5  -1   3  137.43    6.11
  -5   1  -3  143.78    6.55
  -5   1  -3  137.00    6.29
   6  -1   3   15.21    2.42
  -6   1  -3   11.92    2.37
  -6   1  -3   13.86    2.38
   7  -1   3   74.97    5.03
  -7   1  -3   77.39    5.00
   8  -1   3   13.52    2.73
  -8   1  -3    8.41    2.44
  -9   1  -3   45.93    4.65
   9  -1   3   51.51    4.71
 -10   1  -3    0.37    1.92
  10  -1   3    3.06    1.98
  11  -1   3    3.82    2.07
 -11   1  -3    4.19    2.47
  12  -1   3    7.43    2.71
 -12   1  -3   12.57    3.48
  13  -1   3   11.08    3.01
  13   0  -3    2.51    1.97
  12   0  -3   19.60    3.56
  11   0  -3    2.14    1.66
  10   0  -3   54.12    4.74
 -10   0   3   45.58    4.58
   9   0  -3    0.06    1.70
   9   0  -3    0.53    1.50
  -9   0   3   -0.01    1.62
   8   0  -3   12.87    2.51
   8   0  -3   14.37    2.97
  -8   0   3   16.56    2.81
   7   0  -3   45.83    4.27
   7   0  -3   34.88    3.52
  -7   0   3   40.44    3.44
   6   0  -3    5.00    1.76
   6   0  -3    5.88    1.75
  -6   0   3    5.45    1.60
   5   0  -3  179.52    6.63
   5   0  -3  165.86    7.24
  -5   0   3  169.86    6.47
   4   0  -3    4.23    1.48
   4   0  -3    2.35    1.09
   3   0  -3   47.46    2.62
   3   0  -3   49.28    3.23
   2   0  -3   35.57    2.50
  -2   0   3   27.05    1.73
   2   0  -3   37.30    1.95
   1   0  -3    7.02    0.73
   1   0  -3    6.44    1.22
   0   0   3    0.26    0.28
   1   0   3    3.22    0.81
   2   0   3   11.65    1.36
   2   0   3    9.48    1.34
  -3   0  -3    9.46    1.70
   3   0   3    9.58    1.68
  -3   0  -3    9.12    1.84
   4   0   3    6.47    1.64
  -4   0  -3    5.21    1.59
  -4   0  -3    8.49    1.82
   5   0   3   29.72    2.85
  -5   0  -3   26.42    3.05
  -5   0  -3   29.32    2.91
   6   0   3    8.71    2.02
  -6   0  -3    6.74    1.89
  -7   0  -3   78.66    5.11
   7   0   3   73.23    4.89
  -8   0  -3   52.48    4.49
   8   0   3   51.87    4.49
   9   0   3   54.47    4.72
  -9   0  -3   53.70    4.86
 -10   0  -3    4.27    2.48
  10   0   3    2.95    1.95
  11   0   3   24.20    3.71
 -11   0  -3   24.60    4.27
 -12   0  -3    0.95    2.73
  12   0   3   -1.00    1.68
 -13   0  -3    7.07    3.21
  14   0   3   11.24    3.33
  14  -1  -3    5.07    3.17
  13  -1  -3   31.58    4.76
  12  -1  -3    5.11    2.20
  11  -1  -3    7.53    2.46
  10  -1  -3   -1.13    1.42
  -9   1   3    1.97    1.11
   9  -1  -3    7.99    2.41
   8  -1  -3    6.56    2.15
  -8   1   3   -0.06    0.58
   8  -1  -3   -0.35    0.71
  -6   1   3  145.37    6.57
   6  -1  -3  195.72    7.58
   6  -1  -3  198.04    7.79
   5  -1  -3  144.60    6.42
   5  -1  -3  151.25    6.19
  -5   1   3  151.53    5.88
  -4   1   3   44.90    2.70
   4  -1  -3   42.47    3.10
   4  -1  -3   44.00    2.91
   3  -1  -3   10.74    1.52
  -3   1   3   14.76    1.49
   3  -1  -3   13.66    1.93
   2  -1  -3   97.70    3.72
  -2   1   3   93.50    3.15
   1  -1  -3   13.72    1.21
   0  -1  -3   28.60    1.60
  -1  -1  -3    5.89    1.00
  -1  -1  -3    8.63    1.12
  -2  -1  -3    7.41    1.28
  -2  -1  -3    8.86    1.48
  -3  -1  -3    1.16    1.12
   3   1   3    1.12    1.06
  -4  -1  -3   25.30    2.56
   4   1   3   28.06    2.44
  -5  -1  -3    3.54    1.50
   5   1   3    3.35    1.42
   6   1   3  141.24    6.35
  -6  -1  -3  151.50    6.93
   7   1   3   55.73    4.08
  -7  -1  -3   53.00    4.24
  -8  -1  -3   90.86    5.88
   8   1   3   84.20    5.37
  -9  -1  -3    1.37    1.90
   9   1   3    0.43    1.50
  10   1   3   -2.87    1.28
 -10  -1  -3   -0.90    1.85
 -11  -1  -3   34.16    4.82
  11   1   3   28.74    3.90
 -12  -1  -3    1.78    2.61
  12   1   3    6.77    2.28
  13   1   3   -1.74    1.45
 -13  -1  -3    3.79    3.02
  14   1   3    4.82    2.23
  13  -2  -3    7.56    2.67
  12  -2  -3    7.90    2.80
  11  -2  -3   -1.43    1.43
  10  -2  -3    0.32    1.77
   9  -2  -3   22.81    3.52
  -8   2   3   33.66    3.43
   8  -2  -3   34.83    4.00
   8  -2  -3   42.36    3.81
  -7   2   3   32.08    2.87
   7  -2  -3   32.46    3.23
   7  -2  -3   32.38    3.52
   6  -2  -3    4.71    1.81
   6  -2  -3    5.82    1.43
  -6   2   3    7.56    1.52
   5  -2  -3    3.69    1.49
  -5   2   3    4.28    1.25
  -4   2   3   67.70    3.20
   4  -2  -3   67.59    3.80
   3  -2  -3  117.01    4.80
  -3   2   3  115.00    4.07
   2  -2  -3   16.39    1.76
   1  -2  -3  144.67    4.88
   0  -2  -3   20.81    1.24
   0  -2  -3   21.42    1.65
  -1  -2  -3    6.76    1.10
  -2  -2  -3   12.80    1.62
  -3  -2  -3   -0.42    0.96
  -4  -2  -3   20.11    2.34
   5   2   3   54.92    3.49
  -5  -2  -3   61.22    3.97
   6   2   3    1.26    1.29
  -6  -2  -3    1.04    1.35
   7   2   3    2.72    1.64
  -7  -2  -3    3.34    1.80
   8   2   3   16.62    2.82
  -8  -2  -3   16.10    3.15
   9   2   3   44.39    4.39
  -9  -2  -3   48.68    5.23
  10   2   3   41.06    4.45
 -10  -2  -3   51.08    5.44
  11   2   3    7.95    2.51
 -11  -2  -3   15.51    3.95
 -12  -2  -3    9.32    3.71
  12   2   3   11.32    3.00
 -13  -2  -3    6.03    3.43
  13   2   3    6.79    2.24
 -14  -2  -3    1.09    2.52
  13  -3  -3    1.50    1.59
  12  -3  -3    0.59    2.01
  11  -3  -3    4.23    2.33
  10  -3  -3    1.42    2.11
   9  -3  -3    9.38    2.81
   8  -3  -3   20.25    3.29
   7  -3  -3   45.88    4.14
   7  -3  -3   51.37    3.80
  -7   3   3   46.95    3.28
   6  -3  -3    2.38    1.68
  -6   3   3    2.58    1.08
   6  -3  -3    2.09    1.27
   5  -3  -3   29.44    3.04
  -5   3   3   29.07    2.30
   5  -3  -3   28.80    2.73
  -4   3   3  178.67    6.09
  -4   3   3  175.63    6.15
   4  -3  -3  170.49    6.81
   3  -3  -3    9.79    1.73
   3  -3  -3    8.91    1.23
   2  -3  -3  104.43    4.47
   1  -3  -3  256.34    7.93
   0  -3  -3   -0.09    0.69
   0  -3  -3   -0.22    0.92
  -1  -3  -3   -0.96    0.78
  -1  -3  -3   -0.50    0.94
  -2  -3  -3    7.95    1.46
  -3  -3  -3   10.80    1.86
  -4  -3  -3   24.66    2.61
  -5  -3  -3    2.20    1.52
  -6  -3  -3   -0.18    1.32
  -7  -3  -3   14.62    2.78
  -8  -3  -3   47.94    4.87
  -9  -3  -3   59.87    5.45
 -10  -3  -3  131.72    8.36
 -11  -3  -3   11.06    3.65
 -12  -3  -3   16.24    4.27
 -13  -3  -3    5.03    3.29
 -14  -3  -3   11.18    3.53
  12  -4  -3   23.63    4.26
  11  -4  -3   13.68    3.49
  10  -4  -3   20.72    3.92
   9  -4  -3   -0.84    1.57
   8  -4  -3   22.31    3.46
   7  -4  -3   22.50    3.33
  -6   4   3    3.91    1.21
   6  -4  -3    5.39    1.95
  -5   4   3   22.19    2.14
  -5   4   3   19.63    2.05
   5  -4  -3   19.70    2.30
   5  -4  -3   15.41    2.55
   4  -4  -3   65.79    4.14
   4  -4  -3   64.01    3.07
   3  -4  -3  321.43   10.28
   3  -4  -3  300.12    8.71
   2  -4  -3  180.38    6.59
   2  -4  -3  170.63    5.32
   1  -4  -3   27.05    1.74
   1  -4  -3   25.02    2.25
   0  -4  -3   -1.01    0.77
   0  -4  -3    0.15    0.96
  -1  -4  -3   24.85    2.05
  -1  -4  -3   24.37    2.14
  -2  -4  -3   15.25    1.89
  -3  -4  -3    0.94    1.18
  -4  -4  -3    4.52    1.50
  -5  -4  -3   22.25    2.78
  -6  -4  -3    2.80    1.67
  -7  -4  -3   11.16    2.68
  -8  -4  -3   27.96    3.99
  -9  -4  -3   37.12    4.80
 -10  -4  -3   29.18    4.57
 -11  -4  -3    5.53    2.94
 -12  -4  -3   16.92    4.21
 -13  -4  -3    5.33    3.38
 -14  -4  -3   19.89    5.03
  12  -5  -3    8.86    2.95
  11  -5  -3   37.69    4.87
  10  -5  -3    1.79    2.16
   9  -5  -3    0.68    1.96
   7  -5  -3    4.63    2.17
   6  -5  -3  126.90    6.00
   6  -5  -3  117.24    6.68
   5  -5  -3   79.33    4.96
   5  -5  -3   75.94    3.68
   4  -5  -3    8.92    1.40
   4  -5  -3    7.85    1.93
   3  -5  -3    1.08    0.84
   3  -5  -3    1.02    1.22
   2  -5  -3   33.54    2.16
   2  -5  -3   34.81    2.92
   1  -5  -3    4.20    1.04
   1  -5  -3    3.19    1.25
   0  -5  -3  142.09    5.12
   0  -5  -3  144.26    5.68
  -1  -5  -3   14.40    1.74
  -1  -5  -3   14.14    1.77
  -2  -5  -3   34.83    2.74
  -2  -5  -3   39.19    2.88
  -3  -5  -3    3.43    1.47
  -4  -5  -3   14.21    2.26
  -5  -5  -3   40.78    3.60
  -6  -5  -3   33.88    3.72
  -7  -5  -3    2.78    2.14
  -8  -5  -3   27.10    4.15
  -9  -5  -3   10.05    3.26
 -10  -5  -3   -0.22    2.44
 -11  -5  -3   30.24    5.07
 -12  -5  -3   31.56    4.88
 -13  -5  -3    8.45    3.73
 -14  -5  -3   20.76    5.43
  11  -6  -3   12.41    3.44
  10  -6  -3    4.25    2.38
   9  -6  -3    0.06    1.61
   8  -6  -3   32.63    4.27
   7  -6  -3    1.75    1.82
   6  -6  -3   15.13    2.95
   5  -6  -3    1.79    1.78
   4  -6  -3   10.72    2.31
   4  -6  -3    8.59    1.43
   3  -6  -3    1.96    1.48
   3  -6  -3   -0.41    0.89
   2  -6  -3  129.39    4.92
   2  -6  -3  124.40    5.91
   1  -6  -3  351.36   10.37
   1  -6  -3  351.22   11.40
   0  -6  -3  142.67    6.10
   0  -6  -3  151.85    5.63
  -1  -6  -3   83.44    4.29
  -1  -6  -3   74.42    3.91
  -2  -6  -3    6.75    1.55
  -2  -6  -3    6.11    1.46
  -3  -6  -3   37.44    3.14
  -3  -6  -3   40.17    3.55
  -4  -6  -3    7.07    2.00
  -5  -6  -3   34.24    3.66
  -6  -6  -3    1.09    1.49
  -7  -6  -3   39.55    4.30
  -8  -6  -3    3.46    2.28
  -9  -6  -3    0.42    2.23
 -10  -6  -3   15.54    3.89
 -11  -6  -3   31.81    5.24
 -12  -6  -3   22.22    4.71
 -13  -6  -3    2.11    2.89
  11  -7  -3    4.26    2.24
  10  -7  -3   17.83    3.70
   9  -7  -3   98.30    7.16
   8  -7  -3    9.42    2.85
   7  -7  -3   33.26    4.33
   6  -7  -3   12.91    2.93
   5  -7  -3    1.88    1.85
   4  -7  -3   71.92    5.06
   3  -7  -3   61.44    4.40
   3  -7  -3   59.74    3.37
   2  -7  -3   99.61    4.53
   2  -7  -3   98.72    5.43
   1  -7  -3    1.90    1.18
   1  -7  -3    3.17    1.49
   0  -7  -3    0.36    1.13
   0  -7  -3    0.87    1.07
  -1  -7  -3   40.05    3.14
  -1  -7  -3   41.03    3.18
  -2  -7  -3   87.43    4.55
  -2  -7  -3   91.74    4.83
  -3  -7  -3   -0.02    1.29
  -3  -7  -3    0.52    1.23
  -4  -7  -3   18.09    2.81
  -4  -7  -3    8.98    2.15
  -5  -7  -3    1.25    1.54
  -6  -7  -3   -0.74    1.43
  -7  -7  -3    8.15    2.72
  -8  -7  -3    5.29    2.56
  -9  -7  -3    6.80    2.96
 -10  -7  -3   16.38    4.39
 -11  -7  -3    2.39    3.14
 -12  -7  -3    5.97    3.97
 -13  -7  -3    2.28    3.04
  10  -8  -3    9.10    3.27
   9  -8  -3   -0.58    1.89
   8  -8  -3   19.88    3.85
   7  -8  -3    8.50    2.89
   6  -8  -3    6.88    2.69
   5  -8  -3   15.01    2.99
   4  -8  -3   14.13    2.83
   3  -8  -3    4.46    1.94
   2  -8  -3    6.33    1.71
   2  -8  -3    3.71    1.92
   1  -8  -3   29.89    3.19
   1  -8  -3   32.49    2.91
   0  -8  -3   62.41    4.24
   0  -8  -3   62.68    3.94
  -1  -8  -3   64.63    4.19
  -1  -8  -3   74.20    4.45
  -2  -8  -3    8.20    2.00
  -2  -8  -3    9.81    2.15
  -3  -8  -3  118.34    6.16
  -3  -8  -3  124.54    6.02
  -4  -8  -3    0.63    1.17
  -4  -8  -3   -0.39    1.38
  -5  -8  -3    0.50    1.38
  -5  -8  -3    1.18    1.60
  -6  -8  -3    2.28    1.75
  -7  -8  -3   18.88    3.49
  -8  -8  -3    6.92    2.70
  -9  -8  -3   60.91    6.24
 -10  -8  -3   -2.48    2.17
 -11  -8  -3    0.41    3.06
 -12  -8  -3    0.37    2.96
   9  -9  -3   -1.61    1.02
   8  -9  -3   18.26    3.84
   7  -9  -3   42.48    5.18
   6  -9  -3   10.54    3.07
   5  -9  -3   74.32    5.76
   4  -9  -3   -0.73    1.48
   3  -9  -3    3.52    2.05
   2  -9  -3   29.54    3.07
   2  -9  -3   21.94    3.18
   1  -9  -3   16.89    2.48
   1  -9  -3   17.02    2.76
   0  -9  -3   10.66    2.18
   0  -9  -3    7.32    2.13
  -1  -9  -3   14.13    2.44
  -1  -9  -3   12.20    2.36
  -2  -9  -3  130.19    6.45
  -2  -9  -3  132.91    6.56
  -3  -9  -3   37.18    3.58
  -3  -9  -3   33.87    3.64
  -4  -9  -3    2.64    1.58
  -4  -9  -3    1.89    1.64
  -5  -9  -3   -0.91    1.14
  -5  -9  -3    0.53    1.49
  -6  -9  -3   16.84    3.20
  -6  -9  -3   14.77    2.84
  -7  -9  -3    9.80    2.90
  -8  -9  -3   17.76    3.60
  -9  -9  -3    1.07    2.00
 -10  -9  -3    4.23    3.15
 -11  -9  -3    5.75    3.42
 -12  -9  -3   -2.67    2.43
   8 -10  -3    0.94    1.99
   7 -10  -3   13.24    3.61
   6 -10  -3   36.81    4.88
   5 -10  -3   17.05    3.44
   4 -10  -3   21.21    3.64
   3 -10  -3    6.39    2.33
   2 -10  -3   17.63    3.03
   1 -10  -3   57.10    4.74
   1 -10  -3   63.68    4.39
   0 -10  -3   43.57    4.19
   0 -10  -3   44.99    3.80
  -1 -10  -3   71.83    5.05
  -1 -10  -3   76.76    4.99
  -2 -10  -3    6.47    2.11
  -2 -10  -3    5.34    2.00
  -3 -10  -3   10.91    2.65
  -3 -10  -3   16.33    2.77
  -4 -10  -3    1.16    1.50
  -4 -10  -3    1.69    1.70
  -5 -10  -3   27.68    3.43
  -5 -10  -3   23.82    3.53
  -6 -10  -3    8.09    2.44
  -6 -10  -3    6.27    2.29
  -7 -10  -3   34.55    4.38
  -8 -10  -3   -0.67    1.46
  -9 -10  -3    5.04    2.57
 -10 -10  -3   27.99    4.73
 -11 -10  -3   -0.95    1.75
   8 -11  -3    0.22    1.96
   7 -11  -3    1.99    1.71
   6 -11  -3    1.54    2.12
   5 -11  -3   -0.93    1.74
   4 -11  -3    8.60    2.91
   3 -11  -3   40.98    4.76
   2 -11  -3    8.31    2.46
   1 -11  -3   10.98    2.68
   0 -11  -3    2.87    1.96
   0 -11  -3    7.10    1.96
  -1 -11  -3    0.74    1.49
  -1 -11  -3    2.04    1.77
  -2 -11  -3    6.09    2.17
  -2 -11  -3    5.97    2.02
  -3 -11  -3   43.76    4.23
  -3 -11  -3   31.71    4.01
  -4 -11  -3  246.24   11.00
  -4 -11  -3  256.65   10.52
  -5 -11  -3    3.76    2.05
  -6 -11  -3   32.60    4.45
  -7 -11  -3   -0.94    1.46
  -8 -11  -3    3.44    1.86
  -9 -11  -3   16.71    3.62
 -10 -11  -3   38.31    5.24
 -11 -11  -3   -0.66    1.82
   7 -12  -3    1.69    2.38
   6 -12  -3    0.76    2.07
   5 -12  -3   10.08    3.07
   4 -12  -3   33.07    4.62
   3 -12  -3   26.31    4.17
   2 -12  -3   68.77    5.71
   1 -12  -3   -0.09    1.57
   0 -12  -3    6.94    2.41
  -1 -12  -3   46.92    4.08
  -1 -12  -3   45.11    4.60
  -2 -12  -3   10.62    2.72
  -2 -12  -3   20.13    3.40
  -3 -12  -3   31.65    3.97
  -3 -12  -3   20.31    3.41
  -4 -12  -3    2.09    1.71
  -5 -12  -3    1.47    1.77
  -6 -12  -3    2.40    1.97
  -7 -12  -3    3.92    2.11
  -8 -12  -3    0.40    1.72
  -9 -12  -3    6.51    2.75
 -10 -12  -3    9.41    3.17
   5 -13  -3   12.33    3.39
   4 -13  -3    2.90    2.43
   3 -13  -3   27.66    4.57
   2 -13  -3    0.76    2.13
   1 -13  -3    0.28    1.84
   0 -13  -3    6.59    2.66
  -1 -13  -3   -0.85    1.50
  -2 -13  -3   -0.68    1.57
  -3 -13  -3    1.28    1.70
  -4 -13  -3    7.45    2.68
  -5 -13  -3   19.11    3.72
  -6 -13  -3   57.66    6.03
  -7 -13  -3    0.86    1.74
  -8 -13  -3   26.39    4.39
  -9 -13  -3    0.09    1.78
   4 -14  -3    2.54    2.56
   3 -14  -3   -3.75    1.90
   2 -14  -3    0.21    2.05
   1 -14  -3   29.03    4.25
  -3 -14  -3    4.52    2.64
  -4 -14  -3    6.06    2.52
  -5 -14  -3    1.27    2.13
  -6 -14  -3   -2.11    1.80
  -7 -14  -3   38.76    5.45
  -8 -14  -3    2.74    2.03
   3 -15  -3    2.05    3.17
  -4 -15  -3    4.24    2.54
  -5 -15  -3    7.48    3.02
  -6 -15  -3   16.47    3.78
  -3 -15   4   15.43    3.72
  -2 -15   4   15.05    3.67
  -1 -15   4   46.45    5.36
  -6 -14   4    2.31    2.30
  -5 -14   4    3.98    2.58
  -4 -14   4   21.77    4.20
  -3 -14   4    1.87    2.15
  -2 -14   4    9.10    2.52
  -1 -14   4   18.70    3.66
   0 -14   4    1.23    1.51
   1 -14   4   15.39    3.30
  -7 -13   4   12.01    4.02
  -6 -13   4    4.19    2.84
  -5 -13   4    7.49    2.77
  -4 -13   4   15.64    3.65
  -3 -13   4   15.71    3.65
  -2 -13   4    8.04    2.74
  -1 -13   4    1.18    1.58
   0 -13   4    9.70    2.78
   1 -13   4   55.39    5.51
   2 -13   4   74.43    6.03
  -9 -12   4   -1.35    2.01
  -8 -12   4    4.03    2.55
  -7 -12   4   -1.35    1.67
  -6 -12   4   52.17    6.02
  -5 -12   4    6.11    3.08
  -4 -12   4   13.50    3.68
  -3 -12   4   -1.22    1.84
  -2 -12   4    7.61    2.79
  -1 -12   4   -0.69    1.40
   0 -12   4   17.62    3.33
   1 -12   4  119.51    7.31
   2 -12   4   14.48    2.93
   3 -12   4    3.56    1.98
   5 -12   4   13.12    3.47
   6 -12   4   -0.02    2.11
   7 -12   4   34.88    5.33
 -10 -11   4   -2.23    2.14
  -9 -11   4   -0.35    1.99
  -8 -11   4    1.67    2.65
  -7 -11   4   31.56    4.85
  -6 -11   4   -1.04    1.84
  -5 -11   4   -1.31    1.77
  -4 -11   4    3.14    2.38
  -3 -11   4   14.07    3.22
  -2 -11   4    1.66    1.77
  -1 -11   4   58.93    5.00
   0 -11   4   24.45    3.53
   1 -11   4    5.38    2.12
   2 -11   4    0.34    1.40
   3 -11   4   37.95    4.29
   3 -11   4   31.78    4.16
   4 -11   4   43.32    4.91
   4 -11   4   35.81    3.94
   5 -11   4   11.71    3.25
   6 -11   4   10.00    3.13
   7 -11   4    5.53    2.82
   8 -11   4    0.44    2.80
 -11 -10   4   -2.41    2.50
 -10 -10   4   -2.09    2.02
  -9 -10   4    0.65    2.59
  -8 -10   4   17.86    4.26
  -7 -10   4    1.24    2.42
  -6 -10   4   10.93    3.22
  -5 -10   4    2.58    1.95
  -4 -10   4  133.52    7.89
  -3 -10   4   29.07    4.08
  -2 -10   4   50.95    4.84
  -1 -10   4    2.46    1.70
   0 -10   4    3.10    1.59
   1 -10   4    4.11    1.94
   2 -10   4   28.12    3.52
   2 -10   4   24.39    3.32
   3 -10   4   72.21    5.50
   3 -10   4   84.15    5.50
   4 -10   4   43.75    4.07
   4 -10   4   54.05    5.06
   5 -10   4   50.40    5.09
   5 -10   4   38.54    4.14
   6 -10   4    4.53    2.45
   7 -10   4    1.23    2.28
   8 -10   4   -0.69    2.03
   9 -10   4   53.89    6.73
 -11  -9   4   -0.49    2.08
 -10  -9   4    5.44    3.70
  -9  -9   4   28.82    5.13
  -8  -9   4    4.98    2.98
  -7  -9   4    1.07    2.04
  -6  -9   4    4.09    2.72
  -5  -9   4   16.66    3.39
  -4  -9   4    7.76    2.62
  -3  -9   4   32.51    4.05
  -2  -9   4   40.76    4.25
  -1  -9   4    0.08    1.50
   0  -9   4    4.60    1.83
   0  -9   4    2.79    1.56
   1  -9   4   41.99    3.77
   2  -9   4   12.04    2.49
   2  -9   4    9.55    2.29
   3  -9   4   -0.02    1.78
   3  -9   4    0.22    1.32
   4  -9   4   48.21    4.14
   4  -9   4   50.01    4.71
   5  -9   4    4.85    2.09
   5  -9   4    1.80    1.97
   6  -9   4    3.68    1.89
   6  -9   4    4.73    2.45
   7  -9   4   11.41    3.05
   8  -9   4   14.87    3.58
   9  -9   4    2.52    2.61
 -12  -8   4    7.96    3.78
 -11  -8   4    0.84    2.89
 -10  -8   4   12.97    4.19
  -9  -8   4    2.22    2.74
  -8  -8   4   21.44    4.18
  -7  -8   4    3.59    2.61
  -6  -8   4   23.71    3.88
  -5  -8   4    4.53    2.35
  -4  -8   4   62.32    4.94
  -3  -8   4    3.33    1.75
  -2  -8   4   39.35    3.98
  -1  -8   4    1.75    1.47
  -1  -8   4    2.09    1.10
   0  -8   4   73.33    4.82
   0  -8   4   70.90    4.04
   1  -8   4   -0.25    0.62
   1  -8   4    6.49    2.08
   2  -8   4   32.41    3.29
   2  -8   4   34.27    3.51
   3  -8   4   28.51    3.31
   3  -8   4   26.50    3.31
   4  -8   4   12.43    2.47
   4  -8   4    9.62    2.59
   5  -8   4    3.39    2.13
   5  -8   4    5.05    1.95
   6  -8   4   69.25    5.49
   6  -8   4   72.48    4.88
   7  -8   4   83.08    6.44
   8  -8   4   -1.27    1.76
   9  -8   4   18.78    3.93
  10  -8   4   -0.96    1.27
 -13  -7   4   11.13    4.45
 -12  -7   4   -3.54    2.52
 -11  -7   4    4.29    3.13
 -10  -7   4    2.34    2.78
  -9  -7   4   12.58    3.65
  -8  -7   4    3.39    2.58
  -7  -7   4  133.71    7.78
  -6  -7   4    0.55    2.07
  -5  -7   4   47.95    4.59
  -4  -7   4    0.95    1.47
  -3  -7   4    0.74    1.00
  -3  -7   4    3.68    1.89
  -2  -7   4   11.12    1.53
  -2  -7   4    9.84    2.33
  -1  -7   4  117.60    6.02
  -1  -7   4  121.30    4.89
   0  -7   4   89.18    4.24
   0  -7   4   91.76    5.17
   2  -7   4    4.94    1.74
   2  -7   4    4.41    1.86
   3  -7   4    8.65    2.15
   3  -7   4    6.20    2.02
   4  -7   4   -0.02    1.45
   4  -7   4    0.46    1.58
   5  -7   4   -0.84    1.62
   5  -7   4   -2.22    1.03
   6  -7   4   95.06    6.30
   6  -7   4   94.52    5.50
   7  -7   4    3.68    1.82
   7  -7   4    2.73    2.08
   8  -7   4    6.20    2.53
   9  -7   4    0.20    1.98
  10  -7   4    9.09    3.27
  11  -7   4    0.85    1.76
 -13  -6   4    9.19    3.34
 -12  -6   4    0.94    3.08
 -11  -6   4   -0.02    2.91
 -10  -6   4   20.44    4.08
  -9  -6   4    5.82    2.86
  -8  -6   4   59.10    5.68
   8   6  -4   59.53    6.56
  -7  -6   4   -0.99    1.66
   7   6  -4    1.35    2.95
   6   6  -4    9.21    3.39
  -6  -6   4   10.31    2.69
  -5  -6   4   28.22    3.55
   5   6  -4   21.96    3.90
  -4  -6   4    0.75    1.00
  -4  -6   4    4.00    1.86
  -3  -6   4   21.29    2.80
  -2  -6   4   85.88    3.41
  -2  -6   4   73.06    4.57
  -1  -6   4    4.01    1.57
  -1  -6   4    1.90    0.90
   0  -6   4    0.92    1.37
   0  -6   4   -0.24    0.87
   2  -6   4   57.95    3.76
   2  -6   4   57.72    3.88
   3  -6   4    5.49    1.67
   3  -6   4    1.26    1.52
   4  -6   4   53.44    3.92
   4  -6   4   49.52    3.97
   5  -6   4   72.08    5.10
   5  -6   4   80.55    4.85
   6  -6   4    1.66    1.30
   6  -6   4    4.26    2.18
   7  -6   4    3.97    1.93
   7  -6   4    4.31    2.29
   8  -6   4   25.50    3.92
   8  -6   4   25.43    3.29
   9  -6   4   47.24    5.32
  10  -6   4    0.93    2.20
  11  -6   4   -1.27    1.44
 -13  -5   4   -3.72    2.97
 -12  -5   4    1.49    3.19
 -11  -5   4   24.62    4.79
  10   5  -4    7.92    3.56
 -10  -5   4    9.51    3.63
  -9  -5   4   19.06    4.00
   9   5  -4   22.60    4.57
  -8  -5   4    0.33    2.11
   8   5  -4   -0.80    2.69
  -7  -5   4   10.70    2.91
   7   5  -4   11.53    3.63
  -6  -5   4    4.91    2.17
   6   5  -4    5.38    2.97
  -5  -5   4  237.41    9.44
   5   5  -4  236.61   11.19
  -4  -5   4    6.74    1.99
   4   5  -4    4.66    2.27
  -3  -5   4  113.41    5.54
   3   5  -4  109.99    6.66
  -3  -5   4  113.27    3.96
   2   5  -4    4.12    1.94
  -2  -5   4    1.73    0.84
  -2  -5   4    2.52    1.44
  -1  -5   4   45.77    3.32
  -1  -5   4   49.02    2.42
   0  -5   4   14.05    1.50
   0  -5   4   10.37    1.85
   2  -5   4   84.76    4.26
   2  -5   4   80.59    4.38
   3  -5   4   53.79    3.66
   3  -5   4   48.04    3.42
   4  -5   4   15.79    2.50
   4  -5   4   12.97    2.22
   5  -5   4    1.17    1.62
   5  -5   4    3.76    1.71
   6  -5   4   20.13    3.08
   6  -5   4   21.89    2.87
   7  -5   4   10.66    2.74
   7  -5   4    7.81    2.07
   8  -5   4   37.79    4.48
  -9   5  -4   15.16    3.20
   9  -5   4   12.78    3.06
  -9   5  -4   14.04    3.28
  10  -5   4   40.35    5.01
  11  -5   4   -0.97    1.87
  12  -5   4    2.83    1.93
 -12  -4   4   14.44    3.84
  11   4  -4   27.70    4.99
 -11  -4   4   24.47    4.30
 -10  -4   4   45.20    5.13
  10   4  -4   37.06    5.52
  -9  -4   4    1.77    2.32
   9   4  -4   -0.14    2.59
   8   4  -4    3.82    2.82
  -8  -4   4    5.04    2.49
  -7  -4   4    0.46    1.72
   7   4  -4   -1.10    2.12
  -6  -4   4   16.36    2.76
   6   4  -4   12.59    3.16
  -5  -4   4   27.83    3.09
   5   4  -4   25.90    3.77
  -4  -4   4  144.76    6.34
   4   4  -4  139.09    7.60
  -3  -4   4    1.55    1.27
   3   4  -4   -0.04    1.36
   2   4  -4   -0.70    1.51
  -2  -4   4    1.83    0.71
  -2  -4   4    3.76    1.37
   1   4  -4   17.38    2.50
  -1  -4   4   19.32    2.15
  -1  -4   4   20.07    1.45
   0  -4   4   44.76    2.98
   0  -4   4   47.63    2.40
   2  -4   4   27.82    2.43
   2  -4   4   31.07    2.64
   3  -4   4   68.03    3.81
   3  -4   4   68.09    3.92
   4  -4   4    1.54    1.33
   4  -4   4    4.90    1.71
   5  -4   4    3.61    1.70
   5  -4   4    5.14    1.64
   6  -4   4   46.06    3.63
   6  -4   4   49.04    4.25
   7  -4   4   47.48    3.82
   7  -4   4   49.44    4.53
  -8   4  -4    5.65    2.36
  -8   4  -4    3.56    2.33
   8  -4   4    4.84    2.32
  -9   4  -4   21.05    3.54
   9  -4   4   21.45    3.67
  -9   4  -4   18.07    3.58
  10  -4   4   -1.31    1.64
 -10   4  -4   -0.36    2.04
  11  -4   4   14.91    3.39
  12  -4   4    2.23    2.13
 -12  -3   4   30.32    4.75
  11   3  -4    3.34    3.10
 -11  -3   4    3.29    2.81
 -10  -3   4   32.40    4.56
  10   3  -4   31.96    5.21
  -9  -3   4   16.91    3.46
   9   3  -4   26.86    4.47
   9   3  -4   17.31    2.65
   8   3  -4   65.69    4.27
   8   3  -4   50.30    5.58
  -8  -3   4   51.42    4.72
   7   3  -4   51.97    5.34
   7   3  -4   49.95    3.55
  -7  -3   4   53.16    4.27
   6   3  -4   16.97    2.07
  -6  -3   4   17.24    2.66
   6   3  -4   15.85    3.23
  -5  -3   4   64.39    4.26
   5   3  -4   50.49    4.79
   5   3  -4   58.99    3.06
   4   3  -4   -0.40    1.49
  -4  -3   4    0.27    1.09
  -3  -3   4   12.32    1.90
   3   3  -4   15.66    2.67
   2   3  -4   63.28    4.41
  -2  -3   4   63.92    3.48
   1   3  -4   28.56    2.85
  -1  -3   4   28.96    2.39
   0   3  -4    3.17    1.45
   0  -3   4    2.42    0.80
   0  -3   4    3.99    1.26
   1  -3   4  399.05   11.45
  -1   3  -4  378.41   11.33
   2  -3   4   56.44    3.18
   2  -3   4   52.24    2.97
   3  -3   4   86.55    4.21
   3  -3   4   79.05    4.10
   4  -3   4   16.35    2.19
   4  -3   4   13.02    2.02
   5  -3   4   14.83    2.19
   5  -3   4   15.48    2.40
   6  -3   4   27.82    3.33
   6  -3   4   33.10    3.24
  -7   3  -4    8.98    2.36
  -7   3  -4    9.42    2.40
   7  -3   4    9.28    2.45
  -8   3  -4   80.02    5.50
   8  -3   4   65.82    5.28
  -8   3  -4   67.67    5.11
  -9   3  -4   10.93    3.01
   9  -3   4    8.33    2.61
  -9   3  -4   14.86    3.11
  10  -3   4    0.47    1.58
 -10   3  -4    4.30    2.46
  11  -3   4    6.40    2.60
 -11   3  -4    6.86    2.79
  12  -3   4   71.91    6.36
  13  -3   4    4.50    2.04
  11   2  -4    4.09    2.72
 -11  -2   4   -2.75    1.88
  11   2  -4   -0.39    1.26
 -10  -2   4   13.68    3.20
  10   2  -4   16.96    3.82
  10   2  -4   21.02    3.03
   9   2  -4   10.19    2.30
  -9  -2   4    9.07    2.64
   9   2  -4    8.52    3.24
   8   2  -4   86.38    6.68
  -8  -2   4   84.84    5.42
   8   2  -4   75.03    4.86
   7   2  -4    6.63    1.90
  -7  -2   4   12.16    2.38
   7   2  -4    8.39    2.75
  -6  -2   4   28.28    3.04
   6   2  -4   28.92    2.64
   6   2  -4   29.54    3.75
  -5  -2   4    1.13    1.24
   5   2  -4    3.15    1.20
   5   2  -4    4.18    2.02
   4   2  -4   12.43    2.46
  -4  -2   4   16.14    2.02
   4   2  -4   18.66    1.71
   3   2  -4   69.79    4.57
   3   2  -4   74.88    2.82
  -3  -2   4   64.00    3.53
   2   2  -4  171.51    7.05
  -2  -2   4  164.01    5.79
  -1  -2   4   14.73    1.68
   1   2  -4   10.17    2.01
   0  -2   4    2.48    0.85
   0  -2   4    1.76    1.09
   0   2  -4    3.62    1.36
  -1   2  -4    3.63    1.12
   1  -2   4    5.72    1.32
   3  -2   4    5.98    1.50
   3  -2   4    2.30    1.21
   4  -2   4  155.74    6.07
   4  -2   4  149.23    6.22
   5  -2   4   48.45    3.61
   5  -2   4   46.06    3.30
  -6   2  -4  111.84    6.03
   6  -2   4   94.56    5.52
  -6   2  -4  109.08    5.92
  -7   2  -4    0.56    1.51
  -7   2  -4    0.13    1.38
   7  -2   4    2.31    1.82
   8  -2   4   27.08    3.62
  -8   2  -4   26.99    3.69
  -8   2  -4   35.69    4.12
   9  -2   4   -0.25    1.62
  -9   2  -4   -0.73    1.64
 -10   2  -4    2.69    2.25
  10  -2   4    4.41    2.27
 -11   2  -4    2.18    2.52
  11  -2   4    3.36    2.36
  12  -2   4    1.01    1.59
 -12   2  -4    1.70    2.32
  13  -2   4    6.11    2.48
  12   1  -4    1.03    1.54
  11   1  -4    9.45    2.51
  10   1  -4   22.99    4.18
  10   1  -4   17.54    2.93
 -10  -1   4   19.63    3.42
   9   1  -4   38.41    5.00
  -9  -1   4   49.07    4.54
   9   1  -4   45.68    4.22
  -8  -1   4   30.24    3.40
   8   1  -4   35.18    4.33
   8   1  -4   35.40    3.58
  -7  -1   4    2.25    1.58
   7   1  -4    4.28    2.14
   7   1  -4    5.32    1.85
  -6  -1   4   10.30    1.92
   6   1  -4   11.91    1.97
   6   1  -4   11.40    2.48
  -5  -1   4   27.12    2.56
   5   1  -4   30.07    2.50
   5   1  -4   23.53    3.02
  -4  -1   4   -0.12    0.98
   4   1  -4   -0.84    0.86
   4   1  -4   -0.16    1.24
  -3  -1   4   22.28    1.95
   3   1  -4   15.06    2.14
   3   1  -4   19.25    1.65
   2   1  -4    1.92    0.71
  -2  -1   4    0.72    0.90
   2   1  -4    1.01    1.37
   1   1  -4  655.62   17.75
  -1  -1   4  614.69   16.36
   0   1  -4   75.40    3.31
   0  -1   4   77.46    3.05
   1  -1   4    7.34    1.17
  -1   1  -4    3.87    0.92
   2  -1   4   22.38    2.06
   2  -1   4   22.31    1.99
   3  -1   4  392.50   11.71
   3  -1   4  419.71   11.82
   4  -1   4    6.01    1.61
   4  -1   4    3.76    1.32
  -5   1  -4   60.90    4.10
   5  -1   4   61.61    3.99
  -5   1  -4   59.00    4.05
  -6   1  -4   40.61    3.62
   6  -1   4   42.31    3.53
  -6   1  -4   35.20    3.39
  -7   1  -4   20.24    3.08
  -7   1  -4   30.50    3.64
   7  -1   4   29.05    3.41
   8  -1   4    8.59    2.56
  -8   1  -4    8.64    2.59
   9  -1   4   14.87    3.00
  -9   1  -4   11.94    3.03
  10  -1   4   70.01    5.56
 -10   1  -4   70.35    5.71
 -11   1  -4    5.24    2.60
  11  -1   4    3.36    2.19
 -12   1  -4    1.51    2.42
  12  -1   4    5.50    2.18
  13  -1   4    3.53    1.97
  13   0  -4    4.80    2.11
  12   0  -4    1.75    1.59
  11   0  -4   12.84    2.81
  10   0  -4   14.16    2.89
   9   0  -4   17.08    3.48
  -9   0   4   14.61    2.95
   9   0  -4   12.96    2.64
   8   0  -4    5.15    2.31
   8   0  -4    5.58    2.02
  -8   0   4    7.60    2.09
   7   0  -4   21.43    3.24
   7   0  -4   25.79    3.05
  -7   0   4   15.00    2.21
   6   0  -4  112.32    6.18
   6   0  -4  115.01    5.49
   5   0  -4    6.22    1.76
   5   0  -4    6.99    1.56
   4   0  -4  147.26    5.44
   4   0  -4  145.92    6.43
  -3   0   4    0.39    0.80
   3   0  -4   -0.55    1.06
   3   0  -4   -0.47    0.75
  -2   0   4    1.51    0.78
   2   0  -4   -1.01    1.07
   2   0  -4    2.28    0.85
  -1   0   4   76.57    2.65
   1   0  -4   72.39    3.54
   1   0  -4   79.34    2.66
   0   0   4  160.09    4.69
   1   0   4    3.24    0.89
   2   0   4   21.30    1.89
   2   0   4   22.08    1.83
   3   0   4  257.42    8.16
   3   0   4  267.99    8.23
  -4   0  -4    0.33    1.26
   4   0   4    0.43    1.11
  -4   0  -4   -0.27    1.19
  -5   0  -4   52.76    3.72
   5   0   4   49.52    3.50
  -5   0  -4   45.68    3.49
   6   0   4   70.65    4.47
  -6   0  -4   73.84    4.74
   7   0   4   40.58    3.87
  -7   0  -4   43.42    3.86
   8   0   4   43.74    4.30
  -8   0  -4   49.63    4.45
   9   0   4    6.91    2.37
  -9   0  -4   10.06    2.82
  10   0   4    0.61    1.69
 -10   0  -4    1.58    2.10
  11   0   4    3.24    1.79
 -11   0  -4    2.19    2.18
  12   0   4    5.84    2.54
 -12   0  -4   11.42    3.65
 -13   0  -4    4.29    2.94
  13   0   4   -0.28    1.70
  14   0   4    2.43    1.90
  13  -1  -4   34.25    4.77
  12  -1  -4   16.15    3.39
  11  -1  -4    2.78    2.09
  10  -1  -4   24.52    3.59
   9  -1  -4    7.69    2.39
  -8   1   4    2.67    1.60
   8  -1  -4    4.12    2.00
   8  -1  -4    6.01    2.02
  -7   1   4   45.14    3.47
   7  -1  -4   48.39    4.10
   7  -1  -4   40.13    3.82
   6  -1  -4   24.76    2.82
   6  -1  -4   28.08    3.03
  -6   1   4   25.26    2.55
  -5   1   4  106.27    4.62
   5  -1  -4  109.49    5.52
   5  -1  -4   93.57    4.80
   4  -1  -4   31.16    2.56
  -4   1   4   37.56    2.39
   4  -1  -4   37.35    2.99
   3  -1  -4   32.06    2.36
  -3   1   4   33.31    1.98
   3  -1  -4   33.41    2.87
   2  -1  -4    1.30    0.90
   1  -1  -4   17.17    1.54
   0  -1  -4    2.43    0.84
   0   1   4    2.10    0.60
  -2  -1  -4   46.75    2.78
  -2  -1  -4   45.48    2.80
  -3  -1  -4   12.06    1.95
  -3  -1  -4    8.60    1.71
   4   1   4   16.90    2.03
  -4  -1  -4   17.68    2.28
   5   1   4   46.67    3.32
  -5  -1  -4   49.89    3.60
   6   1   4   20.16    2.61
  -6  -1  -4   18.72    2.76
   7   1   4   92.89    5.37
  -7  -1  -4   89.86    5.59
  -8  -1  -4   58.83    4.80
   8   1   4   51.84    4.39
   9   1   4   -0.18    1.50
  -9  -1  -4    1.49    1.73
  10   1   4    0.23    1.72
 -10  -1  -4    0.77    2.31
  11   1   4    6.62    2.55
 -11  -1  -4    4.23    2.98
  12   1   4   22.00    3.86
 -12  -1  -4   19.68    4.34
 -13  -1  -4   -2.49    2.50
  13   1   4    0.62    1.79
  14   1   4    8.12    2.48
 -14  -1  -4   10.21    3.31
  13  -2  -4   41.56    5.12
  12  -2  -4   10.63    2.98
  11  -2  -4   22.59    3.95
  10  -2  -4    1.03    1.86
   9  -2  -4   10.14    2.74
   8  -2  -4   36.73    3.98
   7  -2  -4   32.42    3.55
   6  -2  -4  115.79    5.84
   6  -2  -4   97.18    5.51
  -6   2   4  122.61    5.18
   5  -2  -4  112.94    5.40
   5  -2  -4  101.18    5.18
  -5   2   4  104.18    4.53
   4  -2  -4  134.63    5.57
  -4   2   4  130.52    4.75
   4  -2  -4  140.04    6.07
   3  -2  -4    1.44    1.00
   2  -2  -4  261.70    8.04
   1  -2  -4   59.22    2.98
   0  -2  -4   50.77    2.00
   0  -2  -4   51.41    2.62
  -1  -2  -4   60.55    2.66
  -2  -2  -4  126.15    4.77
  -3  -2  -4   27.41    2.43
  -4  -2  -4   22.71    2.52
  -5  -2  -4   13.66    2.22
   6   2   4  133.75    6.09
  -6  -2  -4  124.63    6.36
   7   2   4   59.86    4.37
  -7  -2  -4   70.21    4.90
   8   2   4    0.71    1.47
  -8  -2  -4   -0.28    1.74
  -9  -2  -4    1.36    2.36
   9   2   4    5.51    2.27
  10   2   4    2.33    2.04
 -10  -2  -4    3.80    2.83
 -11  -2  -4   25.35    4.55
  11   2   4   24.15    3.70
  12   2   4    8.36    2.71
 -12  -2  -4    4.40    3.34
 -13  -2  -4    1.36    2.89
 -14  -2  -4   18.51    4.12
  13  -3  -4    4.23    2.37
  12  -3  -4    4.64    2.29
  11  -3  -4   14.32    3.50
  10  -3  -4   17.40    3.50
   9  -3  -4    8.27    2.68
   8  -3  -4   40.83    4.31
   7  -3  -4    3.46    1.68
   7  -3  -4    0.82    1.69
  -6   3   4    5.96    1.36
   6  -3  -4    2.04    0.87
   6  -3  -4    5.23    1.97
   5  -3  -4   26.95    2.88
  -5   3   4   28.11    2.12
   4  -3  -4   16.74    2.23
  -4   3   4   17.11    1.55
   3  -3  -4  229.92    7.93
   2  -3  -4   24.92    2.24
   1  -3  -4  290.17    8.87
   0  -3  -4  130.73    4.14
   0  -3  -4  139.81    4.97
  -1  -3  -4    0.09    0.98
  -1  -3  -4   -0.60    0.74
  -2  -3  -4    1.81    1.07
  -3  -3  -4  175.83    6.71
  -4  -3  -4   17.98    2.38
  -5  -3  -4   36.74    3.47
  -6  -3  -4    1.79    1.59
  -7  -3  -4    6.31    2.27
  -8  -3  -4    2.82    2.23
  -9  -3  -4   28.04    4.29
 -10  -3  -4   35.32    4.98
 -11  -3  -4   57.96    6.15
 -12  -3  -4   12.30    3.99
 -13  -3  -4    2.34    2.99
 -14  -3  -4    8.70    3.66
  12  -4  -4    4.58    2.29
  11  -4  -4   65.06    5.91
  10  -4  -4   36.40    4.78
   9  -4  -4   34.69    4.38
   8  -4  -4   13.96    3.01
   7  -4  -4    4.74    1.84
   7  -4  -4    8.51    2.50
   6  -4  -4   22.42    2.72
   6  -4  -4   18.74    2.97
  -5   4   4    3.80    1.08
   5  -4  -4    2.79    1.66
   5  -4  -4    1.77    1.10
   4  -4  -4   50.85    3.68
  -4   4   4   52.02    2.74
  -4   4   4   48.92    2.67
   3  -4  -4   93.68    4.73
   2  -4  -4    2.86    1.24
   1  -4  -4    3.76    1.26
   1  -4  -4    3.90    0.85
   0  -4  -4  198.23    6.10
   0  -4  -4  206.80    7.02
  -1  -4  -4   33.84    2.33
  -1  -4  -4   39.60    2.75
  -2  -4  -4   15.13    1.84
  -3  -4  -4    6.92    1.63
  -4  -4  -4   14.85    2.25
  -5  -4  -4    1.12    1.31
  -6  -4  -4   23.32    3.17
  -7  -4  -4   10.33    2.64
  -8  -4  -4  121.80    7.38
  -9  -4  -4   46.94    5.31
 -10  -4  -4   19.33    4.08
 -11  -4  -4    2.81    2.93
 -12  -4  -4    0.85    2.74
 -13  -4  -4   10.33    3.95
 -14  -4  -4    4.36    3.61
  12  -5  -4   21.20    4.10
  11  -5  -4    9.65    3.14
  10  -5  -4    1.66    2.30
   9  -5  -4    1.06    1.77
   8  -5  -4    0.75    1.89
   7  -5  -4   12.43    2.84
   6  -5  -4   25.69    2.82
   6  -5  -4   19.51    3.09
   5  -5  -4   54.73    4.19
   4  -5  -4    0.47    0.82
   4  -5  -4    1.28    1.35
   3  -5  -4    0.97    0.75
   3  -5  -4    0.80    1.26
   2  -5  -4    3.41    1.43
   2  -5  -4    3.77    0.97
   1  -5  -4   17.53    2.16
   1  -5  -4   18.10    1.56
   0  -5  -4    0.90    1.07
   0  -5  -4    0.57    0.87
  -1  -5  -4  165.60    6.37
  -1  -5  -4  168.17    5.93
  -2  -5  -4    1.41    1.21
  -2  -5  -4    0.02    1.03
  -3  -5  -4   14.40    2.14
  -4  -5  -4    3.37    1.57
  -5  -5  -4  108.32    5.87
  -6  -5  -4   -0.03    1.42
  -7  -5  -4   12.07    2.73
  -8  -5  -4   15.96    3.30
  -9  -5  -4    1.31    2.00
 -10  -5  -4    4.28    2.89
 -11  -5  -4   11.48    3.95
 -12  -5  -4   12.68    4.35
 -13  -5  -4   12.39    4.32
 -14  -5  -4   10.33    4.52
  11  -6  -4   18.38    4.00
  10  -6  -4    1.47    1.92
   9  -6  -4   25.99    4.03
   8  -6  -4   44.18    4.93
   7  -6  -4   36.05    4.36
   6  -6  -4    7.52    2.42
   5  -6  -4   87.44    5.57
   4  -6  -4    0.34    1.35
   3  -6  -4    2.09    1.53
   3  -6  -4    1.91    1.00
   2  -6  -4    3.57    1.49
   2  -6  -4    6.21    1.24
   1  -6  -4    4.81    1.54
   1  -6  -4    6.06    1.22
   0  -6  -4  139.47    5.36
   0  -6  -4  152.59    6.21
  -1  -6  -4   46.57    3.04
  -1  -6  -4   51.27    3.44
  -2  -6  -4   29.11    2.67
  -2  -6  -4   31.79    2.80
  -3  -6  -4   -1.66    0.96
  -3  -6  -4    0.67    1.24
  -4  -6  -4    8.84    2.17
  -5  -6  -4    4.60    1.90
  -6  -6  -4  112.98    6.39
  -7  -6  -4   13.82    2.95
  -8  -6  -4   18.48    3.63
  -9  -6  -4    1.41    2.18
 -10  -6  -4    3.09    2.80
 -11  -6  -4   12.56    3.95
 -12  -6  -4   14.39    4.43
 -13  -6  -4   -1.78    2.41
  11  -7  -4   -1.57    1.70
  10  -7  -4   14.31    3.39
   9  -7  -4    6.74    2.65
   8  -7  -4   35.37    4.64
   7  -7  -4   36.71    4.50
   6  -7  -4   15.12    3.07
   5  -7  -4   -0.54    1.64
   4  -7  -4    8.28    2.34
   3  -7  -4   68.18    4.72
   3  -7  -4   65.50    3.41
   2  -7  -4   15.68    2.50
   2  -7  -4   14.36    1.88
   1  -7  -4  163.49    5.98
   1  -7  -4  156.53    6.99
   0  -7  -4   15.26    2.28
   0  -7  -4   18.90    2.18
  -1  -7  -4    4.52    1.62
  -1  -7  -4    1.73    1.17
  -2  -7  -4   32.32    2.98
  -2  -7  -4   29.41    2.87
  -3  -7  -4   50.07    3.70
  -3  -7  -4   48.07    3.77
  -4  -7  -4    0.07    1.36
  -4  -7  -4   -1.32    1.12
  -5  -7  -4   15.15    2.77
  -6  -7  -4    1.05    1.65
  -7  -7  -4    6.19    2.26
  -8  -7  -4    2.11    1.86
  -9  -7  -4    0.31    2.24
 -10  -7  -4    5.05    3.04
 -11  -7  -4   15.62    4.26
 -12  -7  -4    3.75    3.53
 -13  -7  -4   -2.28    2.88
  10  -8  -4    1.51    1.72
   9  -8  -4   37.47    4.93
   8  -8  -4   12.02    3.31
   7  -8  -4   -0.94    1.72
   6  -8  -4   13.25    3.01
   5  -8  -4   28.12    3.85
   4  -8  -4   15.64    2.97
   3  -8  -4   44.81    4.19
   2  -8  -4    9.86    1.82
   2  -8  -4    6.70    2.10
   1  -8  -4    1.03    1.45
   1  -8  -4    3.24    1.41
   0  -8  -4   -1.76    1.14
   0  -8  -4    0.87    1.34
  -1  -8  -4    1.18    1.43
  -1  -8  -4   -0.06    1.15
  -2  -8  -4  105.90    5.63
  -2  -8  -4  112.60    5.65
  -3  -8  -4   20.25    2.80
  -3  -8  -4   19.65    2.64
  -4  -8  -4  145.49    7.18
  -4  -8  -4  141.03    6.74
  -5  -8  -4   -0.60    1.35
  -5  -8  -4    0.69    1.35
  -6  -8  -4    3.46    1.83
  -7  -8  -4    5.84    2.28
  -8  -8  -4   62.88    5.57
  -9  -8  -4    1.90    1.93
 -10  -8  -4   13.90    4.12
 -11  -8  -4    0.56    3.14
 -12  -8  -4    0.35    2.99
   9  -9  -4   -0.92    1.25
   8  -9  -4    0.76    2.21
   7  -9  -4    4.17    2.54
   6  -9  -4   59.28    5.39
   5  -9  -4   36.80    4.46
   4  -9  -4   34.59    4.11
   3  -9  -4    0.54    1.63
   2  -9  -4   45.89    4.38
   1  -9  -4   36.46    3.79
   1  -9  -4   33.19    3.09
   0  -9  -4    8.51    2.20
   0  -9  -4    8.20    2.02
  -1  -9  -4  124.27    6.42
  -1  -9  -4  110.66    5.74
  -2  -9  -4   14.79    2.60
  -2  -9  -4   13.21    2.41
  -3  -9  -4    5.00    2.00
  -3  -9  -4    5.89    1.89
  -4  -9  -4   47.37    4.08
  -4  -9  -4   56.75    4.30
  -5  -9  -4    1.68    1.67
  -5  -9  -4    5.04    2.10
  -6  -9  -4   15.00    3.09
  -6  -9  -4   14.99    2.87
  -7  -9  -4    8.81    2.75
  -8  -9  -4    6.97    2.70
  -9  -9  -4    1.18    1.63
 -10  -9  -4   -0.37    1.49
 -11  -9  -4    5.99    3.56
 -12  -9  -4   -1.03    2.49
   8 -10  -4    2.32    1.62
   7 -10  -4    9.30    3.23
   6 -10  -4   17.82    3.70
   5 -10  -4   11.57    3.17
   4 -10  -4    0.58    1.76
   3 -10  -4   -0.64    1.26
   2 -10  -4   10.60    2.60
   1 -10  -4    1.41    1.73
   0 -10  -4   47.89    4.25
   0 -10  -4   42.71    3.66
  -1 -10  -4    1.60    1.59
  -1 -10  -4    2.78    1.83
  -2 -10  -4    3.12    1.80
  -2 -10  -4    1.69    1.63
  -3 -10  -4    2.26    1.59
  -3 -10  -4    1.05    1.55
  -4 -10  -4   19.67    3.14
  -4 -10  -4   20.66    3.01
  -5 -10  -4   -0.73    1.22
  -5 -10  -4   -0.30    1.39
  -6 -10  -4   25.95    3.54
  -6 -10  -4   23.99    3.60
  -7 -10  -4    6.80    2.57
  -7 -10  -4    5.71    2.70
  -8 -10  -4    5.15    2.40
  -9 -10  -4    5.38    2.53
 -10 -10  -4   32.46    4.86
 -11 -10  -4    0.31    1.98
   7 -11  -4    1.18    1.88
   6 -11  -4   15.35    3.79
   5 -11  -4    0.19    1.93
   4 -11  -4   13.44    3.33
   3 -11  -4    7.95    2.65
   2 -11  -4   13.33    2.89
   1 -11  -4    5.06    2.25
   0 -11  -4   41.51    4.36
  -1 -11  -4    1.65    1.42
  -1 -11  -4   -1.00    1.34
  -2 -11  -4   -0.83    1.42
  -2 -11  -4   -0.97    1.33
  -3 -11  -4   -1.42    1.49
  -3 -11  -4    0.95    1.63
  -4 -11  -4   13.67    2.90
  -4 -11  -4    7.06    2.41
  -5 -11  -4   63.36    5.32
  -5 -11  -4   67.78    5.04
  -6 -11  -4    5.91    2.10
  -7 -11  -4    0.82    1.57
  -8 -11  -4    8.01    2.58
  -9 -11  -4    3.03    1.82
 -10 -11  -4    9.28    2.98
 -11 -11  -4    8.19    3.44
   6 -12  -4   -2.34    1.26
   5 -12  -4   -0.23    2.03
   4 -12  -4   12.00    3.35
   3 -12  -4   65.04    5.83
   2 -12  -4    3.57    2.29
   1 -12  -4    2.55    1.91
   0 -12  -4    2.98    1.93
  -1 -12  -4   -0.15    1.53
  -2 -12  -4   32.59    3.89
  -2 -12  -4   31.57    3.99
  -3 -12  -4    0.78    1.65
  -3 -12  -4    0.22    1.88
  -4 -12  -4   23.01    3.46
  -4 -12  -4   21.64    3.55
  -5 -12  -4    3.54    2.13
  -6 -12  -4    1.22    1.80
  -7 -12  -4    1.62    1.79
  -8 -12  -4    5.95    2.34
  -9 -12  -4    0.49    1.50
 -10 -12  -4    4.45    2.05
   5 -13  -4   12.72    3.49
   4 -13  -4   35.01    5.23
   3 -13  -4   10.17    3.31
   2 -13  -4    5.73    2.66
   1 -13  -4   -0.92    1.83
   0 -13  -4    0.67    2.06
  -1 -13  -4   20.61    3.63
  -2 -13  -4    6.85    2.59
  -3 -13  -4    6.74    2.73
  -4 -13  -4   -1.00    1.58
  -5 -13  -4    2.03    2.28
  -6 -13  -4    0.83    1.90
  -7 -13  -4   38.25    5.06
  -8 -13  -4    1.13    1.71
  -9 -13  -4   13.96    3.58
   4 -14  -4    6.11    3.08
   3 -14  -4    4.56    2.83
   2 -14  -4    8.20    3.14
   1 -14  -4   28.12    4.39
   0 -14  -4    5.30    2.52
  -4 -14  -4   -0.44    1.76
  -5 -14  -4    3.20    2.14
  -6 -14  -4   14.61    3.50
  -7 -14  -4    1.44    1.70
  -8 -14  -4    9.37    2.94
   3 -15  -4    2.11    3.40
   2 -15  -4    9.79    3.29
  -5 -15  -4   15.94    3.90
  -6 -15  -4    2.98    2.58
  -3 -15   5   15.64    4.10
  -2 -15   5    5.71    2.30
  -1 -15   5   54.96    6.04
   0 -15   5   10.39    3.38
  -5 -14   5   -0.93    1.70
  -4 -14   5    3.65    2.13
  -3 -14   5   20.44    4.11
  -2 -14   5    4.87    2.34
  -1 -14   5   52.20    5.61
   0 -14   5    1.56    1.87
   1 -14   5    2.05    1.56
  -7 -13   5   10.96    3.45
  -6 -13   5   11.78    3.43
  -5 -13   5   14.16    3.79
  -4 -13   5   44.45    5.46
  -3 -13   5    7.95    3.01
  -2 -13   5   -0.96    1.59
  -1 -13   5   30.26    4.30
   0 -13   5    2.32    1.74
   1 -13   5   63.96    5.58
   2 -13   5   13.45    3.06
  -8 -12   5    7.58    3.39
  -7 -12   5   12.80    3.80
  -6 -12   5    0.14    2.36
  -5 -12   5   27.30    4.43
  -4 -12   5   12.02    3.47
  -3 -12   5   33.43    4.60
  -2 -12   5   16.48    3.50
  -1 -12   5   32.12    4.43
   0 -12   5   30.70    4.11
   1 -12   5   56.04    5.03
   2 -12   5   56.34    5.00
   3 -12   5   10.59    2.72
   6 -12   5   17.55    3.85
   7 -12   5    2.55    2.72
  -9 -11   5    0.67    1.68
  -8 -11   5    8.95    3.59
  -7 -11   5    1.92    2.08
  -6 -11   5   11.19    3.24
  -5 -11   5    3.41    2.48
  -4 -11   5   -0.68    1.70
  -3 -11   5    0.49    1.94
  -2 -11   5   43.02    4.69
  -1 -11   5   12.28    2.95
   0 -11   5   19.11    3.22
   1 -11   5    1.94    1.43
   2 -11   5   14.14    2.85
   3 -11   5   15.19    3.16
   4 -11   5   12.93    2.70
   4 -11   5    9.08    2.84
   5 -11   5   17.80    3.57
   6 -11   5    0.16    2.01
   7 -11   5    9.11    3.13
   8 -11   5    7.28    3.33
 -10 -10   5   -2.65    1.56
  -9 -10   5   19.03    4.67
  -8 -10   5   -3.26    1.92
  -7 -10   5   56.08    6.20
  -6 -10   5    2.48    2.31
  -5 -10   5    1.44    2.05
  -4 -10   5    7.04    2.72
  -3 -10   5   61.32    5.26
  -2 -10   5   66.06    5.19
  -1 -10   5   47.59    4.39
   0 -10   5   38.60    4.11
   1 -10   5   -0.24    1.34
   2 -10   5   29.43    3.69
   2 -10   5   33.29    3.79
   3 -10   5   18.78    3.28
   3 -10   5   10.88    2.68
   4 -10   5  142.70    7.99
   4 -10   5  150.37    7.79
   5 -10   5   11.40    2.71
   5 -10   5   11.67    3.13
   6 -10   5   35.79    4.72
   7 -10   5    8.36    2.94
   8 -10   5    7.69    3.12
   9 -10   5   -0.01    2.44
 -11  -9   5    0.43    1.92
 -10  -9   5   35.71    5.87
  -9  -9   5   -2.76    2.34
  -8  -9   5    6.52    3.33
  -7  -9   5   -1.28    1.97
  -6  -9   5   13.10    3.48
  -5  -9   5    5.71    2.56
  -4  -9   5   26.71    3.85
  -3  -9   5   -0.22    1.43
  -2  -9   5   37.43    4.14
  -1  -9   5   26.34    3.46
   0  -9   5   48.73    4.20
   1  -9   5    1.68    1.32
   1  -9   5    2.24    1.61
   2  -9   5   36.25    3.73
   2  -9   5   39.92    3.72
   3  -9   5    5.42    1.94
   3  -9   5    6.90    2.17
   4  -9   5   63.15    4.74
   4  -9   5   63.19    5.06
   5  -9   5   24.14    3.67
   5  -9   5   27.11    3.52
   6  -9   5   -2.37    1.32
   6  -9   5   -1.09    1.65
   7  -9   5    6.95    2.90
   8  -9   5    0.49    2.02
   9  -9   5   11.56    3.53
 -12  -8   5    3.31    3.63
 -11  -8   5   27.32    5.07
 -10  -8   5    8.19    3.74
  -9  -8   5    3.41    3.00
  -8  -8   5   -1.69    2.16
  -7  -8   5   26.32    4.36
  -6  -8   5   -0.58    1.87
  -5  -8   5  150.56    8.20
  -4  -8   5    0.22    1.49
  -3  -8   5   18.05    3.12
  -2  -8   5    3.44    1.87
  -1  -8   5   22.04    3.06
   0  -8   5   40.37    3.90
   1  -8   5   64.51    3.99
   1  -8   5   74.60    4.82
   2  -8   5   73.57    4.83
   2  -8   5   74.64    4.71
   3  -8   5   25.26    3.25
   3  -8   5   21.24    3.03
   4  -8   5    1.40    1.85
   4  -8   5    1.72    1.65
   5  -8   5   -0.77    1.46
   5  -8   5   -0.88    1.16
   6  -8   5   83.72    6.10
   6  -8   5   87.56    5.60
   7  -8   5   12.74    3.11
   7  -8   5   14.32    2.81
   8  -8   5   65.98    5.95
   9  -8   5    0.11    1.99
  10  -8   5    1.11    1.54
 -13  -7   5    1.60    3.72
 -12  -7   5    8.49    3.56
 -11  -7   5    0.12    2.89
 -10  -7   5   -1.49    2.41
  -9  -7   5    0.39    2.54
  -8  -7   5   36.48    4.79
  -7  -7   5    3.08    2.47
  -6  -7   5   21.99    3.80
  -5  -7   5   12.91    2.80
  -4  -7   5   16.12    2.94
  -3  -7   5    7.55    2.16
  -2  -7   5   14.29    1.63
  -2  -7   5   14.35    2.64
  -1  -7   5    4.85    1.18
  -1  -7   5    4.91    1.18
  -1  -7   5    3.75    1.74
   0  -7   5   90.70    4.25
   0  -7   5   82.54    5.09
   1  -7   5  104.51    5.61
   1  -7   5   98.00    4.74
   2  -7   5   -0.84    1.30
   2  -7   5   -0.17    1.25
   3  -7   5   23.35    3.02
   3  -7   5   26.07    3.22
   4  -7   5   39.73    3.57
   4  -7   5   39.63    3.93
   5  -7   5    6.19    2.26
   5  -7   5    5.57    1.90
   6  -7   5   49.51    4.91
   6  -7   5   48.68    4.06
   7  -7   5  200.10    8.95
   7  -7   5  197.30    9.85
   8  -7   5    4.56    2.43
   8  -7   5    5.55    2.09
   9  -7   5    5.30    2.74
  10  -7   5    6.94    2.69
  11  -7   5   -0.46    1.94
 -13  -6   5    1.12    3.01
 -12  -6   5    2.98    3.45
 -11  -6   5    1.16    2.86
 -10  -6   5   16.04    3.97
   9   6  -5   53.04    6.55
  -9  -6   5   51.80    5.47
   8   6  -5   18.65    4.40
  -8  -6   5   10.05    3.23
  -7  -6   5   44.68    4.78
   7   6  -5   39.63    5.58
  -6  -6   5    1.95    2.04
   6   6  -5    4.90    3.02
  -5  -6   5    3.61    2.07
   5   6  -5    4.17    2.71
  -4  -6   5   30.24    3.43
   4   6  -5   26.84    4.10
  -3  -6   5   79.97    3.17
  -3  -6   5   68.48    4.69
   3   6  -5   74.07    5.83
  -2  -6   5    6.29    1.04
  -2  -6   5    6.66    1.99
  -1  -6   5   86.78    3.53
  -1  -6   5   86.09    4.85
   0  -6   5    8.65    2.01
   0  -6   5   11.48    1.53
   1  -6   5    5.07    1.42
   1  -6   5    4.37    1.73
   2  -6   5    0.86    1.12
   2  -6   5    0.04    1.32
   3  -6   5   71.91    4.52
   3  -6   5   77.88    4.57
   4  -6   5   82.20    4.99
   4  -6   5   85.10    5.11
   5  -6   5   22.20    3.18
   5  -6   5   16.97    2.76
   6  -6   5   14.76    3.04
   6  -6   5   15.06    2.59
   7  -6   5   17.48    3.30
   7  -6   5   25.60    3.39
   8  -6   5   -0.85    1.73
   8  -6   5    2.51    1.92
  -9   6  -5   13.42    3.54
  -9   6  -5   11.00    3.00
   9  -6   5   12.88    3.40
  10  -6   5   32.47    4.68
  11  -6   5    0.63    1.49
 -12  -5   5    0.30    2.74
  11   5  -5    0.74    2.66
 -11  -5   5    0.75    2.82
  10   5  -5    9.21    3.71
 -10  -5   5   14.26    3.59
  -9  -5   5    2.02    2.44
   9   5  -5   -1.33    2.36
  -8  -5   5   34.62    4.38
   8   5  -5   30.83    5.19
   7   5  -5   46.34    5.73
  -7  -5   5   51.76    4.58
   6   5  -5    2.59    2.61
  -6  -5   5    2.86    1.99
   5   5  -5    2.18    2.37
  -5  -5   5    5.45    2.06
   4   5  -5   40.79    4.61
  -4  -5   5   39.55    3.49
   3   5  -5    3.94    2.24
  -3  -5   5    5.88    1.83
   2   5  -5  173.18    8.36
  -2  -5   5  179.73    7.23
  -2  -5   5  177.12    5.16
   1   5  -5   -0.56    1.48
  -1  -5   5    0.70    1.20
  -1  -5   5   -0.61    0.59
   0  -5   5   19.61    1.71
   0  -5   5   20.74    2.50
   1  -5   5   -0.05    0.91
   1  -5   5    1.30    1.22
   2  -5   5  165.53    6.40
   2  -5   5  168.49    6.93
   3  -5   5   58.11    3.85
   3  -5   5   59.93    3.82
   4  -5   5   81.31    4.74
   4  -5   5   83.55    4.88
   5  -5   5   78.87    4.80
   5  -5   5   66.11    4.76
   6  -5   5   17.22    2.72
   6  -5   5   17.99    3.05
   7  -5   5    8.28    2.60
   7  -5   5    4.81    1.86
   8  -5   5    9.12    2.73
   8  -5   5    8.91    2.26
  -9   5  -5  129.39    7.72
  -9   5  -5  117.65    7.57
   9  -5   5  134.43    8.14
 -10   5  -5    5.21    2.78
  10  -5   5    4.10    2.53
 -10   5  -5    9.36    2.70
  11  -5   5    9.19    2.91
  12  -5   5   -0.19    1.77
 -12  -4   5   18.68    4.36
  12   4  -5   23.56    4.98
 -11  -4   5   20.80    4.25
  11   4  -5   23.22    4.88
  10   4  -5    5.54    3.18
 -10  -4   5   -0.12    2.38
   9   4  -5   14.51    4.00
  -9  -4   5   12.39    3.58
   8   4  -5   35.65    5.08
  -8  -4   5   36.54    4.47
   7   4  -5   34.23    4.86
  -7  -4   5   42.69    4.36
   6   4  -5   16.56    3.53
  -6  -4   5   20.19    2.96
  -5  -4   5   73.16    4.57
   5   4  -5   71.80    5.81
  -4  -4   5    0.83    1.28
   4   4  -5   -0.41    1.86
   3   4  -5   99.98    6.24
  -3  -4   5  104.68    5.05
   2   4  -5    5.63    2.13
  -2  -4   5    3.52    1.46
   1   4  -5   17.46    2.57
  -1  -4   5   16.57    1.25
  -1  -4   5   16.72    2.12
   0  -4   5   69.57    2.93
   0   4  -5   71.32    4.33
   0  -4   5   70.08    3.86
   1  -4   5   45.09    2.60
   1  -4   5   36.93    2.97
   2  -4   5   10.34    1.90
   2  -4   5    6.74    1.55
   3  -4   5  132.71    5.74
   3  -4   5  138.60    5.81
   4  -4   5   19.55    2.50
   4  -4   5   19.72    2.58
   5  -4   5   17.28    2.56
   5  -4   5   17.36    2.61
   6  -4   5   16.63    2.64
   6  -4   5   21.99    3.20
   7  -4   5   35.36    3.60
   7  -4   5   30.94    3.93
   8  -4   5   32.19    4.12
  -8   4  -5   33.97    4.18
  -8   4  -5   32.23    4.17
   9  -4   5   25.43    3.96
  -9   4  -5   37.08    4.48
  -9   4  -5   29.38    4.16
  10  -4   5   37.79    4.67
 -10   4  -5   36.82    4.57
 -10   4  -5   43.74    5.06
  11  -4   5   -2.41    1.57
  12  -4   5   10.69    3.03
  11   3  -5   41.20    5.86
 -11  -3   5   45.63    5.26
  10   3  -5    7.58    3.49
 -10  -3   5    9.09    3.12
   9   3  -5    6.12    3.07
  -9  -3   5    5.45    2.42
  -8  -3   5    2.20    1.83
   8   3  -5    1.03    2.37
   8   3  -5    1.15    1.39
  -7  -3   5    9.39    2.25
   7   3  -5   11.26    3.39
   7   3  -5   10.83    1.99
   6   3  -5  135.96    5.43
   6   3  -5  131.39    7.94
  -6  -3   5  137.09    6.61
   5   3  -5    6.88    2.46
  -5  -3   5    6.27    1.84
   5   3  -5    4.89    1.14
   4   3  -5   57.46    4.78
  -4  -3   5   54.33    3.57
  -3  -3   5    0.86    1.10
   3   3  -5    0.70    1.72
  -2  -3   5   44.46    3.02
   2   3  -5   45.12    3.89
  -1  -3   5   -1.00    0.92
   1   3  -5    0.56    1.37
   0  -3   5  135.68    4.28
   0   3  -5  137.17    5.87
   0  -3   5  140.12    5.39
   1  -3   5    9.82    1.33
   1  -3   5   12.64    1.82
  -1   3  -5    9.07    1.58
   2  -3   5  130.35    4.95
   2  -3   5  121.48    5.13
   3  -3   5  214.32    7.59
   3  -3   5  206.34    7.43
   4  -3   5  131.89    5.78
   4  -3   5  119.03    5.64
   5  -3   5   29.54    3.19
   5  -3   5   26.84    2.86
   6  -3   5   35.30    3.38
   6  -3   5   43.62    4.00
   7  -3   5   58.93    4.72
  -8   3  -5    1.59    1.75
   8  -3   5   -2.43    1.49
  -8   3  -5    1.35    1.76
  -9   3  -5    3.11    2.51
  -9   3  -5    2.47    2.10
   9  -3   5    6.97    2.47
 -10   3  -5    2.26    2.05
  10  -3   5    2.82    2.07
  11  -3   5   17.12    3.49
 -11   3  -5   14.34    3.64
  12  -3   5   15.40    3.40
  13  -3   5   26.97    4.33
  11   2  -5    1.82    2.62
 -10  -2   5    1.33    2.29
  10   2  -5    1.69    2.04
  10   2  -5    4.66    1.76
  -9  -2   5   41.86    4.52
   9   2  -5   45.54    3.86
   9   2  -5   42.95    5.40
  -8  -2   5    3.43    1.85
   8   2  -5    1.69    1.63
   8   2  -5    0.24    2.48
  -7  -2   5   39.31    3.78
   7   2  -5   45.39    4.88
   7   2  -5   47.57    3.54
  -6  -2   5   15.89    2.47
   6   2  -5   14.18    2.99
   6   2  -5   10.18    1.82
   5   2  -5   50.13    2.92
  -5  -2   5   46.44    3.56
   5   2  -5   50.49    4.57
   4   2  -5    0.47    0.80
  -4  -2   5    0.97    1.00
   4   2  -5    0.48    1.59
  -3  -2   5   74.67    3.75
   3   2  -5   74.70    2.77
   3   2  -5   68.22    4.51
  -2  -2   5   -0.17    0.96
   2   2  -5    0.15    1.39
  -1  -2   5  360.41   10.45
   1   2  -5  360.12   11.54
   0   2  -5   59.10    3.41
   0  -2   5   59.99    3.07
   0  -2   5   60.11    2.27
   1  -2   5   12.24    1.50
   1  -2   5   16.66    1.94
  -1   2  -5   14.64    1.61
  -2   2  -5  621.38   16.44
   2  -2   5  634.22   16.62
   2  -2   5  608.53   16.90
   3  -2   5    2.24    1.23
   4  -2   5    1.77    1.26
   4  -2   5    1.03    1.21
   5  -2   5  340.21   11.45
   5  -2   5  340.31   11.26
   6  -2   5   87.66    5.25
  -7   2  -5   -0.60    1.21
   7  -2   5    1.47    1.74
  -7   2  -5   -0.36    1.40
  -8   2  -5    0.17    1.61
  -8   2  -5   -1.04    1.61
   8  -2   5    3.20    2.11
  -9   2  -5   30.93    4.20
   9  -2   5   23.84    3.61
  10  -2   5    3.32    2.14
 -10   2  -5    2.50    2.28
 -11   2  -5   17.68    3.68
  11  -2   5   15.20    3.18
  12  -2   5  113.99    7.85
 -12   2  -5  105.50    7.56
  13  -2   5   -0.42    1.49
  11   1  -5    2.59    1.65
  10   1  -5   54.37    4.55
 -10  -1   5   56.11    4.84
  10   1  -5   47.23    5.67
  -9  -1   5   76.44    5.23
   9   1  -5   72.49    4.99
   9   1  -5   71.85    6.39
   8   1  -5   65.30    5.88
   8   1  -5   66.03    4.49
  -8  -1   5   57.80    4.35
   7   1  -5   16.22    3.22
  -7  -1   5   15.13    2.40
   7   1  -5    8.11    2.01
  -6  -1   5   14.55    2.17
   6   1  -5   10.13    2.58
   6   1  -5   13.05    1.99
   5   1  -5    2.68    1.69
   5   1  -5    1.70    1.19
  -5  -1   5    2.50    1.21
  -4  -1   5  150.06    5.75
   4   1  -5  152.45    6.99
   4   1  -5  149.66    5.34
   3   1  -5    2.33    0.85
  -3  -1   5    1.69    0.94
   3   1  -5    2.20    1.38
   2   1  -5  216.94    7.92
  -2  -1   5  204.35    6.55
   2   1  -5  209.92    5.77
   1   1  -5    0.43    0.40
   1   1  -5    4.31    1.48
  -1  -1   5    0.74    0.91
   0   1  -5   25.81    2.13
   0  -1   5   26.00    2.04
   1  -1   5  185.60    5.99
  -1   1  -5  175.25    5.86
   2  -1   5   10.21    1.54
   2  -1   5    8.62    1.48
   3  -1   5   38.89    2.79
   3  -1   5   43.73    3.00
   4  -1   5   34.23    2.94
   4  -1   5   35.74    2.81
   5  -1   5  120.04    5.72
   6  -1   5   20.20    2.79
  -6   1  -5   31.44    3.59
  -6   1  -5   24.95    3.12
  -7   1  -5   13.26    2.68
  -7   1  -5   13.03    2.74
   7  -1   5   13.39    2.57
  -8   1  -5    0.91    1.71
   8  -1   5   -0.90    1.50
  -9   1  -5   55.51    5.30
   9  -1   5   55.23    4.88
  10  -1   5    0.66    1.70
 -10   1  -5    1.78    1.95
 -11   1  -5   42.00    4.88
  11  -1   5   45.16    4.99
  12  -1   5    0.84    1.82
 -12   1  -5    3.16    2.67
  13  -1   5   -0.50    1.83
 -13   1  -5   -0.48    2.42
  12   0  -5   16.11    3.28
  11   0  -5   12.30    2.66
  10   0  -5   29.46    4.68
  10   0  -5   30.75    3.79
   9   0  -5   24.77    4.17
   9   0  -5   26.07    3.39
   8   0  -5   42.17    4.02
   8   0  -5   45.91    4.82
   7   0  -5   16.77    3.07
   7   0  -5   14.81    2.55
   6   0  -5    0.65    1.48
   6   0  -5    0.35    1.22
  -6   0   5    0.05    0.68
   5   0  -5   22.94    2.34
  -5   0   5   27.28    2.29
   5   0  -5   27.43    3.04
  -4   0   5   32.93    2.34
   4   0  -5   37.07    2.49
   4   0  -5   29.82    2.99
   3   0  -5  214.90    8.18
   3   0  -5  216.52    6.72
  -3   0   5  223.30    6.75
   2   0  -5    3.22    0.86
  -2   0   5    4.32    0.94
   2   0  -5    5.71    1.46
   1   0  -5   -0.41    1.20
  -1   0   5    1.66    0.75
   1   0  -5    0.50    0.61
   0   0   5   15.54    1.35
   1   0   5  217.11    6.53
   2   0   5  125.43    4.65
   3   0   5  263.56    8.29
   3   0   5  262.31    8.34
   4   0   5    7.25    1.54
  -4   0  -5    8.32    1.99
  -4   0  -5    8.10    1.91
  -5   0  -5    8.48    2.07
   5   0   5    8.68    1.81
  -5   0  -5    7.94    2.04
  -6   0  -5   12.81    2.48
  -6   0  -5   17.70    2.82
   6   0   5    8.66    2.00
   7   0   5  203.06    8.52
  -7   0  -5  190.88    8.73
  -8   0  -5   44.61    4.50
   8   0   5   42.33    4.12
  -9   0  -5   17.67    3.45
   9   0   5    7.12    2.31
 -10   0  -5   20.32    3.85
  10   0   5   15.92    3.10
 -11   0  -5   15.65    3.56
  11   0   5   19.12    3.48
 -12   0  -5    6.38    3.24
  12   0   5    3.30    2.38
 -13   0  -5   -1.07    2.48
  13   0   5   -0.74    1.44
  14   0   5   74.24    6.64
  13  -1  -5   57.41    5.94
  12  -1  -5   14.84    3.28
  11  -1  -5   -0.37    1.68
  10  -1  -5    5.67    2.43
   9  -1  -5    5.67    2.69
   9  -1  -5    6.53    2.27
   8  -1  -5   51.52    4.41
   8  -1  -5   56.93    4.89
  -8   1   5   57.42    4.07
  -7   1   5   25.50    2.71
   7  -1  -5   28.39    3.35
   7  -1  -5   18.01    2.88
  -6   1   5  121.47    5.21
   6  -1  -5  105.15    5.49
   6  -1  -5  122.06    6.38
  -5   1   5    8.80    1.59
   5  -1  -5    8.18    1.71
   5  -1  -5    9.18    2.10
   4  -1  -5   39.29    3.29
   4  -1  -5   43.59    2.86
  -4   1   5   38.47    2.35
   3  -1  -5   15.13    2.12
  -3   1   5   14.23    1.37
   3  -1  -5   15.17    1.72
   2  -1  -5   61.09    2.89
   1  -1  -5  233.76    6.84
   0   1   5  471.87   11.68
   0  -1  -5  435.61   12.04
   1   1   5   14.13    1.30
  -2  -1  -5  127.43    5.06
  -2  -1  -5  128.64    5.02
  -3  -1  -5   50.96    3.41
  -3  -1  -5   56.36    3.46
   4   1   5    1.01    1.03
  -4  -1  -5   -0.86    1.01
  -4  -1  -5    1.44    1.32
   5   1   5   59.11    3.77
  -5  -1  -5   58.82    3.99
  -6  -1  -5   26.45    3.05
   6   1   5   20.46    2.70
   7   1   5   32.28    3.45
  -7  -1  -5   30.45    3.64
  -8  -1  -5  141.11    7.70
   8   1   5  143.46    7.24
   9   1   5   23.72    3.48
  -9  -1  -5   27.70    4.13
  10   1   5    0.35    1.60
 -10  -1  -5    1.43    2.24
 -11  -1  -5   16.25    3.83
  11   1   5   13.45    2.96
 -12  -1  -5    2.60    3.10
  12   1   5    3.59    2.07
  13   1   5   14.14    3.26
 -13  -1  -5   20.01    4.53
 -14  -1  -5    7.80    2.76
  14   1   5    8.16    2.64
  13  -2  -5    7.52    2.99
  12  -2  -5   49.67    5.45
  11  -2  -5   17.41    3.64
  10  -2  -5   -0.73    1.70
   9  -2  -5   -0.77    1.68
   8  -2  -5   12.49    2.40
   8  -2  -5    8.08    2.57
   7  -2  -5   73.08    4.89
   7  -2  -5   72.20    4.96
  -7   2   5   70.99    4.09
   6  -2  -5  116.95    6.18
   6  -2  -5  110.01    5.75
  -6   2   5  106.93    4.84
   5  -2  -5   35.23    3.29
   5  -2  -5   34.34    3.11
  -5   2   5   30.13    2.31
   4  -2  -5   29.36    2.65
  -4   2   5   30.44    2.00
   4  -2  -5   28.66    2.90
   3  -2  -5    2.00    1.08
   2  -2  -5  330.67    9.76
   1  -2  -5    0.56    0.89
   0  -2  -5   79.10    2.83
   0  -2  -5   91.54    3.64
  -1  -2  -5  140.55    4.71
  -2  -2  -5    9.43    1.53
  -3  -2  -5    1.36    1.24
  -4  -2  -5   12.45    2.10
  -5  -2  -5  202.54    8.15
  -6  -2  -5   77.59    4.92
   7   2   5    4.75    1.92
  -7  -2  -5    6.73    2.19
   8   2   5   45.39    4.27
  -8  -2  -5   52.64    4.96
   9   2   5   23.89    3.45
  -9  -2  -5   32.96    4.50
 -10  -2  -5    3.67    2.77
  10   2   5    1.97    1.86
  11   2   5   11.80    2.77
 -11  -2  -5   -0.12    2.97
 -12  -2  -5   26.42    4.91
 -13  -2  -5    9.16    3.75
 -14  -2  -5    4.85    2.97
  13  -3  -5   25.18    4.37
  12  -3  -5   10.50    3.00
  11  -3  -5    0.59    1.98
  10  -3  -5    3.70    2.48
   9  -3  -5   15.67    3.18
   8  -3  -5   16.45    2.67
   8  -3  -5   20.58    3.25
   7  -3  -5   32.33    3.69
  -6   3   5    1.64    0.93
   6  -3  -5    0.59    1.06
   6  -3  -5    2.03    1.64
  -5   3   5    1.29    0.84
   5  -3  -5    2.71    1.48
   5  -3  -5    2.98    1.41
   4  -3  -5   62.69    3.86
   3  -3  -5    8.68    1.64
   2  -3  -5  142.11    5.55
   1  -3  -5  184.72    6.44
   0  -3  -5   22.95    1.47
   0  -3  -5   24.59    2.07
  -1  -3  -5   66.07    3.56
  -1  -3  -5   70.21    3.10
  -2  -3  -5    2.04    1.12
  -3  -3  -5    5.61    1.51
  -4  -3  -5  109.81    5.30
  -5  -3  -5   54.34    3.91
  -6  -3  -5   14.60    2.56
  -7  -3  -5   16.65    3.02
  -8  -3  -5    1.36    1.86
  -9  -3  -5   13.56    3.48
 -10  -3  -5   50.71    5.77
 -11  -3  -5   23.18    4.62
 -12  -3  -5    2.86    2.79
 -13  -3  -5   -0.23    3.09
 -14  -3  -5   15.71    4.40
  12  -4  -5   13.96    3.50
  11  -4  -5   22.33    4.00
  10  -4  -5   89.56    6.79
   9  -4  -5   32.20    4.14
   8  -4  -5    2.12    2.05
   7  -4  -5   -0.58    1.55
   7  -4  -5    1.30    1.41
   6  -4  -5    0.88    0.65
   6  -4  -5    0.55    1.49
  -5   4   5   52.65    2.68
   5  -4  -5   49.80    3.63
   5  -4  -5   44.13    3.76
   4  -4  -5   61.08    4.07
   3  -4  -5  335.76   10.94
   2  -4  -5  181.79    6.85
   1  -4  -5   10.55    1.73
   0  -4  -5   72.24    3.79
   0  -4  -5   70.54    2.83
  -1  -4  -5   20.28    1.88
  -1  -4  -5   19.92    2.20
  -2  -4  -5    0.94    1.01
  -3  -4  -5   65.40    3.81
  -4  -4  -5    3.20    1.52
  -5  -4  -5   64.77    4.41
  -6  -4  -5   77.70    5.13
  -7  -4  -5    4.87    2.09
  -8  -4  -5   38.76    4.56
  -9  -4  -5   60.97    5.68
 -10  -4  -5   52.24    5.94
 -11  -4  -5    2.87    2.97
 -12  -4  -5   -2.61    2.48
 -13  -4  -5    0.49    2.79
 -14  -4  -5    7.71    4.35
  12  -5  -5    4.07    2.08
  11  -5  -5   66.40    6.07
  10  -5  -5   16.08    3.60
   9  -5  -5   44.53    4.84
   8  -5  -5    2.16    2.22
   7  -5  -5   10.33    2.71
   6  -5  -5   58.76    4.24
   6  -5  -5   52.01    4.46
   5  -5  -5   54.41    4.26
   4  -5  -5   53.87    4.06
   3  -5  -5   24.49    2.79
   2  -5  -5    3.09    1.36
   1  -5  -5  122.04    4.19
   1  -5  -5  129.54    5.61
   0  -5  -5   74.28    3.21
   0  -5  -5   74.96    4.02
  -1  -5  -5    0.18    0.85
  -1  -5  -5   -0.32    0.90
  -2  -5  -5  322.08   10.24
  -2  -5  -5  327.33   10.67
  -3  -5  -5    0.90    1.06
  -4  -5  -5   42.18    3.37
  -5  -5  -5   -0.78    1.19
  -6  -5  -5   71.20    4.99
  -7  -5  -5   18.47    3.09
  -8  -5  -5   33.86    4.45
  -9  -5  -5    1.60    2.33
 -10  -5  -5   12.90    3.52
 -11  -5  -5    0.58    2.65
 -12  -5  -5   21.25    4.69
 -13  -5  -5   16.85    4.57
 -14  -5  -5    0.46    3.85
  11  -6  -5   -2.11    1.63
  10  -6  -5    0.98    1.71
   9  -6  -5    6.99    2.63
   8  -6  -5   60.06    5.32
   7  -6  -5   47.01    4.86
   6  -6  -5    3.36    2.03
   5  -6  -5    3.48    1.88
   4  -6  -5   40.95    3.74
   3  -6  -5    2.67    1.58
   2  -6  -5   12.10    1.41
   2  -6  -5   10.29    2.02
   1  -6  -5  340.47   11.33
   1  -6  -5  341.26    9.80
   0  -6  -5   29.33    2.25
   0  -6  -5   31.72    2.90
  -1  -6  -5   24.62    2.18
  -1  -6  -5   26.43    2.60
  -2  -6  -5    0.02    1.21
  -2  -6  -5    2.78    1.30
  -3  -6  -5    1.54    1.51
  -3  -6  -5    2.79    1.49
  -4  -6  -5  105.10    5.55
  -5  -6  -5   47.77    3.98
  -6  -6  -5    1.86    1.57
  -7  -6  -5   66.80    5.22
  -8  -6  -5    0.35    1.62
  -9  -6  -5   -1.69    1.86
 -10  -6  -5    5.91    3.33
 -11  -6  -5   14.29    4.24
 -12  -6  -5    6.91    3.05
 -13  -6  -5   -0.70    2.06
  11  -7  -5   -0.26    1.80
  10  -7  -5    9.32    2.96
   9  -7  -5   31.50    4.57
   8  -7  -5    8.70    2.90
   7  -7  -5  110.41    7.17
   6  -7  -5   21.33    3.34
   5  -7  -5    4.56    2.24
   4  -7  -5   27.70    3.43
   3  -7  -5   21.18    2.99
   2  -7  -5   40.98    2.68
   2  -7  -5   40.16    3.57
   1  -7  -5   17.24    2.48
   1  -7  -5   16.04    1.85
   0  -7  -5   87.47    5.04
   0  -7  -5  109.84    4.62
  -1  -7  -5  142.84    5.82
  -1  -7  -5  140.65    6.41
  -2  -7  -5    2.97    1.35
  -2  -7  -5    4.24    1.49
  -3  -7  -5   31.19    3.21
  -3  -7  -5   26.72    3.03
  -4  -7  -5  121.07    6.24
  -4  -7  -5  123.30    6.30
  -5  -7  -5    2.30    1.67
  -6  -7  -5   14.77    2.82
  -7  -7  -5    4.02    2.25
  -8  -7  -5    1.76    1.77
  -9  -7  -5    1.61    1.91
 -10  -7  -5   22.07    4.50
 -11  -7  -5   27.42    5.10
 -12  -7  -5    2.49    3.70
 -13  -7  -5   -1.27    2.39
  10  -8  -5   15.93    3.68
   9  -8  -5    3.80    2.24
   8  -8  -5   44.51    5.14
   7  -8  -5   16.18    3.60
   6  -8  -5   -1.51    1.54
   5  -8  -5    6.88    2.44
   4  -8  -5    2.66    1.98
   3  -8  -5   22.24    3.21
   2  -8  -5   37.37    3.80
   1  -8  -5   -0.60    1.19
   1  -8  -5    3.98    1.36
   0  -8  -5    5.74    1.81
   0  -8  -5    4.48    1.62
  -1  -8  -5   50.87    3.52
  -1  -8  -5   49.00    3.84
  -2  -8  -5    3.89    1.64
  -2  -8  -5    1.62    1.50
  -3  -8  -5   38.75    3.66
  -3  -8  -5   37.10    3.44
  -4  -8  -5    1.20    1.41
  -4  -8  -5    1.60    1.56
  -5  -8  -5   45.99    4.04
  -5  -8  -5   35.29    3.90
  -6  -8  -5   54.57    4.77
  -7  -8  -5   14.72    3.13
  -8  -8  -5   -1.72    1.62
  -9  -8  -5   14.94    3.49
 -10  -8  -5    4.71    2.50
 -11  -8  -5    1.73    3.09
 -12  -8  -5    1.03    2.69
   9  -9  -5   10.83    3.42
   8  -9  -5    3.14    2.56
   7  -9  -5   -0.58    1.79
   6  -9  -5    8.09    2.84
   5  -9  -5  123.22    7.61
   4  -9  -5   73.88    5.60
   3  -9  -5   20.95    3.28
   2  -9  -5    0.36    1.55
   1  -9  -5    0.23    1.41
   0  -9  -5    1.72    1.40
   0  -9  -5    0.25    1.41
  -1  -9  -5   12.28    2.40
  -1  -9  -5    6.50    1.89
  -2  -9  -5  205.42    8.31
  -2  -9  -5  196.84    8.56
  -3  -9  -5   41.21    3.78
  -3  -9  -5   39.91    3.60
  -4  -9  -5   31.57    3.50
  -4  -9  -5   26.91    3.31
  -5  -9  -5   -0.20    1.52
  -5  -9  -5   -1.15    1.28
  -6  -9  -5    0.89    1.58
  -6  -9  -5    3.43    2.06
  -7  -9  -5    0.51    1.59
  -8  -9  -5    9.09    2.78
  -9  -9  -5   -1.07    1.57
 -10  -9  -5    7.62    2.83
 -11  -9  -5    0.69    2.83
 -12  -9  -5    0.25    2.47
   8 -10  -5    0.16    1.21
   7 -10  -5   11.21    3.36
   6 -10  -5   48.49    5.28
   5 -10  -5   35.80    4.67
   4 -10  -5   67.36    5.62
   3 -10  -5   11.26    2.77
   2 -10  -5    1.06    1.65
   1 -10  -5   87.00    5.82
   0 -10  -5   12.47    2.33
   0 -10  -5   12.40    2.61
  -1 -10  -5   13.03    2.71
  -1 -10  -5   17.32    2.76
  -2 -10  -5   10.18    2.41
  -2 -10  -5   16.90    2.72
  -3 -10  -5    0.53    1.58
  -3 -10  -5    1.17    1.48
  -4 -10  -5    8.38    2.36
  -4 -10  -5    3.31    1.81
  -5 -10  -5   14.46    2.85
  -5 -10  -5   15.95    2.84
  -6 -10  -5    2.30    1.82
  -6 -10  -5    5.66    2.33
  -7 -10  -5   18.19    3.52
  -7 -10  -5   17.22    3.46
  -8 -10  -5    3.82    2.33
  -9 -10  -5    5.82    2.41
 -10 -10  -5   -1.68    1.37
 -11 -10  -5    5.56    2.51
   7 -11  -5    1.16    1.47
   6 -11  -5   -0.60    1.74
   5 -11  -5    3.32    2.38
   4 -11  -5    2.39    2.19
   3 -11  -5   34.88    4.37
   2 -11  -5   78.15    5.94
   1 -11  -5    5.42    2.23
   0 -11  -5    1.65    1.64
  -1 -11  -5    5.98    1.98
  -1 -11  -5   13.48    2.86
  -2 -11  -5    3.39    1.67
  -2 -11  -5    5.08    2.22
  -3 -11  -5    2.85    1.78
  -3 -11  -5    4.17    2.07
  -4 -11  -5   61.97    4.89
  -4 -11  -5   52.86    4.75
  -5 -11  -5    1.35    1.68
  -5 -11  -5    1.19    1.76
  -6 -11  -5   68.55    5.42
  -6 -11  -5   57.35    5.11
  -7 -11  -5    3.63    1.94
  -8 -11  -5    7.12    2.61
  -9 -11  -5    3.79    1.86
 -10 -11  -5   14.47    3.63
 -11 -11  -5    2.19    1.96
   6 -12  -5   -1.61    1.04
   5 -12  -5    6.75    2.91
   4 -12  -5   22.52    4.04
   3 -12  -5    7.32    2.74
   2 -12  -5   86.35    6.45
   1 -12  -5   42.42    4.76
   0 -12  -5    4.26    2.12
  -1 -12  -5   34.42    4.22
  -2 -12  -5   -0.21    1.31
  -2 -12  -5   -0.02    1.74
  -3 -12  -5   10.68    2.74
  -3 -12  -5    9.79    2.65
  -4 -12  -5   -1.55    1.53
  -4 -12  -5    3.67    2.06
  -5 -12  -5   20.62    3.47
  -5 -12  -5   16.96    3.30
  -6 -12  -5    9.03    2.63
  -7 -12  -5    1.11    1.71
  -8 -12  -5    2.96    1.74
  -9 -12  -5    2.73    1.93
 -10 -12  -5    2.22    1.67
   5 -13  -5    7.69    3.07
   4 -13  -5   -1.29    2.07
   3 -13  -5   12.95    3.54
   2 -13  -5   17.11    3.61
   1 -13  -5    0.84    1.90
  -1 -13  -5    2.79    2.08
  -2 -13  -5    8.99    2.77
  -3 -13  -5    6.96    2.58
  -3 -13  -5    7.74    2.70
  -4 -13  -5    4.39    2.42
  -5 -13  -5    1.15    1.99
  -6 -13  -5   12.33    3.01
  -7 -13  -5    0.54    1.69
  -8 -13  -5   13.63    3.43
  -9 -13  -5    2.83    2.02
   4 -14  -5   19.06    4.56
   3 -14  -5    3.86    2.43
   2 -14  -5    2.85    2.52
   1 -14  -5   -0.16    1.89
   0 -14  -5   63.11    6.13
  -1 -14  -5   24.85    4.19
  -4 -14  -5    1.65    1.87
  -5 -14  -5    0.75    1.78
  -6 -14  -5    3.26    2.00
  -7 -14  -5   38.15    5.13
  -8 -14  -5   11.64    3.28
   2 -15  -5    4.30    3.12
   1 -15  -5   10.04    3.23
  -6 -15  -5    3.77    2.35
  -7 -15  -5    2.30    2.22
  -1 -15   6    5.71    2.38
   0 -15   6   18.21    3.70
  -5 -14   6    3.25    2.40
  -4 -14   6   -2.05    1.60
  -3 -14   6    3.28    2.08
  -2 -14   6   -4.82    1.20
  -1 -14   6   19.72    3.76
   0 -14   6    9.14    2.65
   1 -14   6    4.79    2.05
  -7 -13   6    4.15    2.71
  -6 -13   6   -1.88    2.24
  -5 -13   6   12.50    3.52
  -4 -13   6    7.33    2.71
  -3 -13   6   13.89    3.47
  -2 -13   6    2.05    1.81
  -1 -13   6    0.21    1.56
   0 -13   6   19.43    3.61
   1 -13   6    3.24    1.72
   2 -13   6   22.36    3.83
   3 -13   6    5.54    2.31
  -8 -12   6    0.57    1.78
  -7 -12   6    1.25    2.32
  -6 -12   6   23.51    4.46
  -5 -12   6   -0.70    1.81
  -4 -12   6   44.91    5.50
  -3 -12   6   -0.17    1.60
  -2 -12   6    8.21    2.77
  -1 -12   6    6.05    2.54
   0 -12   6   -1.21    1.53
   1 -12   6   42.22    4.90
   2 -12   6   31.09    4.37
   3 -12   6   16.21    3.05
   4 -12   6    2.01    1.63
  -9 -11   6   -0.25    1.83
  -8 -11   6   -0.88    2.58
  -7 -11   6    5.03    2.96
  -6 -11   6    2.29    2.46
  -5 -11   6    7.35    3.00
  -4 -11   6    0.04    1.80
  -3 -11   6   -0.13    1.65
  -2 -11   6   12.93    3.01
  -1 -11   6   14.08    3.18
   0 -11   6    1.00    1.66
   1 -11   6    8.13    2.57
   2 -11   6    9.44    2.62
   3 -11   6    0.93    1.88
   4 -11   6   19.27    3.09
   5 -11   6    1.22    1.94
   5 -11   6    4.55    2.21
   6 -11   6    8.24    2.80
   7 -11   6    3.68    2.49
   8 -11   6    1.93    2.86
 -10 -10   6    0.00    2.01
  -9 -10   6   -1.94    2.28
  -8 -10   6   17.93    4.26
  -7 -10   6    0.96    2.10
  -6 -10   6   -0.21    2.18
  -5 -10   6   16.64    3.70
  -4 -10   6    7.94    2.71
  -3 -10   6    2.82    1.89
  -2 -10   6   65.45    5.26
  -1 -10   6   18.87    3.37
   0 -10   6   34.47    4.02
   1 -10   6    3.33    1.75
   2 -10   6    5.49    2.06
   3 -10   6   37.29    4.22
   3 -10   6   34.17    4.12
   4 -10   6   31.31    4.15
   4 -10   6   21.62    3.18
   5 -10   6   51.99    5.15
   5 -10   6   34.43    3.90
   6 -10   6    2.48    1.81
   6 -10   6    4.38    2.60
   7 -10   6    6.48    2.87
   8 -10   6    6.65    2.98
   9 -10   6   14.99    4.37
 -11  -9   6    6.42    3.79
 -10  -9   6    7.25    3.77
  -9  -9   6   26.66    4.96
  -8  -9   6    7.51    3.26
  -7  -9   6   14.32    3.66
  -6  -9   6   -0.44    2.09
  -5  -9   6   21.16    3.80
  -4  -9   6   -1.91    1.51
  -3  -9   6   35.91    4.34
  -2  -9   6    7.92    2.45
  -1  -9   6   43.55    4.33
   0  -9   6   -1.22    1.26
   1  -9   6   10.12    2.52
   2  -9   6   28.99    3.57
   3  -9   6    7.05    2.27
   3  -9   6    5.36    2.05
   4  -9   6   97.62    6.04
   4  -9   6   97.81    6.23
   5  -9   6    9.43    2.53
   5  -9   6    9.21    2.77
   6  -9   6    2.11    2.03
   6  -9   6    2.58    1.79
   7  -9   6    1.11    1.71
   7  -9   6    1.82    2.28
   8  -9   6    7.70    3.12
   9  -9   6    0.45    2.08
 -12  -8   6    6.37    4.18
 -11  -8   6   -1.66    2.93
 -10  -8   6    6.05    3.70
  -9  -8   6   -0.22    2.45
  -8  -8   6    1.69    2.61
  -7  -8   6    6.62    2.81
  -6  -8   6   20.42    3.80
  -5  -8   6    2.19    2.09
  -4  -8   6   11.97    2.92
  -3  -8   6   55.11    4.66
  -2  -8   6    3.34    1.93
  -1  -8   6    0.23    1.25
   0  -8   6    8.07    2.21
   1  -8   6   42.39    3.41
   1  -8   6   40.38    3.74
   3  -8   6    4.02    1.89
   3  -8   6    4.88    2.15
   4  -8   6   29.95    3.47
   4  -8   6   32.23    3.77
   5  -8   6   25.15    3.40
   5  -8   6   32.89    3.89
   6  -8   6    2.81    2.04
   6  -8   6    5.61    2.37
   7  -8   6   39.62    4.06
   7  -8   6   34.00    4.46
   8  -8   6    0.49    1.84
   9  -8   6   13.53    3.44
  10  -8   6    0.79    1.63
 -12  -7   6    1.20    2.75
 -11  -7   6   -2.84    2.37
 -10  -7   6    1.20    2.68
  -9  -7   6    3.71    2.99
  -8  -7   6    3.47    2.52
   8   7  -6    2.81    3.35
   7   7  -6   44.73    6.00
  -7  -7   6   30.99    4.42
  -6  -7   6   16.98    3.35
   6   7  -6   19.20    4.41
   5   7  -6   70.46    6.63
  -5  -7   6   74.20    5.52
  -4  -7   6    6.29    2.34
  -3  -7   6    0.65    1.54
  -2  -7   6    2.54    1.64
  -1  -7   6   79.41    3.66
  -1  -7   6   80.59    4.99
   0  -7   6    7.16    1.47
   0  -7   6    6.73    2.12
   1  -7   6   77.25    4.28
   1  -7   6   86.12    5.21
   2  -7   6   29.68    3.30
   3  -7   6    2.22    1.79
   3  -7   6    5.09    1.87
   4  -7   6   17.46    2.85
   4  -7   6   18.34    3.03
   5  -7   6   -1.17    1.47
   5  -7   6    1.28    1.54
   6  -7   6   91.55    6.20
   6  -7   6   85.70    5.53
   7  -7   6   42.73    4.83
   7  -7   6   46.56    4.21
   8  -7   6   43.64    4.32
   8  -7   6   39.41    4.78
   9  -7   6    0.75    1.98
  10  -7   6    3.58    2.46
  11  -7   6   -0.44    1.85
 -13  -6   6    6.78    3.97
 -12  -6   6   11.16    3.95
 -11  -6   6   -0.56    2.46
  10   6  -6    6.83    3.57
 -10  -6   6    3.98    2.92
  -9  -6   6    1.43    2.40
   9   6  -6   -2.94    2.50
   8   6  -6   54.20    6.62
  -8  -6   6   54.17    5.32
  -7  -6   6    4.62    2.49
   7   6  -6    6.00    3.31
  -6  -6   6   71.48    5.42
   6   6  -6   67.25    6.75
   5   6  -6   -0.62    2.23
  -5  -6   6    0.20    1.64
  -4  -6   6    3.63    1.91
   4   6  -6    4.75    2.72
  -3  -6   6    0.75    1.46
   3   6  -6   -3.81    1.56
  -2  -6   6   62.48    4.30
   2   6  -6   62.57    5.28
  -1  -6   6   17.86    1.59
  -1  -6   6   22.45    2.81
   0  -6   6    3.91    1.13
   0  -6   6    2.54    1.53
   1  -6   6   53.90    3.91
   1  -6   6   52.92    3.22
   2  -6   6   18.38    2.74
   3  -6   6    7.05    1.84
   3  -6   6    5.17    1.96
   4  -6   6  119.24    6.21
   4  -6   6  112.66    6.05
   5  -6   6   46.35    4.36
   5  -6   6   43.26    3.79
   6  -6   6   26.67    3.31
   6  -6   6   29.49    3.83
   7  -6   6    1.40    1.92
   7  -6   6    2.04    1.88
   8  -6   6    5.73    2.57
   8  -6   6    2.17    1.66
   9  -6   6    6.35    2.74
  10  -6   6    4.57    2.54
  11  -6   6   -0.34    0.99
  12   5  -6   -4.34    2.30
 -12  -5   6    1.39    2.65
  11   5  -6    1.07    2.96
 -11  -5   6   -3.71    2.32
 -10  -5   6    3.14    2.72
  10   5  -6    3.30    2.67
   9   5  -6   15.63    4.29
  -9  -5   6   17.44    3.62
  -8  -5   6    4.68    2.72
   8   5  -6    4.03    3.12
   7   5  -6   13.54    3.95
  -7  -5   6    8.86    2.67
   6   5  -6    5.53    2.91
  -6  -5   6    7.85    2.49
   5   5  -6   -1.29    1.63
  -5  -5   6    1.40    1.78
  -4  -5   6    1.56    1.50
   4   5  -6    2.16    2.01
   3   5  -6   90.18    6.25
  -3  -5   6  100.15    5.31
   2   5  -6   18.82    3.08
  -2  -5   6   21.32    2.67
  -1  -5   6   18.29    2.43
  -1  -5   6   14.98    1.30
   1   5  -6   14.95    2.74
   0  -5   6    2.12    1.39
   0   5  -6    5.64    1.89
   1  -5   6   50.56    3.61
   1  -5   6   41.90    2.78
   2  -5   6    3.67    1.58
   2  -5   6    1.58    0.83
   3  -5   6  110.62    5.33
   3  -5   6  107.75    5.45
   4  -5   6   65.20    4.44
   4  -5   6   77.37    4.70
   5  -5   6   69.80    4.72
   5  -5   6   67.18    4.82
   6  -5   6   18.40    2.86
   6  -5   6   28.58    3.71
   7  -5   6    5.95    2.41
   7  -5   6    5.28    2.09
   8  -5   6   39.82    4.60
   8  -5   6   44.18    3.94
  -9   5  -6   20.75    3.83
  -9   5  -6   23.92    4.24
   9  -5   6   13.42    3.23
 -10   5  -6   75.74    5.93
 -10   5  -6   77.02    6.21
  10  -5   6   68.43    6.09
  11  -5   6   -0.04    1.84
  12  -5   6   -0.23    1.82
  12   4  -6   -0.23    2.74
  11   4  -6    5.47    3.08
 -11  -4   6    4.20    2.87
  10   4  -6    8.67    3.63
 -10  -4   6    7.91    3.04
   9   4  -6    8.15    3.52
  -9  -4   6    9.65    3.12
   8   4  -6    0.71    2.60
  -8  -4   6    0.20    1.90
   7   4  -6   10.87    3.43
  -7  -4   6    7.78    2.45
   6   4  -6   52.36    5.66
  -6  -4   6   60.53    4.39
  -5  -4   6    4.23    1.75
   5   4  -6    2.67    2.21
  -4  -4   6  128.13    6.15
   4   4  -6  141.06    7.82
   3   4  -6    3.81    2.25
  -3  -4   6    5.66    1.68
   2   4  -6   63.46    4.82
  -2  -4   6   64.20    3.88
  -1  -4   6    0.52    1.14
   1   4  -6   -0.14    1.48
   0   4  -6   20.01    2.54
   0  -4   6   20.43    2.34
   0  -4   6   16.02    1.47
  -1   4  -6   -0.04    1.14
   1  -4   6    1.50    1.24
   1  -4   6    1.16    0.98
   2  -4   6   60.24    3.71
   2  -4   6   53.12    3.07
   3  -4   6  134.50    5.85
   3  -4   6  129.66    5.70
   4  -4   6   35.80    3.31
   4  -4   6   35.07    3.27
   5  -4   6    3.16    1.79
   5  -4   6    4.02    1.86
   6  -4   6   20.75    3.12
   6  -4   6   17.95    2.78
   7  -4   6   41.79    3.95
   7  -4   6   40.42    4.28
   8  -4   6    3.91    2.31
  -9   4  -6   93.25    6.56
   9  -4   6   83.31    6.24
  -9   4  -6   82.55    6.25
  10  -4   6    5.06    2.44
 -10   4  -6    8.33    2.75
 -10   4  -6    2.29    2.55
 -11   4  -6    8.86    3.15
  11  -4   6    2.65    2.22
  12  -4   6    1.45    1.29
  12   3  -6   12.69    4.21
 -11  -3   6   30.48    4.73
  11   3  -6   32.04    5.31
 -10  -3   6   17.52    3.81
  10   3  -6   14.69    3.98
   9   3  -6    4.87    2.91
  -9  -3   6    2.23    2.22
  -8  -3   6    3.10    2.24
   8   3  -6   -0.41    2.49
   7   3  -6   58.40    3.71
  -7  -3   6   59.23    4.51
   7   3  -6   62.60    6.05
   6   3  -6    2.36    2.20
   6   3  -6    3.81    1.27
  -6  -3   6    2.75    1.57
   5   3  -6   81.56    6.12
  -5  -3   6   91.99    4.88
   5   3  -6   87.65    3.68
   4   3  -6   15.81    2.88
  -4  -3   6   15.25    2.19
   4   3  -6   13.45    1.26
   3   3  -6   42.13    4.09
  -3  -3   6   43.17    3.15
  -2  -3   6   17.82    2.15
   2   3  -6   23.03    2.97
  -1  -3   6   34.41    2.70
   1   3  -6   38.73    3.44
   0  -3   6   16.12    2.00
   0   3  -6   13.25    2.12
   0  -3   6   14.08    1.26
   1  -3   6  213.51    6.54
   1  -3   6  206.13    7.28
  -1   3  -6  204.90    7.31
   2  -3   6   29.05    2.59
  -2   3  -6   30.05    2.16
   2  -3   6   25.90    2.24
   3  -3   6   13.34    2.03
   3  -3   6   16.33    2.15
   4  -3   6    9.28    1.88
   4  -3   6    9.76    2.02
   5  -3   6  112.61    5.88
   5  -3   6  125.34    5.93
   6  -3   6   57.00    4.14
   6  -3   6   56.50    4.36
   7  -3   6   59.54    4.89
   7  -3   6   76.12    4.83
   8  -3   6   44.33    4.56
  -8   3  -6   48.51    4.93
  -8   3  -6   47.90    4.55
   9  -3   6   34.20    4.27
  -9   3  -6   38.56    4.66
  -9   3  -6   31.75    4.47
 -10   3  -6    6.31    2.91
  10  -3   6    5.07    2.40
 -11   3  -6    3.44    2.47
  11  -3   6   -0.94    1.32
 -12   3  -6   26.19    4.16
  12  -3   6   31.65    4.61
  13  -3   6    5.72    2.07
  11   2  -6    2.67    2.43
  10   2  -6   -1.27    2.33
 -10  -2   6   -0.45    2.07
   9   2  -6    8.18    3.35
   9   2  -6    8.05    2.10
  -9  -2   6    4.02    2.24
   8   2  -6    4.95    1.73
  -8  -2   6   11.20    2.47
   8   2  -6    5.36    2.80
   7   2  -6   46.05    5.08
  -7  -2   6   50.87    3.82
   7   2  -6   46.10    3.48
   6   2  -6   51.17    4.93
   6   2  -6   44.02    3.04
  -6  -2   6   37.07    3.42
  -5  -2   6   17.08    2.29
   5   2  -6   16.79    3.01
   5   2  -6   20.11    1.95
   4   2  -6    1.06    1.57
   4   2  -6    0.31    0.78
  -4  -2   6    0.15    1.05
   3   2  -6   -0.52    1.36
  -3  -2   6    1.29    1.05
   3   2  -6   -0.12    0.55
  -2  -2   6  231.50    7.58
   2   2  -6  232.17    8.93
  -1  -2   6   37.58    2.52
   1   2  -6   33.01    2.94
   0  -2   6  322.50    9.76
   0   2  -6  331.20   10.39
   1  -2   6  239.27    7.09
   1  -2   6  251.67    7.97
  -1   2  -6  232.09    7.66
   2  -2   6   29.69    2.41
   2  -2   6   18.30    1.99
  -2   2  -6   16.30    1.55
   3  -2   6   76.13    3.99
   3  -2   6   75.65    3.94
   4  -2   6   22.99    2.57
   4  -2   6   21.15    2.46
   5  -2   6   29.91    3.04
   5  -2   6   29.18    3.05
   6  -2   6  153.03    6.76
   6  -2   6  139.25    6.81
  -7   2  -6   71.28    5.23
   7  -2   6   71.56    5.13
  -7   2  -6   71.60    5.29
   8  -2   6   -0.02    1.70
  -8   2  -6   -1.78    1.58
  -8   2  -6   -0.65    1.45
  -9   2  -6    5.52    2.76
  -9   2  -6    4.30    2.27
   9  -2   6    4.92    2.32
  10  -2   6    2.02    1.73
 -10   2  -6    0.02    2.23
  11  -2   6   47.25    5.23
 -11   2  -6   45.56    5.09
  12  -2   6    8.25    2.66
 -12   2  -6    0.92    2.46
  13  -2   6   48.58    5.81
  10   1  -6   13.30    3.85
  10   1  -6   20.22    3.06
   9   1  -6   50.67    4.18
  -9  -1   6   43.38    4.37
   9   1  -6   59.28    5.96
   8   1  -6   15.25    3.66
  -8  -1   6   13.51    2.58
   8   1  -6   18.98    2.80
   7   1  -6   13.65    2.28
  -7  -1   6    6.56    1.68
   7   1  -6   11.71    2.97
   6   1  -6    2.73    1.38
   6   1  -6    1.51    1.78
  -6  -1   6    4.50    1.33
   5   1  -6   25.67    2.37
   5   1  -6   28.24    3.38
  -5  -1   6   24.93    2.28
   4   1  -6   13.89    1.58
  -4  -1   6   17.25    1.80
   4   1  -6   16.86    2.60
   3   1  -6  153.16    4.90
   3   1  -6  155.44    6.87
  -3  -1   6  148.05    5.39
   2   1  -6   17.88    1.32
   2   1  -6   18.31    2.39
  -2  -1   6   18.65    1.72
   1   1  -6  122.58    3.55
   1   1  -6  118.83    5.21
  -1  -1   6  117.31    4.36
   0   1  -6   83.90    4.07
   0  -1   6   83.33    3.62
  -1   1  -6    7.48    1.42
   1  -1   6    8.78    1.49
   2  -1   6  127.91    4.90
   2  -1   6  119.29    4.65
   3  -1   6  228.33    7.82
   3  -1   6  250.54    8.04
   4  -1   6    5.00    1.50
   4  -1   6    6.99    1.63
   5  -1   6    4.39    1.51
   5  -1   6    9.54    1.94
   6  -1   6   31.80    3.33
  -6   1  -6   35.88    3.90
  -6   1  -6   32.50    3.60
   7  -1   6    1.30    1.66
  -7   1  -6    0.97    1.60
  -7   1  -6    2.55    1.75
   8  -1   6    1.66    1.89
  -8   1  -6    2.71    1.99
  -8   1  -6    1.58    1.83
   9  -1   6   73.95    5.55
  -9   1  -6   59.02    5.52
 -10   1  -6   41.16    4.89
  10  -1   6   44.16    4.68
  11  -1   6   23.74    3.87
 -11   1  -6   19.81    3.99
 -12   1  -6    8.13    3.11
  12  -1   6   13.19    3.09
 -13   1  -6    1.60    2.43
  13  -1   6   -2.58    1.34
  11   0  -6   17.81    3.18
  10   0  -6   36.26    5.06
  10   0  -6   28.98    3.73
   9   0  -6   23.39    4.11
   9   0  -6   21.91    3.11
   8   0  -6   31.89    3.58
  -8   0   6   33.44    3.28
   8   0  -6   27.84    4.19
   7   0  -6   19.54    3.29
   7   0  -6   19.18    2.80
  -7   0   6   21.18    2.49
   6   0  -6   -0.12    1.12
  -6   0   6    2.58    1.24
   6   0  -6   -0.01    1.37
  -5   0   6   69.61    3.54
   5   0  -6   63.62    3.66
   5   0  -6   66.38    4.63
   4   0  -6  159.52    5.69
   4   0  -6  151.19    7.13
  -4   0   6  145.02    5.41
   3   0  -6    9.20    1.86
   3   0  -6   11.20    1.43
  -3   0   6   10.68    1.38
  -2   0   6  117.34    3.89
   2   0  -6  106.33    3.81
   2   0  -6  104.11    5.16
   1   0  -6  196.35    5.77
   1   0  -6  201.69    7.32
  -1   0   6  197.42    5.88
   0   0   6   13.99    1.39
   1   0   6  134.33    4.71
   2   0   6  126.42    4.81
   3   0   6   87.67    4.08
   3   0   6   89.96    4.13
   4   0   6  154.74    6.13
  -5   0  -6    1.51    1.42
   5   0   6    0.45    1.14
  -5   0  -6    0.46    1.48
  -6   0  -6   -0.47    1.30
  -6   0  -6    1.04    1.50
   6   0   6    1.70    1.46
   7   0   6   22.64    3.09
  -7   0  -6   23.13    3.46
  -7   0  -6   23.66    3.33
  -8   0  -6  107.83    6.64
   8   0   6  104.39    6.27
  -9   0  -6  107.38    7.11
   9   0   6  108.61    6.68
  10   0   6   15.10    3.03
 -10   0  -6   18.86    3.81
 -11   0  -6   12.73    3.45
  11   0   6   17.00    3.31
  12   0   6    1.97    1.69
 -12   0  -6    3.08    2.71
  13   0   6    6.07    2.31
 -13   0  -6    3.19    2.85
 -14   0  -6    8.59    3.53
  12  -1  -6   37.02    4.58
  11  -1  -6    4.47    2.28
  10  -1  -6   -0.54    1.34
   9  -1  -6   35.67    4.60
   9  -1  -6   40.43    4.20
   8  -1  -6   -2.42    1.26
   8  -1  -6   -0.19    2.00
   7  -1  -6    7.23    2.17
   7  -1  -6    9.16    2.46
  -7   1   6    5.98    1.63
   6  -1  -6    0.22    1.35
   6  -1  -6    0.54    1.33
  -6   1   6    0.45    0.92
   5  -1  -6   24.50    2.55
   5  -1  -6   19.85    2.76
  -5   1   6   22.15    2.04
  -4   1   6    4.50    0.98
   4  -1  -6    3.62    1.23
   4  -1  -6    3.83    1.65
  -3   1   6   78.64    2.99
   3  -1  -6   78.95    3.68
   3  -1  -6   84.29    4.73
   2  -1  -6  104.71    4.04
  -1   1   6   13.99    1.32
   1  -1  -6   14.28    1.42
   0   1   6   88.48    3.04
   0  -1  -6   76.98    3.46
   1   1   6   26.24    1.90
   2   1   6  374.79   10.64
  -3  -1  -6   69.93    4.07
  -3  -1  -6   80.54    4.18
  -4  -1  -6    9.10    2.06
  -4  -1  -6    9.52    2.00
  -5  -1  -6    0.34    1.21
   5   1   6    0.92    1.16
  -5  -1  -6   -0.08    1.29
   6   1   6   36.20    3.31
  -6  -1  -6   39.65    3.58
  -7  -1  -6    3.09    1.86
   7   1   6   -0.74    1.31
  -8  -1  -6   55.78    4.85
   8   1   6   55.48    4.56
  -9  -1  -6   58.09    5.23
   9   1   6   47.28    4.67
 -10  -1  -6   28.48    4.32
  10   1   6   26.28    3.72
 -11  -1  -6   23.15    4.10
  11   1   6   16.03    3.38
 -12  -1  -6   25.15    4.74
  12   1   6   26.00    4.07
 -13  -1  -6    1.94    3.15
  13   1   6    1.87    1.63
 -14  -1  -6   17.87    4.09
  13  -2  -6   45.15    5.57
  12  -2  -6   14.82    3.44
  11  -2  -6   19.49    3.71
  10  -2  -6    1.60    1.86
   9  -2  -6   18.24    3.10
   9  -2  -6   10.02    2.93
   8  -2  -6   48.31    4.34
   8  -2  -6   56.17    4.74
   7  -2  -6   40.24    3.87
   7  -2  -6   49.55    4.10
   6  -2  -6   96.70    5.32
  -6   2   6   90.41    4.26
   6  -2  -6   99.27    5.82
   5  -2  -6   50.41    3.99
   5  -2  -6   52.24    3.61
  -5   2   6   51.37    2.76
   4  -2  -6    0.10    1.30
   4  -2  -6    2.21    1.24
   3  -2  -6   90.03    4.20
   2  -2  -6   82.27    3.79
   1  -2  -6   35.39    2.40
   0  -2  -6  239.46    7.55
   0  -2  -6  237.31    6.98
   0  -2  -6  247.13    6.82
  -1  -2  -6  244.77    7.42
  -1  -2  -6  244.14    7.57
  -2  -2  -6  312.16    9.75
  -2  -2  -6  301.55    9.39
  -3  -2  -6   -0.01    1.07
  -4  -2  -6   85.75    4.59
  -5  -2  -6    0.52    1.29
  -6  -2  -6  175.87    7.96
  -7  -2  -6    3.40    1.71
  -8  -2  -6    3.57    2.26
  -9  -2  -6    2.50    2.12
 -10  -2  -6   19.43    4.06
 -11  -2  -6   25.85    4.91
 -12  -2  -6   16.17    4.35
 -14  -2  -6    1.54    3.18
  13  -3  -6    2.32    2.40
  12  -3  -6    1.89    1.79
  11  -3  -6    2.75    1.88
  10  -3  -6   28.72    4.01
   9  -3  -6    0.32    1.73
   8  -3  -6   23.22    3.11
   8  -3  -6   25.84    3.47
   7  -3  -6   74.37    5.20
   7  -3  -6   74.54    5.18
   6  -3  -6   42.19    3.88
   6  -3  -6   49.61    4.14
   5  -3  -6   25.42    2.85
   5  -3  -6   18.80    2.65
   4  -3  -6    6.65    1.72
   3  -3  -6   32.60    2.77
   2  -3  -6   14.11    1.82
   1  -3  -6  285.86    8.94
   0  -3  -6  125.82    4.04
   0  -3  -6  129.14    5.08
  -1  -3  -6   35.23    2.79
  -1  -3  -6   39.06    2.37
  -2  -3  -6    0.01    0.93
  -3  -3  -6  199.49    7.28
  -4  -3  -6   -0.45    1.06
  -5  -3  -6  120.93    6.01
  -6  -3  -6   34.23    3.64
  -7  -3  -6    8.49    2.39
  -8  -3  -6    8.36    2.71
  -9  -3  -6   21.70    3.94
 -10  -3  -6   17.43    4.19
 -11  -3  -6   44.82    5.48
 -12  -3  -6   19.52    4.50
 -13  -3  -6    0.98    3.10
 -14  -3  -6    1.56    3.18
  12  -4  -6    1.83    2.04
  11  -4  -6   35.42    4.58
  10  -4  -6   19.41    3.64
   9  -4  -6   32.29    4.15
   8  -4  -6    3.13    2.04
   7  -4  -6    0.91    0.59
   7  -4  -6   -0.08    1.56
   6  -4  -6    2.08    1.67
   6  -4  -6    3.14    1.63
   5  -4  -6    7.86    2.21
   5  -4  -6    5.29    1.88
   4  -4  -6  164.78    7.06
   3  -4  -6   42.50    3.33
   2  -4  -6    2.74    1.25
   1  -4  -6   71.14    3.85
   0  -4  -6    0.94    0.70
   0  -4  -6    1.48    1.04
  -1  -4  -6    0.48    0.81
  -1  -4  -6   -0.27    0.88
  -2  -4  -6  282.44    9.04
  -3  -4  -6   22.77    2.48
  -4  -4  -6   87.99    4.91
  -5  -4  -6    3.72    1.73
  -6  -4  -6   -0.44    1.56
  -7  -4  -6    9.04    2.51
  -8  -4  -6   67.70    5.64
  -9  -4  -6    2.65    2.61
 -10  -4  -6   18.89    4.24
 -11  -4  -6   27.65    5.11
 -12  -4  -6    3.58    3.12
 -13  -4  -6    7.05    3.52
 -14  -4  -6   14.67    4.78
  12  -5  -6    5.37    2.52
  11  -5  -6    1.50    1.94
  10  -5  -6   35.61    4.72
   9  -5  -6   38.57    4.55
   8  -5  -6   -0.72    1.69
   7  -5  -6   20.32    3.00
   7  -5  -6   28.56    3.82
   6  -5  -6   30.02    3.56
   5  -5  -6  143.07    7.06
   4  -5  -6   37.34    3.56
   3  -5  -6  111.67    5.65
   2  -5  -6   39.59    3.23
   1  -5  -6    5.33    1.52
   0  -5  -6   31.42    2.77
   0  -5  -6   32.90    2.03
  -1  -5  -6   80.14    4.37
  -1  -5  -6   86.44    3.80
  -2  -5  -6    1.66    1.24
  -2  -5  -6    0.28    0.90
  -3  -5  -6   62.19    3.77
  -4  -5  -6   10.53    2.05
  -5  -5  -6    0.31    1.22
  -6  -5  -6    8.64    2.38
  -7  -5  -6   47.39    4.30
  -8  -5  -6   59.55    5.61
  -9  -5  -6   10.47    3.22
 -10  -5  -6    1.81    2.53
 -11  -5  -6   -2.32    2.59
 -12  -5  -6   -0.34    2.47
 -13  -5  -6    1.40    3.53
  11  -6  -6    6.59    2.64
  10  -6  -6    6.66    2.84
   9  -6  -6    1.68    2.07
   8  -6  -6   12.96    3.08
   7  -6  -6   91.20    6.30
   6  -6  -6   13.18    2.84
   5  -6  -6   19.16    2.98
   4  -6  -6   53.67    4.22
   3  -6  -6   17.83    2.65
   2  -6  -6   72.93    4.56
   1  -6  -6   10.48    1.32
   1  -6  -6   12.25    2.12
   0  -6  -6   17.63    1.78
   0  -6  -6   18.48    2.38
  -1  -6  -6    0.23    0.85
  -1  -6  -6    0.02    0.95
  -2  -6  -6   69.07    4.30
  -2  -6  -6   69.64    3.86
  -3  -6  -6    5.86    1.70
  -3  -6  -6    4.92    1.77
  -4  -6  -6   22.41    2.78
  -5  -6  -6    6.70    2.05
  -6  -6  -6   42.64    3.90
  -7  -6  -6    0.74    1.40
  -8  -6  -6   40.02    4.56
  -9  -6  -6   -0.60    2.07
 -10  -6  -6   13.63    3.97
 -11  -6  -6    9.36    3.84
 -12  -6  -6    9.16    3.94
 -13  -6  -6    0.12    2.31
  10  -7  -6    4.97    2.19
   9  -7  -6    0.91    2.05
   8  -7  -6   68.14    5.84
   7  -7  -6   78.87    6.06
   6  -7  -6   37.29    4.30
   5  -7  -6   40.97    4.25
   4  -7  -6    2.09    1.60
   3  -7  -6   84.17    5.34
   2  -7  -6    5.42    1.87
   1  -7  -6  249.97    7.76
   1  -7  -6  236.37    9.30
   0  -7  -6   67.89    4.27
   0  -7  -6   63.06    3.42
  -1  -7  -6   10.36    2.14
  -1  -7  -6    9.25    1.69
  -2  -7  -6   15.56    2.21
  -2  -7  -6   18.14    2.51
  -3  -7  -6   34.82    3.21
  -3  -7  -6   40.57    3.49
  -4  -7  -6    2.95    1.80
  -4  -7  -6    4.64    1.85
  -5  -7  -6   43.84    4.12
  -6  -7  -6   13.60    2.73
  -7  -7  -6   94.01    6.23
  -8  -7  -6    1.54    1.89
  -9  -7  -6    1.52    1.85
 -10  -7  -6   15.98    4.11
 -11  -7  -6   27.23    5.33
 -12  -7  -6   10.45    4.02
 -13  -7  -6    1.13    2.87
  10  -8  -6    0.85    1.92
   9  -8  -6    3.02    1.85
   8  -8  -6    3.53    2.12
   7  -8  -6   43.36    5.02
   6  -8  -6   11.51    2.94
   5  -8  -6   64.65    5.31
   4  -8  -6   24.40    3.49
   3  -8  -6   20.64    3.16
   2  -8  -6   82.30    5.34
   1  -8  -6   50.42    3.14
   1  -8  -6   53.78    4.24
   0  -8  -6    3.26    1.41
   0  -8  -6    2.84    1.57
  -1  -8  -6    1.11    1.28
  -1  -8  -6    1.09    1.35
  -2  -8  -6    9.50    2.14
  -2  -8  -6   13.15    2.11
  -3  -8  -6   -0.20    1.16
  -3  -8  -6    0.16    1.27
  -4  -8  -6   73.92    5.03
  -4  -8  -6   72.56    4.89
  -5  -8  -6    2.23    1.96
  -5  -8  -6    1.62    1.54
  -6  -8  -6   40.67    4.33
  -7  -8  -6    4.36    2.01
  -8  -8  -6   27.20    4.02
  -9  -8  -6    1.80    1.75
 -10  -8  -6   17.56    4.00
 -11  -8  -6    4.64    3.26
 -12  -8  -6   -0.08    2.49
   9  -9  -6    2.19    2.18
   8  -9  -6    2.19    2.16
   7  -9  -6    8.66    3.09
   6  -9  -6   10.52    3.03
   5  -9  -6   35.14    4.44
   4  -9  -6   85.72    6.07
   3  -9  -6   17.67    3.06
   2  -9  -6    7.34    2.31
   1  -9  -6    1.29    1.54
   0  -9  -6   10.31    2.47
   0  -9  -6    9.60    2.02
  -1  -9  -6  103.05    5.40
  -1  -9  -6  109.96    6.03
  -2  -9  -6   21.64    2.78
  -2  -9  -6   14.27    2.69
  -3  -9  -6   79.61    4.98
  -3  -9  -6   77.86    5.08
  -4  -9  -6    2.29    1.47
  -4  -9  -6    2.20    1.59
  -5  -9  -6    3.36    1.80
  -5  -9  -6    4.81    2.22
  -6  -9  -6   18.41    3.20
  -6  -9  -6   15.43    3.11
  -7  -9  -6    2.46    1.89
  -8  -9  -6   -0.13    1.51
  -9  -9  -6   72.80    6.27
 -10  -9  -6   11.36    3.31
 -11  -9  -6   11.96    3.47
 -12  -9  -6   -0.68    2.44
   8 -10  -6   -0.70    1.41
   7 -10  -6    1.76    2.43
   6 -10  -6    8.32    3.00
   5 -10  -6   68.90    5.96
   4 -10  -6   37.76    4.52
   3 -10  -6   -0.21    1.53
   2 -10  -6    2.65    1.95
   1 -10  -6   11.99    2.69
   0 -10  -6   78.11    5.48
  -1 -10  -6   34.78    3.97
  -1 -10  -6   39.02    3.69
  -2 -10  -6   89.88    5.73
  -2 -10  -6   91.11    5.48
  -3 -10  -6    0.36    1.47
  -3 -10  -6    1.92    1.66
  -4 -10  -6    0.38    1.36
  -4 -10  -6   -0.20    1.42
  -5 -10  -6    0.33    1.41
  -5 -10  -6    0.11    1.54
  -6 -10  -6   44.72    4.66
  -6 -10  -6   44.43    4.67
  -7 -10  -6    1.15    1.71
  -7 -10  -6    0.28    1.40
  -8 -10  -6   26.50    4.03
  -9 -10  -6    1.15    1.72
 -10 -10  -6   -1.06    1.28
 -11 -10  -6    0.66    1.72
   7 -11  -6   -0.78    1.28
   6 -11  -6   14.79    3.61
   5 -11  -6    5.04    2.70
   4 -11  -6    2.52    2.16
   3 -11  -6   11.27    2.90
   2 -11  -6   42.51    4.70
   1 -11  -6   17.32    3.22
   0 -11  -6   16.03    3.07
  -1 -11  -6   18.68    3.29
  -2 -11  -6   17.82    3.12
  -2 -11  -6   18.79    2.92
  -3 -11  -6    1.72    1.81
  -3 -11  -6    0.56    1.66
  -4 -11  -6    0.19    1.58
  -4 -11  -6    0.61    1.52
  -5 -11  -6   57.12    4.98
  -5 -11  -6   52.47    4.73
  -6 -11  -6   -0.07    1.85
  -6 -11  -6   -1.03    1.30
  -7 -11  -6   13.34    3.33
  -7 -11  -6    9.47    2.83
  -8 -11  -6    1.05    1.80
  -9 -11  -6    3.30    2.00
 -10 -11  -6    2.39    1.90
 -11 -11  -6   13.01    3.49
   6 -12  -6    0.15    1.24
   5 -12  -6    0.24    2.27
   4 -12  -6    3.10    2.45
   3 -12  -6   30.06    4.38
   2 -12  -6   41.50    4.84
   1 -12  -6   31.33    4.21
   0 -12  -6   48.81    4.99
  -1 -12  -6   -1.08    1.44
  -2 -12  -6   48.41    4.96
  -3 -12  -6    2.57    2.03
  -3 -12  -6    0.70    1.70
  -4 -12  -6   47.34    4.91
  -4 -12  -6   57.64    4.92
  -5 -12  -6    5.51    2.22
  -5 -12  -6    2.10    2.01
  -6 -12  -6   11.17    2.80
  -6 -12  -6   11.10    2.90
  -7 -12  -6   -0.93    1.54
  -8 -12  -6    8.56    2.74
  -9 -12  -6    4.90    2.20
 -10 -12  -6    9.32    2.93
   5 -13  -6   -0.72    1.66
   4 -13  -6    8.53    3.17
   3 -13  -6   15.88    3.77
   2 -13  -6   21.08    4.07
   1 -13  -6   -2.92    1.53
   0 -13  -6    7.11    2.85
  -2 -13  -6    6.14    2.58
  -3 -13  -6   41.75    5.01
  -4 -13  -6    2.32    2.20
  -4 -13  -6    3.89    2.23
  -5 -13  -6    5.71    2.45
  -6 -13  -6    2.66    2.09
  -7 -13  -6    4.82    2.21
  -8 -13  -6    0.65    1.83
  -9 -13  -6   12.61    3.25
   4 -14  -6   18.27    4.34
   3 -14  -6    3.51    2.24
   2 -14  -6    3.75    2.25
   1 -14  -6   -0.68    2.02
   0 -14  -6   10.07    3.34
  -1 -14  -6   24.99    4.11
  -2 -14  -6   43.93    5.22
  -5 -14  -6    0.14    2.01
  -6 -14  -6    2.31    2.30
  -7 -14  -6   -0.07    1.40
  -8 -14  -6   23.65    4.24
   2 -15  -6    4.84    2.95
   1 -15  -6    5.10    2.55
   0 -15  -6   41.44    5.43
  -6 -15  -6    1.95    2.26
  -7 -15  -6   29.26    4.86
  -4 -14   7    4.34    2.23
  -3 -14   7    0.08    1.65
  -2 -14   7    1.44    1.72
  -1 -14   7    6.64    2.70
   0 -14   7   12.37    3.03
   1 -14   7   11.32    2.96
   2 -14   7    5.98    2.23
  -6 -13   7   -0.48    1.89
  -5 -13   7   13.31    3.57
  -4 -13   7   10.21    3.36
  -3 -13   7    8.88    2.98
  -2 -13   7    8.27    2.67
  -1 -13   7    1.66    1.61
   0 -13   7    3.83    2.02
   1 -13   7   28.60    4.27
   2 -13   7    5.73    2.30
   3 -13   7    7.56    2.33
  -8 -12   7    0.25    2.40
  -7 -12   7    1.30    1.63
  -6 -12   7    0.93    1.91
  -5 -12   7   46.65    5.78
  -4 -12   7    3.17    2.18
  -3 -12   7    5.88    2.55
  -2 -12   7   -1.60    1.31
  -1 -12   7    0.74    1.55
   0 -12   7   -0.43    1.41
   1 -12   7    1.22    1.69
   2 -12   7   69.99    5.80
   3 -12   7   10.16    2.80
   4 -12   7    6.03    2.17
  -9 -11   7   -0.92    2.17
  -8 -11   7    1.71    2.32
  -7 -11   7    1.72    2.62
  -6 -11   7    4.40    2.96
  -5 -11   7    2.56    2.01
  -4 -11   7    4.02    2.48
  -3 -11   7    4.41    2.32
  -2 -11   7    3.38    1.82
  -1 -11   7   16.38    3.35
   0 -11   7    3.17    1.86
   1 -11   7    6.06    2.38
   2 -11   7   33.62    4.29
   3 -11   7    6.79    2.39
   4 -11   7   -0.49    1.54
   5 -11   7   15.22    3.19
   7 -11   7    4.97    3.47
   8 -11   7    7.96    3.55
 -10 -10   7   -0.46    2.02
  -9 -10   7    0.31    2.31
  -8 -10   7   -2.51    2.19
  -7 -10   7   24.76    4.65
  -6 -10   7    0.15    2.24
  -5 -10   7    0.27    1.95
  -4 -10   7   -1.33    1.60
  -3 -10   7   11.11    3.02
  -2 -10   7   32.21    4.14
  -1 -10   7   49.02    4.94
   0 -10   7    0.32    1.45
   1 -10   7    9.87    2.70
   2 -10   7   12.41    2.86
   3 -10   7   24.22    3.59
   4 -10   7   29.51    3.59
   5 -10   7   10.22    2.74
   5 -10   7   15.54    3.34
   6 -10   7   25.78    4.24
   6 -10   7   20.02    3.27
   7 -10   7    2.84    2.28
   8 -10   7   -0.36    1.94
   9 -10   7    5.34    3.40
 -11  -9   7    2.91    3.68
 -10  -9   7   10.56    3.75
  -9  -9   7    4.31    3.03
  -8  -9   7   49.27    5.95
  -7  -9   7    2.75    2.61
  -6  -9   7    6.57    2.63
  -5  -9   7   -0.20    1.81
  -4  -9   7    8.12    2.75
  -3  -9   7   -1.93    1.53
  -2  -9   7   47.50    4.65
  -1  -9   7    1.12    1.43
   0  -9   7   48.46    4.58
   1  -9   7   -0.27    1.29
   2  -9   7    1.54    1.57
   3  -9   7    0.90    1.68
   3  -9   7    2.47    1.89
   4  -9   7   23.04    3.38
   4  -9   7   30.65    3.90
   5  -9   7   25.84    3.85
   5  -9   7   28.66    3.61
   6  -9   7    1.40    1.91
   6  -9   7    2.96    2.13
   7  -9   7    7.58    2.61
   7  -9   7    5.39    2.68
   8  -9   7   -0.45    1.89
   9  -9   7   14.26    3.48
 -12  -8   7    8.06    4.64
 -11  -8   7    0.17    2.67
 -10  -8   7   -1.71    2.30
  -9  -8   7   18.01    4.29
  -8  -8   7    2.67    2.34
  -7  -8   7   -0.69    1.77
  -6  -8   7    2.97    2.37
  -5  -8   7   32.74    4.34
  -4  -8   7    6.54    2.55
  -3  -8   7   -1.22    1.50
  -2  -8   7   21.08    3.15
  -1  -8   7    1.56    1.60
   0  -8   7   64.18    4.73
   1  -8   7   65.19    4.09
   1  -8   7   62.32    4.74
   2  -8   7   17.73    2.96
   2  -8   7   11.61    2.06
   3  -8   7    9.66    2.50
   3  -8   7   13.35    2.57
   4  -8   7    4.77    2.21
   4  -8   7    3.86    2.05
   5  -8   7   44.88    4.54
   5  -8   7   37.79    4.03
   6  -8   7   14.92    3.28
   6  -8   7   14.55    2.97
   7  -8   7    3.82    2.30
   7  -8   7    0.71    1.76
   8  -8   7   27.99    4.28
   8  -8   7   33.35    4.20
   9  -8   7    0.31    1.96
  10  -8   7   -1.59    1.44
 -12  -7   7    2.42    3.08
 -11  -7   7   -1.13    2.42
 -10  -7   7    4.42    3.14
  -9  -7   7    5.88    3.25
   9   7  -7   -0.03    3.11
  -8  -7   7   -0.85    2.13
   8   7  -7   -0.07    2.75
   7   7  -7    0.88    2.82
  -7  -7   7    0.84    2.20
   6   7  -7  124.10    8.89
  -6  -7   7   99.12    6.76
   5   7  -7   -0.48    2.23
  -5  -7   7    1.63    2.00
   4   7  -7   44.40    5.31
  -4  -7   7   48.09    4.31
   3   7  -7    0.79    2.06
  -3  -7   7    2.80    1.96
  -2  -7   7   -0.26    1.36
  -1  -7   7   13.48    2.44
   0  -7   7  121.74    4.94
   0  -7   7  116.88    6.20
   1  -7   7   53.79    3.56
   1  -7   7   52.80    4.18
   2  -7   7   70.04    4.80
   3  -7   7   -1.10    1.26
   3  -7   7   -0.91    1.29
   4  -7   7   -0.20    1.45
   4  -7   7    1.25    1.80
   5  -7   7   14.09    3.00
   5  -7   7   14.26    2.67
   6  -7   7   -0.89    1.54
   6  -7   7    0.99    1.82
   7  -7   7   67.30    5.63
   7  -7   7   69.78    5.23
   8  -7   7   13.91    3.19
   8  -7   7   15.62    3.15
   9  -7   7   17.81    3.21
   9  -7   7   14.98    3.61
  10  -7   7    1.45    2.10
  11  -7   7   -1.13    1.70
 -12  -6   7    4.30    3.29
  11   6  -7    1.77    3.14
 -11  -6   7    0.21    2.28
 -10  -6   7   -1.92    2.28
  10   6  -7   -1.33    2.62
  -9  -6   7   -1.81    2.06
   9   6  -7    0.85    2.89
   8   6  -7   20.33    4.72
  -8  -6   7   12.99    3.45
  -7  -6   7  102.94    6.83
   7   6  -7  105.41    8.58
   6   6  -7    1.02    2.76
  -6  -6   7    0.46    1.80
  -5  -6   7   57.54    4.68
   5   6  -7   55.13    5.80
   4   6  -7   12.93    3.32
  -4  -6   7   16.35    2.85
  -3  -6   7   17.55    2.83
   3   6  -7   16.20    3.45
   2   6  -7    6.27    2.51
  -2  -6   7    2.32    1.68
  -1  -6   7    0.63    1.43
  -1  -6   7   -0.15    0.66
   1   6  -7    0.76    1.92
   0  -6   7   19.10    1.86
   0  -6   7   20.43    2.77
   1  -6   7   43.98    2.97
   1  -6   7   46.39    3.82
   2  -6   7   26.30    3.22
   3  -6   7    6.93    2.12
   3  -6   7    5.25    1.91
   4  -6   7   26.32    3.17
   4  -6   7   30.51    3.44
   5  -6   7    0.80    2.00
   5  -6   7    0.98    1.54
   6  -6   7    1.71    1.60
   6  -6   7   -1.98    1.57
   7  -6   7   35.52    4.23
   7  -6   7   36.34    4.04
   8  -6   7    2.05    1.57
   8  -6   7   -0.10    1.87
   9  -6   7    6.26    2.75
 -10   6  -7    1.70    2.99
  10  -6   7    5.22    3.48
 -10   6  -7    9.16    2.90
  11  -6   7   -0.66    1.33
  12   5  -7    0.87    2.85
 -12  -5   7   -1.74    2.50
 -11  -5   7    0.60    2.56
  11   5  -7    0.75    2.86
  10   5  -7   11.16    4.10
 -10  -5   7    6.62    2.88
   9   5  -7    3.61    3.12
  -9  -5   7    1.79    2.37
  -8  -5   7   24.38    3.82
   8   5  -7   14.83    4.34
  -7  -5   7    8.50    2.81
   7   5  -7    7.06    3.45
  -6  -5   7   22.39    3.35
   6   5  -7   13.09    3.73
  -5  -5   7    0.03    1.44
   5   5  -7    1.88    2.29
  -4  -5   7  144.05    6.85
   4   5  -7  138.07    8.41
  -3  -5   7   -0.69    1.18
   3   5  -7    1.90    2.11
   2   5  -7  112.57    6.78
  -2  -5   7  109.14    5.61
   1   5  -7   -0.55    1.42
  -1  -5   7   -0.25    1.15
   0  -5   7    3.13    1.58
   0  -5   7    2.34    0.96
   0   5  -7    2.35    1.73
   1  -5   7   76.06    3.69
   1  -5   7   79.63    4.63
   2  -5   7   26.81    2.98
   3  -5   7  108.48    5.54
   3  -5   7   99.06    5.12
   4  -5   7   49.98    4.02
   4  -5   7   58.46    4.18
   5  -5   7   -0.57    1.59
   5  -5   7    0.83    1.43
   6  -5   7   13.91    2.76
   6  -5   7   13.12    2.61
   7  -5   7   13.15    2.90
   7  -5   7   18.16    3.06
   8  -5   7   16.20    3.01
   8  -5   7    7.68    2.56
  -9   5  -7   44.97    5.39
   9  -5   7   48.52    5.26
  -9   5  -7   59.54    6.03
  10  -5   7   14.93    3.37
 -10   5  -7   19.03    3.92
 -10   5  -7   18.07    3.66
  11  -5   7    5.87    2.64
  12  -5   7   -2.44    1.55
  12   4  -7   10.35    4.05
  11   4  -7   10.69    3.95
 -11  -4   7   15.99    3.79
  10   4  -7    1.17    2.36
 -10  -4   7    4.02    2.74
  -9  -4   7    8.19    2.79
   9   4  -7    6.41    3.26
   8   4  -7    3.96    2.96
  -8  -4   7    0.72    1.88
  -7  -4   7    4.96    2.39
   7   4  -7    4.33    2.95
  -6  -4   7   20.97    2.98
   6   4  -7   14.99    3.78
  -5  -4   7   88.76    5.26
   5   4  -7  104.69    7.15
   4   4  -7    3.34    2.27
  -4  -4   7    8.58    2.03
  -3  -4   7   89.95    4.82
   3   4  -7   84.61    5.97
  -2  -4   7    0.05    1.18
   2   4  -7   -1.00    1.57
   1   4  -7    1.98    1.72
  -1  -4   7    0.27    1.12
   0  -4   7   16.53    2.26
   0  -4   7   13.56    1.42
   0   4  -7   14.08    2.38
  -1   4  -7    0.43    1.22
   1  -4   7   -1.08    0.91
   1  -4   7    0.56    1.20
   2  -4   7   14.64    2.19
  -2   4  -7   14.17    1.83
   3  -4   7  120.22    5.71
   3  -4   7  133.69    5.75
   4  -4   7   14.80    2.43
   4  -4   7   21.43    2.81
   5  -4   7   14.00    2.57
   5  -4   7   16.68    2.70
   6  -4   7    2.04    1.55
   6  -4   7    0.82    1.68
   7  -4   7    1.64    1.63
   7  -4   7    0.59    1.83
   8  -4   7   -0.57    1.69
  -9   4  -7   31.10    4.54
   9  -4   7   31.82    4.29
  -9   4  -7   40.65    5.00
  10  -4   7   34.27    4.59
 -10   4  -7   46.53    5.35
 -10   4  -7   39.41    5.15
  11  -4   7    2.48    2.30
 -11   4  -7    8.29    3.19
  12  -4   7    0.67    1.21
  12   3  -7    7.26    3.72
  11   3  -7   10.59    3.52
 -10  -3   7    4.62    2.69
  10   3  -7    5.30    2.99
   9   3  -7    4.33    3.23
  -9  -3   7    4.79    2.46
   8   3  -7    8.17    3.35
  -8  -3   7    1.99    1.85
  -7  -3   7    2.56    1.62
   7   3  -7    1.99    2.69
  -6  -3   7   75.17    4.72
   6   3  -7   76.52    3.77
   6   3  -7   77.97    6.31
   5   3  -7    3.91    1.03
  -5  -3   7    3.01    1.56
   5   3  -7    5.04    2.44
   4   3  -7   48.07    4.60
  -4  -3   7   38.35    3.16
   4   3  -7   37.98    1.94
   3   3  -7    2.17    1.89
  -3  -3   7    0.36    1.20
   2   3  -7   -0.82    1.56
  -2  -3   7    0.63    1.13
   1   3  -7   40.40    3.63
  -1  -3   7   43.83    3.00
   0  -3   7  179.30    5.22
   0   3  -7  175.42    7.27
   0  -3   7  177.83    6.65
  -1   3  -7    2.98    1.36
   1  -3   7    2.87    1.03
   1  -3   7    4.94    1.46
  -2   3  -7   74.58    3.62
   2  -3   7   76.35    4.08
   3  -3   7  199.41    7.26
   3  -3   7  190.90    7.46
   4  -3   7   11.76    2.03
   4  -3   7   11.15    2.13
   5  -3   7   17.49    2.62
   5  -3   7   18.40    2.67
   6  -3   7   24.29    3.20
   6  -3   7   33.10    3.48
   7  -3   7   70.38    5.13
   7  -3   7   75.42    4.99
   8  -3   7    5.75    2.38
  -8   3  -7    6.41    2.84
  -8   3  -7    4.64    2.66
  -9   3  -7   -0.92    2.12
  -9   3  -7   -0.76    1.54
   9  -3   7   -1.90    1.59
  10  -3   7   51.01    5.39
 -10   3  -7   45.96    5.21
 -10   3  -7   56.96    5.85
  11  -3   7    3.86    2.34
 -11   3  -7    9.88    3.17
  12  -3   7    5.10    2.63
 -12   3  -7    5.15    2.62
  11   2  -7   26.45    5.01
  10   2  -7    1.34    2.54
   9   2  -7   15.98    3.91
  -9  -2   7   13.13    2.91
  -8  -2   7   23.65    3.31
   8   2  -7   23.86    3.01
   8   2  -7   31.91    4.71
  -7  -2   7    0.45    1.19
   7   2  -7    2.36    2.71
   7   2  -7    1.31    1.35
   6   2  -7    2.82    1.22
   6   2  -7    0.65    1.99
  -6  -2   7    2.35    1.51
   5   2  -7   34.81    2.46
   5   2  -7   35.76    4.10
  -5  -2   7   37.14    3.05
   4   2  -7    0.79    0.76
   4   2  -7    0.62    1.56
  -4  -2   7    0.39    1.10
  -3  -2   7    8.37    1.58
   3   2  -7    6.22    2.10
   3   2  -7    8.32    0.98
  -2  -2   7    5.14    1.29
   2   2  -7    2.77    1.60
  -1  -2   7   71.86    3.55
   1   2  -7   74.81    4.39
   0   2  -7   73.38    4.02
   0  -2   7   63.57    3.48
  -1   2  -7  137.25    5.39
   1  -2   7  141.55    4.73
   1  -2   7  134.66    5.45
   2  -2   7  210.95    7.06
   2  -2   7  239.56    7.73
  -2   2  -7  205.60    6.90
   3  -2   7    5.41    1.53
   3  -2   7    5.31    1.51
  -3   2  -7    5.12    0.82
   4  -2   7   34.96    3.05
   4  -2   7   31.34    2.93
   5  -2   7  113.93    5.71
   5  -2   7  108.72    5.54
   6  -2   7   54.09    4.25
   6  -2   7   53.00    4.04
   7  -2   7   62.59    4.86
  -7   2  -7   52.82    5.06
  -7   2  -7   55.45    4.72
  -8   2  -7   24.53    3.83
  -8   2  -7   22.58    3.85
   8  -2   7   25.24    3.67
  -9   2  -7    6.19    2.60
  -9   2  -7    7.44    2.85
   9  -2   7    7.98    2.56
 -10   2  -7    9.06    3.22
  10  -2   7   10.16    2.80
  11  -2   7   -1.03    1.41
 -11   2  -7   -0.71    2.03
  12  -2   7   71.01    6.24
 -13   2  -7    5.66    3.59
  13  -2   7   -0.77    1.32
  11   1  -7    1.97    2.62
  10   1  -7    1.39    2.47
   9   1  -7   73.40    4.98
   9   1  -7   75.98    6.80
   8   1  -7   36.73    4.98
   8   1  -7   36.97    3.69
   7   1  -7   13.55    3.25
   7   1  -7   18.19    2.55
   6   1  -7    2.14    1.82
   6   1  -7    0.01    1.19
  -6  -1   7   -0.17    0.43
   5   1  -7    1.22    1.65
  -5  -1   7   -0.55    0.30
   5   1  -7    1.03    1.04
   4   1  -7   32.68    2.26
   4   1  -7   38.90    3.73
   3   1  -7   34.04    3.36
   3   1  -7   40.00    2.17
   2   1  -7  147.56    6.67
  -2  -1   7  153.97    5.36
   2   1  -7  153.77    4.52
   1   1  -7    1.61    1.24
  -1  -1   7    0.42    0.92
   1   1  -7    0.35    0.45
   0   1  -7  355.84   11.22
   0  -1   7  359.60   10.37
   1  -1   7  248.67    7.92
  -1   1  -7  247.23    8.16
  -2   1  -7  120.87    4.45
   2  -1   7  119.89    4.91
   2  -1   7  113.61    4.61
   3  -1   7    0.25    0.97
   3  -1   7   -1.13    0.96
   4  -1   7    0.60    1.00
   4  -1   7    0.46    1.18
   5  -1   7   35.29    3.22
   5  -1   7   38.87    3.24
  -6   1  -7   14.60    2.84
  -6   1  -7   11.78    2.57
   6  -1   7   12.02    2.32
  -7   1  -7    1.08    1.77
   7  -1   7    1.48    1.68
  -7   1  -7    0.56    1.63
   8  -1   7   -1.11    1.53
  -8   1  -7   -0.99    1.69
  -8   1  -7   -1.10    1.43
   9  -1   7   67.23    5.21
  -9   1  -7   63.02    5.59
 -10   1  -7    3.54    2.55
  10  -1   7    2.43    1.73
  11  -1   7   19.09    3.52
 -11   1  -7   19.74    3.97
  12  -1   7   53.77    5.64
 -12   1  -7   32.26    4.47
 -13   1  -7    4.19    2.98
  13  -1   7    0.00    1.73
 -14   1  -7    2.40    3.35
  10   0  -7   12.88    2.77
  10   0  -7   17.62    4.12
   9   0  -7   41.19    4.09
   9   0  -7   38.08    4.98
   8   0  -7   16.32    3.43
   8   0  -7   19.16    2.95
  -8   0   7   19.64    2.62
   7   0  -7   11.30    2.82
  -7   0   7   11.90    2.08
   7   0  -7   10.83    2.18
   6   0  -7   70.36    4.11
  -6   0   7   66.46    3.76
   6   0  -7   65.46    5.04
   5   0  -7    5.45    1.39
   5   0  -7    3.79    1.88
  -5   0   7    3.88    1.18
   4   0  -7   11.06    1.63
   4   0  -7   10.13    2.25
  -4   0   7   13.82    1.58
   3   0  -7  149.81    5.16
  -3   0   7  149.22    5.12
   3   0  -7  147.04    6.68
  -2   0   7    1.84    0.89
   2   0  -7    1.27    0.75
   2   0  -7    1.36    1.47
   1   0  -7  238.72    8.66
  -1   0   7  248.12    7.21
   1   0  -7  250.88    7.11
   0   0   7    0.19    0.82
   1   0   7  144.56    5.13
   2   0   7   63.23    3.30
   3   0   7  252.59    8.38
   4   0   7   85.78    4.38
   4   0   7   86.79    4.36
  -5   0  -7   66.05    4.45
  -5   0  -7   66.71    4.44
   5   0   7   65.35    4.08
   6   0   7   25.74    2.95
  -6   0  -7   17.87    2.83
  -6   0  -7   21.13    3.17
   7   0   7   43.96    4.00
  -7   0  -7   52.80    4.45
  -7   0  -7   50.14    4.38
   8   0   7   20.09    3.19
  -8   0  -7   19.50    3.54
   9   0   7   44.42    4.53
  -9   0  -7   48.04    5.16
  10   0   7   22.92    3.56
 -10   0  -7   28.06    4.44
  11   0   7   15.94    3.40
 -11   0  -7   11.47    3.37
 -12   0  -7    1.52    2.78
  12   0   7   -1.03    1.67
 -13   0  -7   20.01    4.30
  13   0   7   19.09    3.77
 -14   0  -7   14.36    4.34
  12  -1  -7    3.77    2.37
  11  -1  -7    0.48    1.63
  10  -1  -7    3.47    1.86
   9  -1  -7    5.31    2.76
   9  -1  -7    9.07    2.54
   8  -1  -7   13.39    2.70
   8  -1  -7   16.34    3.32
  -7   1   7   89.51    4.67
   7  -1  -7   99.89    6.32
   7  -1  -7   90.00    5.31
   6  -1  -7   59.76    4.68
   6  -1  -7   61.87    4.15
  -6   1   7   56.33    3.37
  -5   1   7    0.17    0.72
   5  -1  -7    0.18    1.31
   5  -1  -7    0.45    1.11
   4  -1  -7    7.21    1.53
   4  -1  -7    8.53    2.12
   3  -1  -7    9.43    2.06
   3  -1  -7    9.42    1.46
  -3   1   7   10.17    1.15
   2  -1  -7   29.28    2.13
  -1   1   7  411.68   10.64
   1  -1  -7  394.47   11.13
   0   1   7  245.08    7.04
   0  -1  -7  248.54    7.60
   1   1   7    0.70    0.80
   2   1   7   96.07    3.99
  -4  -1  -7    2.01    1.41
  -4  -1  -7    0.79    1.57
  -5  -1  -7    0.87    1.32
  -5  -1  -7   -0.40    1.16
   6   1   7   24.88    2.89
  -6  -1  -7   23.44    3.30
  -6  -1  -7   23.11    3.07
  -7  -1  -7    6.08    2.22
   7   1   7    5.70    2.00
   8   1   7   37.70    4.08
  -8  -1  -7   41.23    4.55
  -9  -1  -7   10.36    3.03
   9   1   7    6.93    2.44
 -10  -1  -7    6.19    2.84
  10   1   7    6.64    2.40
  11   1   7    3.56    1.97
 -11  -1  -7    2.44    2.61
  12   1   7    6.01    2.02
 -12  -1  -7    1.14    2.68
 -13  -1  -7    9.25    3.51
 -14  -1  -7    5.86    3.75
  12  -2  -7   36.24    4.73
  11  -2  -7    2.15    2.00
  10  -2  -7    6.22    2.46
   9  -2  -7    8.38    2.88
   9  -2  -7    6.36    2.46
   8  -2  -7   17.72    2.96
   8  -2  -7   18.83    3.37
   7  -2  -7   83.27    5.73
   7  -2  -7   80.67    5.19
   6  -2  -7   47.60    4.27
   6  -2  -7   55.77    4.16
   5  -2  -7   77.36    5.17
   5  -2  -7   63.53    4.08
  -5   2   7   72.67    3.25
   4  -2  -7   63.25    4.35
   4  -2  -7   57.50    3.60
   3  -2  -7   20.77    2.08
   2  -2  -7  198.43    6.78
   1  -2  -7  280.33    8.56
   0  -2  -7    3.34    1.17
  -1  -2  -7   68.71    3.40
  -1  -2  -7   74.08    3.39
  -2  -2  -7    3.35    1.33
  -2  -2  -7    2.24    1.25
  -3  -2  -7    3.79    1.45
  -3  -2  -7    6.19    1.72
  -4  -2  -7   17.02    2.40
  -5  -2  -7   34.82    3.42
  -6  -2  -7   11.62    2.42
  -7  -2  -7   25.40    3.45
  -8  -2  -7   48.04    4.92
  -9  -2  -7    5.45    2.63
 -10  -2  -7    3.37    2.58
 -11  -2  -7    8.44    3.53
 -12  -2  -7   22.58    4.49
 -13  -2  -7    7.90    3.65
 -14  -2  -7   22.94    5.20
  13  -3  -7   22.56    4.73
  12  -3  -7   20.64    3.95
  11  -3  -7    5.87    2.44
  10  -3  -7   10.24    2.89
   9  -3  -7   -1.05    1.47
   8  -3  -7   -0.86    1.36
   8  -3  -7    0.28    1.64
   7  -3  -7    6.03    2.22
   7  -3  -7    6.90    2.30
   6  -3  -7   81.10    5.27
   6  -3  -7  105.24    6.18
   5  -3  -7   12.76    2.23
   5  -3  -7   12.23    2.42
   4  -3  -7    0.94    1.18
   3  -3  -7  131.64    5.66
   2  -3  -7   21.08    2.20
   1  -3  -7   34.12    2.59
   0  -3  -7  249.43    8.26
   0  -3  -7  249.68    7.08
  -1  -3  -7    8.22    1.64
  -1  -3  -7    5.45    1.20
  -2  -3  -7   -0.76    0.94
  -3  -3  -7    4.47    1.41
  -4  -3  -7   60.83    3.93
  -5  -3  -7    8.24    2.05
  -6  -3  -7   51.43    4.18
  -7  -3  -7   34.54    3.97
  -8  -3  -7    2.13    1.91
  -9  -3  -7    6.81    2.81
 -10  -3  -7   64.23    6.43
 -11  -3  -7   44.15    5.83
 -12  -3  -7    7.80    3.53
 -13  -3  -7    6.24    3.76
 -14  -3  -7    0.86    3.57
  12  -4  -7    3.01    2.09
  11  -4  -7    0.51    2.27
  10  -4  -7   79.79    6.43
   9  -4  -7    4.75    2.44
   8  -4  -7   -0.82    1.46
   7  -4  -7   12.23    2.63
   7  -4  -7   15.23    3.02
   6  -4  -7    6.77    2.13
   6  -4  -7    8.00    2.22
   5  -4  -7   31.37    3.41
   5  -4  -7   27.92    3.42
   4  -4  -7   44.40    3.62
   3  -4  -7  130.40    5.94
   2  -4  -7   52.63    3.48
   1  -4  -7   10.04    1.68
   0  -4  -7   67.84    3.70
   0  -4  -7   66.87    2.72
  -1  -4  -7   40.09    3.02
  -1  -4  -7   41.23    2.51
  -2  -4  -7   -0.08    0.93
  -3  -4  -7   49.41    3.37
  -4  -4  -7    1.39    1.46
  -5  -4  -7   18.26    2.83
  -6  -4  -7   -0.01    1.54
  -7  -4  -7    9.30    2.53
  -8  -4  -7    5.36    2.66
  -9  -4  -7    1.42    2.24
 -10  -4  -7   32.81    5.11
 -11  -4  -7    1.43    2.90
 -12  -4  -7    2.74    3.05
 -13  -4  -7    2.75    3.21
 -14  -4  -7   13.48    4.82
  12  -5  -7    4.19    2.28
  11  -5  -7    9.95    3.09
  10  -5  -7    6.24    2.56
   9  -5  -7   25.87    4.00
   8  -5  -7   30.04    3.97
   7  -5  -7    3.31    1.61
   7  -5  -7    3.53    1.98
   6  -5  -7   -1.48    1.27
   6  -5  -7    1.21    1.24
   5  -5  -7   64.94    4.70
   4  -5  -7  154.60    7.15
   3  -5  -7    6.23    1.80
   2  -5  -7   16.84    2.30
   1  -5  -7   94.07    4.83
   0  -5  -7    5.66    0.99
   0  -5  -7    5.52    1.55
  -1  -5  -7   13.83    1.66
  -1  -5  -7   15.49    2.13
  -2  -5  -7  119.54    5.22
  -2  -5  -7  138.27    6.11
  -3  -5  -7    1.70    1.28
  -4  -5  -7   51.61    3.79
  -5  -5  -7    2.41    1.71
  -6  -5  -7   52.42    4.39
  -7  -5  -7    2.31    1.54
  -8  -5  -7   69.59    5.54
  -9  -5  -7   39.25    5.23
 -10  -5  -7    2.80    2.83
 -11  -5  -7   15.24    4.42
 -12  -5  -7   14.16    4.30
 -13  -5  -7   -2.61    2.37
  11  -6  -7    5.64    2.44
  10  -6  -7   22.65    3.91
   9  -6  -7    1.56    2.10
   8  -6  -7   21.76    3.71
   7  -6  -7    4.58    2.26
   6  -6  -7    9.08    2.50
   5  -6  -7    1.39    1.50
   4  -6  -7   19.91    2.88
   3  -6  -7   31.85    3.37
   2  -6  -7   17.91    2.57
   1  -6  -7  165.85    7.11
   0  -6  -7    0.98    0.88
   0  -6  -7    1.85    1.32
  -1  -6  -7   60.60    3.33
  -1  -6  -7   61.56    3.90
  -2  -6  -7   17.41    2.17
  -2  -6  -7   17.59    2.44
  -3  -6  -7   95.72    5.42
  -3  -6  -7   98.78    4.99
  -4  -6  -7   -0.03    1.20
  -5  -6  -7   45.91    3.89
  -6  -6  -7    1.29    1.37
  -7  -6  -7   59.43    4.85
  -8  -6  -7   18.89    3.41
  -9  -6  -7   49.39    5.29
 -10  -6  -7    0.58    2.58
 -11  -6  -7    1.07    2.75
 -12  -6  -7   12.39    4.24
 -13  -6  -7   -0.12    2.47
  10  -7  -7    4.85    2.31
   9  -7  -7   -0.13    1.74
   8  -7  -7    4.13    2.39
   7  -7  -7   90.94    6.66
   6  -7  -7   63.72    5.17
   5  -7  -7   13.74    2.72
   4  -7  -7    3.04    1.70
   3  -7  -7    5.94    2.01
   2  -7  -7   45.38    3.91
   1  -7  -7   29.78    3.19
   1  -7  -7   36.89    2.37
   0  -7  -7   90.68    4.04
   0  -7  -7   86.58    4.99
  -1  -7  -7    1.17    1.29
  -1  -7  -7   -0.50    0.83
  -2  -7  -7    0.29    1.08
  -2  -7  -7   -1.35    0.87
  -3  -7  -7   11.18    2.18
  -3  -7  -7   10.53    2.26
  -4  -7  -7   10.51    2.34
  -4  -7  -7    8.59    2.06
  -5  -7  -7   42.44    3.85
  -6  -7  -7   35.83    3.93
  -7  -7  -7    4.73    2.26
  -8  -7  -7    3.71    2.08
  -9  -7  -7    4.05    2.37
 -10  -7  -7   14.17    3.77
 -11  -7  -7    8.87    3.79
 -12  -7  -7    0.30    3.05
 -13  -7  -7    0.41    3.03
  10  -8  -7    8.41    2.89
   9  -8  -7    0.24    1.77
   8  -8  -7   48.77    5.54
   7  -8  -7   10.65    3.11
   6  -8  -7    8.01    2.47
   5  -8  -7   17.21    3.13
   4  -8  -7   50.76    4.73
   3  -8  -7    6.34    2.31
   2  -8  -7   45.72    4.26
   1  -8  -7   72.81    5.01
   0  -8  -7   -0.20    1.06
   0  -8  -7    0.80    1.34
  -1  -8  -7   12.01    1.92
  -1  -8  -7    9.43    2.14
  -2  -8  -7   10.91    2.18
  -2  -8  -7   12.52    2.12
  -3  -8  -7   16.89    2.63
  -3  -8  -7   10.68    2.27
  -4  -8  -7    3.32    1.86
  -4  -8  -7    4.57    2.07
  -5  -8  -7  204.15    9.31
  -5  -8  -7  204.44    9.23
  -6  -8  -7    2.55    1.68
  -7  -8  -7    0.70    1.41
  -8  -8  -7    0.03    1.55
  -9  -8  -7   42.34    5.10
 -10  -8  -7    6.22    2.53
 -11  -8  -7    8.47    2.87
 -12  -8  -7    1.08    2.19
   9  -9  -7    1.67    1.90
   8  -9  -7    8.37    3.05
   7  -9  -7    4.45    2.47
   6  -9  -7    2.55    2.34
   5  -9  -7   46.81    5.00
   4  -9  -7   13.69    2.95
   3  -9  -7   -0.89    1.42
   2  -9  -7   40.70    4.23
   1  -9  -7    7.61    2.27
   0  -9  -7    1.27    1.63
  -1  -9  -7    5.73    1.66
  -1  -9  -7    5.61    1.94
  -2  -9  -7  109.42    6.29
  -2  -9  -7  110.09    5.69
  -3  -9  -7    7.74    2.14
  -3  -9  -7    6.09    2.12
  -4  -9  -7    6.50    2.10
  -4  -9  -7    5.99    2.02
  -5  -9  -7    9.37    2.34
  -5  -9  -7   11.23    2.77
  -6  -9  -7    7.92    2.42
  -6  -9  -7    9.51    2.76
  -7  -9  -7    0.25    1.59
  -8  -9  -7   11.99    3.11
  -9  -9  -7    1.41    2.06
 -10  -9  -7   28.41    4.57
 -11  -9  -7    2.00    1.99
 -12  -9  -7    2.16    2.37
   8 -10  -7    0.33    1.77
   7 -10  -7    2.25    2.38
   6 -10  -7   10.18    3.13
   5 -10  -7   18.41    3.66
   4 -10  -7   16.11    3.28
   3 -10  -7   54.57    4.89
   2 -10  -7    6.49    2.34
   1 -10  -7    1.31    1.73
   0 -10  -7   44.73    4.45
  -1 -10  -7  119.90    6.81
  -1 -10  -7  105.52    5.67
  -2 -10  -7    3.90    1.91
  -2 -10  -7    3.06    1.68
  -3 -10  -7   24.32    3.51
  -3 -10  -7   26.04    3.27
  -4 -10  -7    3.01    1.82
  -4 -10  -7    3.81    1.77
  -5 -10  -7   -0.19    1.64
  -5 -10  -7    1.50    1.61
  -6 -10  -7    1.55    1.90
  -6 -10  -7   -1.70    1.10
  -7 -10  -7   50.03    5.29
  -7 -10  -7   58.28    5.11
  -8 -10  -7    8.18    2.61
  -9 -10  -7    8.48    2.51
 -10 -10  -7    3.72    1.95
 -11 -10  -7    6.90    2.63
   7 -11  -7   -1.02    1.34
   6 -11  -7    2.57    2.37
   5 -11  -7    0.45    2.08
   4 -11  -7    9.87    2.97
   3 -11  -7    3.11    2.22
   2 -11  -7   -0.45    1.52
   1 -11  -7   15.41    3.20
   0 -11  -7   26.25    3.73
  -1 -11  -7   10.61    2.76
  -2 -11  -7   13.58    2.85
  -2 -11  -7   16.31    2.82
  -3 -11  -7    2.79    1.65
  -3 -11  -7    2.00    1.79
  -4 -11  -7   47.29    4.31
  -4 -11  -7   40.00    4.27
  -5 -11  -7    9.60    2.73
  -5 -11  -7    7.74    2.42
  -6 -11  -7   17.10    3.45
  -6 -11  -7   10.03    2.66
  -7 -11  -7    2.18    2.20
  -7 -11  -7    2.57    1.80
  -8 -11  -7   23.26    3.98
  -8 -11  -7   27.88    4.30
  -9 -11  -7    4.68    2.44
 -10 -11  -7    5.89    2.20
 -11 -11  -7    2.16    2.02
   6 -12  -7    0.22    1.43
   5 -12  -7   -0.17    2.21
   4 -12  -7    1.49    2.12
   3 -12  -7    9.12    2.93
   2 -12  -7   47.52    5.20
   1 -12  -7   60.27    5.36
   0 -12  -7    0.94    1.77
  -1 -12  -7   10.08    2.66
  -2 -12  -7    3.10    2.13
  -3 -12  -7   55.69    5.04
  -3 -12  -7   64.85    4.96
  -4 -12  -7   -0.50    1.39
  -4 -12  -7   -1.98    1.51
  -5 -12  -7   56.63    5.03
  -5 -12  -7   53.14    5.32
  -6 -12  -7    5.87    2.71
  -6 -12  -7    9.90    2.78
  -7 -12  -7    4.39    1.92
  -8 -12  -7    2.31    1.73
  -9 -12  -7    5.01    2.08
 -10 -12  -7    2.18    1.94
   5 -13  -7   -1.38    1.82
   4 -13  -7    1.66    2.04
   3 -13  -7    7.83    3.11
   2 -13  -7   34.60    4.68
   1 -13  -7    2.00    2.19
   0 -13  -7    7.14    2.88
  -1 -13  -7    9.03    2.98
  -3 -13  -7   14.66    3.37
  -4 -13  -7   71.11    5.60
  -4 -13  -7   67.35    5.75
  -5 -13  -7    2.62    1.89
  -5 -13  -7    2.60    2.39
  -6 -13  -7    4.30    2.00
  -7 -13  -7   -0.19    1.37
  -8 -13  -7    2.86    2.12
  -9 -13  -7    1.73    1.60
   3 -14  -7    1.09    2.09
   2 -14  -7   -1.37    1.83
   1 -14  -7    1.33    2.14
   0 -14  -7   54.76    5.80
  -1 -14  -7   23.46    4.19
  -2 -14  -7    5.42    2.58
  -3 -14  -7    2.98    2.34
  -6 -14  -7    3.87    1.94
  -7 -14  -7   29.91    4.39
  -8 -14  -7    4.92    2.42
   2 -15  -7   -0.77    2.37
   1 -15  -7   -0.38    2.03
   0 -15  -7    9.47    3.32
  -1 -15  -7   18.81    3.91
  -7 -15  -7   -0.92    2.35
  -3 -14   8   -0.39    1.63
  -2 -14   8    5.72    2.08
  -1 -14   8   10.48    3.25
   0 -14   8    7.43    2.57
   1 -14   8    1.83    1.95
   2 -14   8    3.84    2.20
  -6 -13   8    5.07    2.61
  -5 -13   8   -0.74    1.58
  -4 -13   8   21.91    4.21
  -3 -13   8    1.43    1.99
  -2 -13   8   -1.50    1.65
  -1 -13   8    0.04    1.83
   0 -13   8   14.32    3.45
   1 -13   8   10.86    3.02
   2 -13   8    9.99    2.71
   3 -13   8    0.35    1.70
   4 -13   8   11.48    2.85
  -7 -12   8   -1.27    1.78
  -6 -12   8   17.84    4.28
  -5 -12   8   23.58    4.38
  -4 -12   8   34.31    4.89
  -3 -12   8    4.48    2.16
  -2 -12   8    2.09    1.82
  -1 -12   8   -1.22    1.43
   0 -12   8    0.06    1.44
   1 -12   8    9.50    2.72
   2 -12   8   22.45    3.68
   3 -12   8    8.32    2.56
   4 -12   8    1.42    1.58
   5 -12   8   -0.04    1.74
  -9 -11   8    1.06    2.26
  -8 -11   8   -1.02    1.24
  -7 -11   8    3.99    3.05
  -6 -11   8    2.00    2.58
  -5 -11   8   42.43    5.45
  -4 -11   8   -1.26    1.85
  -3 -11   8   25.12    4.11
  -2 -11   8   12.54    3.18
  -1 -11   8   -1.21    1.21
   0 -11   8    1.52    1.75
   1 -11   8    6.14    2.39
   2 -11   8   21.19    3.87
   3 -11   8    1.85    1.94
   4 -11   8    1.47    1.75
   5 -11   8   -1.13    1.58
   6 -11   8   15.62    2.96
   8 -11   8   32.82    5.34
 -10 -10   8   -1.33    2.19
  -9 -10   8   -1.61    1.31
  -8 -10   8   22.52    4.66
  -7 -10   8    6.32    3.24
  -6 -10   8    7.93    3.07
  -5 -10   8    2.23    2.33
  -4 -10   8    1.56    1.91
  -3 -10   8   24.03    3.87
  -2 -10   8   27.21    3.96
  -1 -10   8   44.80    4.84
   0 -10   8    1.36    1.65
   1 -10   8    3.16    1.72
   2 -10   8    0.33    1.36
   3 -10   8   11.40    2.78
   4 -10   8    6.33    2.29
   5 -10   8   15.19    3.03
   6 -10   8    0.31    1.68
   6 -10   8   -0.22    1.93
   7 -10   8   11.34    2.88
   7 -10   8   15.78    3.53
   8 -10   8    3.47    2.28
   9 -10   8    0.67    2.92
 -11  -9   8   -3.81    2.59
 -10  -9   8    0.89    2.79
  -9  -9   8   72.51    7.33
  -8  -9   8    5.08    3.22
  -7  -9   8   35.30    5.18
  -6  -9   8   13.64    3.57
  -5  -9   8   -0.94    1.79
  -4  -9   8   18.62    3.70
  -3  -9   8   64.79    5.28
  -2  -9   8   18.27    3.24
  -1  -9   8   53.73    4.68
   0  -9   8    4.07    1.86
   1  -9   8    6.96    2.38
   2  -9   8    2.51    1.72
   3  -9   8    5.22    2.30
   4  -9   8   21.83    3.11
   4  -9   8   24.10    3.59
   5  -9   8   24.74    3.85
   5  -9   8   18.35    3.14
   6  -9   8   13.00    3.22
   6  -9   8   10.18    2.74
   7  -9   8    0.12    2.06
   7  -9   8    1.43    2.00
   8  -9   8    8.44    2.89
   9  -9   8    0.42    1.74
 -11  -8   8    8.19    3.34
 -10  -8   8   24.55    4.80
  -9  -8   8    5.16    2.90
  -8  -8   8   53.75    6.10
   7   8  -8    7.64    3.58
  -7  -8   8   12.00    3.50
   6   8  -8    4.55    3.16
  -6  -8   8    2.28    2.22
  -5  -8   8   12.22    3.16
  -4  -8   8   19.80    3.54
  -3  -8   8    1.63    1.81
  -2  -8   8   35.71    3.99
  -1  -8   8    8.42    2.37
   0  -8   8    4.63    1.83
   1  -8   8   31.11    3.64
   2  -8   8   -0.32    1.40
   2  -8   8    2.25    1.75
   3  -8   8    2.45    1.85
   3  -8   8    0.31    1.50
   4  -8   8    0.46    1.66
   4  -8   8    1.42    1.56
   5  -8   8    0.49    1.74
   5  -8   8   -1.61    1.37
   6  -8   8    4.83    2.30
   6  -8   8    2.30    1.91
   7  -8   8   10.98    3.04
   7  -8   8   12.11    2.56
   8  -8   8   12.59    2.98
   8  -8   8    8.10    2.86
   9  -8   8   37.15    5.04
  10  -8   8    3.78    2.44
 -12  -7   8    4.48    3.57
 -11  -7   8   10.85    3.99
 -10  -7   8   -3.38    2.39
  10   7  -8   -3.41    4.19
   9   7  -8    7.95    3.81
  -9  -7   8   10.20    3.63
   8   7  -8    9.74    4.01
  -8  -7   8    2.80    2.60
   7   7  -8   39.80    6.09
  -7  -7   8   35.33    4.65
  -6  -7   8   -0.70    1.68
   6   7  -8   -1.38    2.33
   5   7  -8   74.75    6.99
  -5  -7   8   62.95    5.14
  -4  -7   8    5.31    2.34
   4   7  -8    3.46    2.83
   3   7  -8    1.23    2.26
  -3  -7   8    1.57    1.69
  -2  -7   8   -0.92    1.37
   2   7  -8    1.05    2.13
  -1  -7   8   48.18    4.02
   0  -7   8   50.33    4.11
   1  -7   8   74.17    4.91
   1  -7   8   63.53    3.81
   2  -7   8    6.02    2.09
   2  -7   8   -0.23    1.43
   3  -7   8    2.90    1.92
   3  -7   8    1.99    1.63
   4  -7   8    1.98    1.82
   4  -7   8    3.95    1.91
   5  -7   8    2.06    1.76
   5  -7   8    0.88    1.89
   6  -7   8   15.54    2.95
   6  -7   8    9.96    2.71
   7  -7   8    9.10    2.69
   7  -7   8    7.96    2.51
   8  -7   8   25.74    4.07
   8  -7   8   27.91    3.82
   9  -7   8    1.87    1.81
   9  -7   8    1.43    1.86
  10  -7   8   -0.70    1.77
  12   6  -8    4.35    3.43
 -12  -6   8   -0.43    3.02
  11   6  -8    0.73    3.75
 -11  -6   8    0.48    3.03
 -10  -6   8   -1.87    2.49
  10   6  -8    1.45    3.20
  -9  -6   8   28.06    4.42
   9   6  -8   29.11    5.73
   8   6  -8    9.67    4.01
  -8  -6   8    6.20    2.73
   7   6  -8   -1.07    2.73
  -7  -6   8   -0.54    1.78
  -6  -6   8  178.88    8.99
   6   6  -8  189.77   11.08
   5   6  -8    6.06    2.76
  -5  -6   8    7.07    2.40
   4   6  -8   46.07    5.36
  -4  -6   8   45.86    4.33
   3   6  -8    6.83    2.87
  -3  -6   8    9.93    2.42
   2   6  -8    4.14    2.32
  -2  -6   8    2.64    1.72
  -1  -6   8   -0.51    1.43
   1   6  -8    1.40    2.10
   0  -6   8   67.78    3.23
   0   6  -8   57.95    4.75
   0  -6   8   68.19    4.59
   1  -6   8    7.72    1.55
   1  -6   8    9.04    2.13
   2  -6   8   50.70    4.05
   2  -6   8   45.19    3.33
   3  -6   8    0.49    1.44
   3  -6   8   -2.10    1.29
   4  -6   8    1.62    1.56
   4  -6   8    1.17    1.72
   5  -6   8    7.66    2.40
   5  -6   8    6.85    2.22
   6  -6   8    0.35    1.66
   6  -6   8    2.87    1.82
   7  -6   8   23.85    3.67
   7  -6   8   33.01    3.86
   8  -6   8   -0.74    1.65
   8  -6   8    1.26    1.74
   9  -6   8   -0.03    1.78
   9  -6   8    1.51    1.73
  10  -6   8    2.97    2.03
 -10   6  -8    0.78    2.94
 -10   6  -8    2.01    2.03
  11  -6   8   -0.07    1.20
  13   5  -8   15.62    5.76
  12   5  -8    2.07    3.27
  11   5  -8    4.43    3.80
 -11  -5   8   -0.79    2.48
  10   5  -8    1.84    2.97
 -10  -5   8    0.80    2.45
   9   5  -8   28.38    5.27
  -9  -5   8   24.13    4.16
  -8  -5   8    4.52    2.31
   8   5  -8    2.94    3.22
   7   5  -8   33.85    5.44
  -7  -5   8   33.68    4.20
   6   5  -8    2.35    2.90
  -6  -5   8    0.67    1.78
  -5  -5   8   10.78    2.50
   5   5  -8   10.61    3.26
   4   5  -8    0.15    2.28
  -4  -5   8    4.61    2.01
   3   5  -8   50.26    5.10
  -3  -5   8   45.18    3.80
  -2  -5   8   14.73    2.41
   2   5  -8   13.09    2.99
  -1  -5   8    1.33    1.32
   1   5  -8    0.70    1.70
   0  -5   8   19.65    1.68
   0  -5   8   22.25    2.76
   0   5  -8   18.05    2.75
   1  -5   8    0.89    1.42
  -1   5  -8    0.25    1.44
   1  -5   8   -0.01    1.04
   2  -5   8   99.17    4.67
   2  -5   8   88.04    5.11
   3  -5   8    9.17    2.19
   3  -5   8   14.69    2.32
   4  -5   8   60.54    4.26
   4  -5   8   54.94    4.23
   5  -5   8    0.00    1.39
   5  -5   8    2.06    1.68
   6  -5   8    1.70    1.90
   6  -5   8    1.59    1.69
   7  -5   8    7.36    2.30
   7  -5   8   13.45    2.86
   8  -5   8    8.48    2.33
   8  -5   8    4.07    2.09
   9  -5   8    1.74    2.02
 -10   5  -8   38.09    5.22
  10  -5   8   36.24    4.79
 -10   5  -8   54.90    6.12
 -11   5  -8    0.35    1.86
  11  -5   8    1.73    2.22
 -11   5  -8    1.93    2.77
  12  -5   8   -0.29    1.79
  13   4  -8    1.07    3.28
  12   4  -8    0.46    2.98
  11   4  -8    0.53    2.79
 -10  -4   8   12.11    3.39
  10   4  -8   11.00    3.89
  -9  -4   8   43.46    4.65
   9   4  -8   37.23    5.77
   8   4  -8   18.93    4.40
  -8  -4   8   22.98    3.59
   7   4  -8   18.90    4.36
  -7  -4   8   29.90    3.76
  -6  -4   8    1.50    1.89
   6   4  -8    1.16    2.39
  -5  -4   8    0.16    1.36
   5   4  -8    1.22    2.21
   4   4  -8  195.70   10.09
  -4  -4   8  202.63    8.22
  -3  -4   8   10.24    2.06
   3   4  -8    9.19    2.76
  -2  -4   8  294.70   10.25
   2   4  -8  303.89   12.07
   1   4  -8    2.18    1.79
  -1  -4   8    2.14    1.36
   0  -4   8    6.77    1.03
   0   4  -8    8.70    2.07
   0  -4   8   11.05    2.00
  -1   4  -8   42.15    3.39
   1  -4   8   37.50    2.44
   1  -4   8   36.79    3.13
   2  -4   8   68.46    3.58
   2  -4   8   64.60    4.09
  -2   4  -8   60.89    3.61
   3  -4   8   89.44    4.86
   3  -4   8   85.97    4.52
   4  -4   8   74.96    4.59
   4  -4   8   78.65    4.77
   5  -4   8   20.26    2.92
   5  -4   8   14.80    2.57
   6  -4   8   12.28    2.60
   6  -4   8    9.34    2.39
   7  -4   8    2.97    2.09
   7  -4   8    5.60    2.11
   8  -4   8    1.81    2.14
   8  -4   8    8.17    2.37
  -9   4  -8   29.98    4.58
   9  -4   8   37.72    4.58
  -9   4  -8   42.89    5.16
  10  -4   8    3.84    2.34
 -10   4  -8    6.89    2.64
 -10   4  -8    5.31    2.97
 -11   4  -8   13.39    3.26
 -11   4  -8    9.47    3.44
  11  -4   8   11.11    2.95
  12  -4   8    2.99    1.57
 -12   4  -8    0.08    2.44
  12   3  -8   15.40    4.41
  11   3  -8    7.16    3.20
 -10  -3   8   13.79    3.28
  10   3  -8   17.45    4.53
   9   3  -8   15.22    4.26
  -9  -3   8   20.65    3.53
   8   3  -8    0.70    2.51
  -8  -3   8   -0.44    1.71
  -7  -3   8    3.58    1.77
   7   3  -8    3.79    2.85
   6   3  -8   30.13    4.55
  -6  -3   8   31.80    3.36
   5   3  -8  147.85    8.45
  -5  -3   8  147.41    6.65
  -4  -3   8    3.62    1.42
   4   3  -8    4.44    2.50
  -3  -3   8  231.27    8.36
   3   3  -8  230.71   10.26
  -2  -3   8    4.28    1.49
   2   3  -8    5.95    2.06
   1   3  -8    2.33    1.66
  -1  -3   8    2.54    1.24
   0  -3   8    7.02    1.62
   0   3  -8    8.61    1.83
   1  -3   8    0.68    0.80
  -1   3  -8    2.18    1.33
   1  -3   8    1.17    1.16
   2  -3   8    0.96    1.14
  -2   3  -8   -0.26    1.00
   2  -3   8   -0.05    0.28
   3  -3   8   35.49    2.93
   3  -3   8   40.68    3.27
  -3   3  -8   35.65    2.23
   4  -3   8   18.56    2.60
   4  -3   8   22.23    2.56
   5  -3   8   57.10    4.14
   5  -3   8   61.92    4.30
   6  -3   8   73.91    5.07
   6  -3   8   72.25    4.84
   7  -3   8   13.02    2.85
   7  -3   8   16.58    2.84
  -8   3  -8   22.16    4.14
   8  -3   8   21.56    3.52
  -8   3  -8   20.98    3.81
  -9   3  -8   -1.18    2.05
  -9   3  -8    1.22    1.91
   9  -3   8    0.17    1.71
  10  -3   8   11.77    3.11
 -10   3  -8   12.19    3.76
 -10   3  -8   18.35    3.81
  11  -3   8    8.31    2.75
 -11   3  -8   14.97    3.95
 -12   3  -8   14.16    3.78
  12  -3   8    1.17    1.69
  11   2  -8    0.24    2.27
  10   2  -8   18.32    4.40
   9   2  -8   14.71    3.90
  -9  -2   8   19.26    3.13
  -8  -2   8   38.57    3.86
   8   2  -8   30.85    4.85
  -7  -2   8    8.72    2.09
   7   2  -8    8.91    3.26
   7   2  -8    8.25    1.88
   6   2  -8   10.55    3.13
  -6  -2   8    6.38    1.78
   6   2  -8    7.85    1.64
   5   2  -8    0.73    1.86
   5   2  -8    0.49    0.89
  -5  -2   8   -0.03    1.09
   4   2  -8   69.47    3.07
  -4  -2   8   69.35    3.96
   4   2  -8   67.38    5.14
  -3  -2   8   -0.14    0.95
   3   2  -8    1.18    1.57
   3   2  -8   -0.18    0.51
  -2  -2   8   96.77    4.41
   2   2  -8   91.07    5.41
   1   2  -8   -0.01    1.29
  -1  -2   8    1.20    1.09
   0  -2   8  226.63    7.73
   0   2  -8  222.47    8.30
   1  -2   8    6.46    1.54
  -1   2  -8    4.60    1.38
  -2   2  -8    0.87    0.94
   2  -2   8    2.14    1.21
   2  -2   8   -0.09    0.35
   3  -2   8   28.69    2.52
  -3   2  -8   23.38    1.73
   3  -2   8   25.61    2.61
   4  -2   8   17.78    2.43
   4  -2   8   16.60    2.26
   5  -2   8   57.83    4.03
   5  -2   8   55.01    3.95
   6  -2   8   51.87    4.21
   6  -2   8   61.38    4.27
   7  -2   8   17.92    3.04
  -8   2  -8   22.02    3.92
  -8   2  -8   23.42    4.05
   8  -2   8   24.40    3.56
  -9   2  -8    7.23    2.93
  -9   2  -8    8.53    3.34
   9  -2   8    9.77    2.66
 -10   2  -8   10.52    3.28
  10  -2   8    7.73    2.75
 -10   2  -8    8.45    2.94
  11  -2   8   13.98    3.35
 -11   2  -8   17.15    4.08
 -12   2  -8    2.70    2.40
  12  -2   8    2.79    2.10
  13  -2   8   30.33    4.59
 -13   2  -8   19.07    4.17
  11   1  -8   -0.33    2.45
  10   1  -8    2.93    2.97
   9   1  -8   -2.40    1.99
   8   1  -8   11.29    3.43
   8   1  -8   14.60    2.44
   7   1  -8   44.69    3.53
   7   1  -8   34.92    4.58
   6   1  -8    1.06    1.27
   6   1  -8    0.67    1.72
  -6  -1   8    0.28    0.58
   5   1  -8   -0.18    1.50
   5   1  -8    0.56    0.98
  -5  -1   8    0.18    0.51
   4   1  -8   11.20    1.45
   4   1  -8   11.26    2.37
   3   1  -8  131.38    6.76
   3   1  -8  140.53    4.56
   2   1  -8   19.41    1.40
   2   1  -8   19.79    2.66
  -2  -1   8   23.21    1.98
  -1  -1   8  721.67   18.88
   1   1  -8  705.33   20.58
   1   1  -8  701.25   17.68
   0  -1   8    1.80    1.11
   0   1  -8    2.28    1.34
   1  -1   8  134.92    5.17
  -1   1  -8  123.72    5.24
   2  -1   8   36.77    2.77
  -2   1  -8   38.88    2.51
   3  -1   8   24.22    2.45
   3  -1   8   19.51    2.16
   4  -1   8   35.98    2.97
   4  -1   8   36.37    3.00
   5  -1   8    5.88    1.73
   5  -1   8    7.00    1.76
   6  -1   8   77.86    4.91
  -7   1  -8  103.07    6.48
  -7   1  -8  103.61    6.42
   7  -1   8   97.99    5.93
  -8   1  -8    0.26    1.68
  -8   1  -8   -0.07    1.80
   8  -1   8    1.15    1.85
  -9   1  -8    5.32    2.73
   9  -1   8    6.74    2.45
  -9   1  -8    6.04    2.75
  10  -1   8    3.02    1.99
 -10   1  -8    6.35    2.97
 -11   1  -8   -2.09    2.08
  11  -1   8   -0.93    1.50
  12  -1   8    0.31    1.29
 -12   1  -8   -0.16    2.43
  13  -1   8    4.49    2.38
 -13   1  -8    4.01    2.74
 -14   1  -8   -1.48    3.12
  10   0  -8    0.84    2.53
  10   0  -8    2.49    1.65
   9   0  -8    6.58    2.18
   9   0  -8    4.86    2.67
   8   0  -8   36.11    4.77
   8   0  -8   40.77    3.94
   7   0  -8    5.80    1.82
   7   0  -8   -0.13    2.06
  -7   0   8    1.60    1.39
   6   0  -8    1.19    1.71
   6   0  -8    0.98    1.34
  -6   0   8    0.19    1.04
   5   0  -8    0.54    0.97
   5   0  -8   -0.15    1.39
  -5   0   8    0.67    0.88
   4   0  -8    1.46    0.98
  -4   0   8    3.81    1.06
   4   0  -8    2.82    1.67
   3   0  -8    1.71    0.85
  -3   0   8    1.77    0.90
   3   0  -8    3.18    1.56
   2   0  -8  197.19    6.17
   2   0  -8  209.58    8.37
  -2   0   8  195.95    6.22
   1   0  -8    0.77    1.43
   1   0  -8   -0.37    0.54
  -1   0   8    1.35    0.86
   0   0   8   44.92    2.55
   1   0   8   55.25    3.03
   2   0   8   58.86    3.32
   3   0   8    0.85    1.17
   4   0   8    1.07    1.11
   4   0   8    0.81    1.15
   5   0   8    1.05    1.27
   6   0   8    2.25    1.52
  -6   0  -8    3.55    1.91
  -6   0  -8    2.27    1.71
  -7   0  -8    6.83    2.51
   7   0   8    3.58    1.86
  -7   0  -8    4.49    2.22
  -8   0  -8    2.25    2.19
   8   0   8    4.94    2.16
  -8   0  -8    7.71    2.66
   9   0   8   38.49    4.30
  -9   0  -8   47.45    5.15
  10   0   8    0.25    1.49
 -10   0  -8   -0.37    2.22
 -11   0  -8    6.49    2.96
  11   0   8    1.35    1.82
 -12   0  -8   15.47    4.01
  12   0   8   20.67    3.88
 -13   0  -8    7.78    3.20
  13   0   8    9.70    2.92
 -14   0  -8    3.59    3.47
  11  -1  -8   -0.78    1.57
  10  -1  -8    7.53    2.95
  10  -1  -8   13.33    2.92
   9  -1  -8   -0.49    1.85
   9  -1  -8    0.24    1.54
   8  -1  -8    3.74    1.94
   8  -1  -8    2.41    2.27
   7  -1  -8    4.99    1.97
   7  -1  -8    6.58    2.61
   6  -1  -8    1.28    1.42
   6  -1  -8    1.60    1.82
  -6   1   8    3.45    1.18
   5  -1  -8   34.03    3.62
  -5   1   8   32.85    2.24
   5  -1  -8   29.26    2.77
  -4   1   8   48.61    2.48
   4  -1  -8   45.45    3.05
   4  -1  -8   49.51    4.11
  -3   1   8    6.68    1.00
   3  -1  -8    7.05    1.34
   3  -1  -8    5.80    1.80
   2  -1  -8    6.38    1.83
   2  -1  -8    6.62    1.23
  -2   1   8    9.69    1.09
   1  -1  -8    0.37    0.88
  -1   1   8    1.72    0.83
   0   1   8   12.36    1.33
   0  -1  -8   10.33    1.53
   1   1   8  946.42   24.20
   2   1   8   21.37    2.01
   3   1   8  201.70    7.06
  -4  -1  -8   13.41    2.43
  -4  -1  -8   11.58    2.22
  -5  -1  -8    0.04    1.31
  -5  -1  -8   -0.79    1.30
  -6  -1  -8   18.96    2.93
  -6  -1  -8   24.37    3.38
  -7  -1  -8    3.51    2.02
   7   1   8    1.85    1.58
  -8  -1  -8   64.98    5.29
   8   1   8   67.20    5.03
   9   1   8   29.64    3.82
  -9  -1  -8   28.41    4.24
 -10  -1  -8    8.70    3.12
  10   1   8   10.34    2.77
 -11  -1  -8    2.96    2.68
  11   1   8    7.54    2.69
 -12  -1  -8    5.55    3.17
 -13  -1  -8   -1.84    2.98
 -14  -1  -8   13.64    4.59
  12  -2  -8   17.93    3.65
  11  -2  -8    7.78    2.74
  10  -2  -8    1.05    1.76
   9  -2  -8    2.94    2.23
   9  -2  -8    1.35    1.83
   8  -2  -8    2.78    1.91
   8  -2  -8    1.28    1.68
   7  -2  -8   30.43    3.98
   7  -2  -8   24.66    3.19
   6  -2  -8   86.84    5.80
   6  -2  -8   93.50    5.32
  -5   2   8   32.33    2.11
   5  -2  -8   39.56    3.91
   5  -2  -8   35.52    3.13
   4  -2  -8   76.87    4.22
   4  -2  -8   78.91    5.09
   3  -2  -8   29.45    2.53
   2  -2  -8   -0.56    0.75
   1  -2  -8   25.91    2.22
   0  -2  -8  185.34    6.46
   0   2   8  175.35    5.34
  -2  -2  -8  355.54   11.25
  -2  -2  -8  353.35   10.88
  -3  -2  -8    5.09    1.59
  -3  -2  -8    7.23    1.82
  -4  -2  -8    1.21    1.29
  -4  -2  -8   -0.16    1.22
  -5  -2  -8    0.51    1.36
  -6  -2  -8   25.31    3.22
  -7  -2  -8   11.09    2.71
  -8  -2  -8    2.80    1.95
  -9  -2  -8   10.21    3.14
 -10  -2  -8    7.05    3.28
 -11  -2  -8   17.02    4.06
 -12  -2  -8    1.75    3.06
 -13  -2  -8   -1.17    2.89
 -14  -2  -8   19.82    5.10
  12  -3  -8   14.59    3.40
  11  -3  -8   10.90    3.03
  10  -3  -8   -0.89    1.85
   9  -3  -8    7.51    2.51
   8  -3  -8    0.11    1.64
   8  -3  -8    4.66    2.14
   7  -3  -8   -0.82    1.43
   7  -3  -8    3.60    1.88
   6  -3  -8    1.41    1.61
   6  -3  -8    0.04    1.27
   5  -3  -8   35.64    3.83
   5  -3  -8   38.86    3.56
   4  -3  -8    8.02    1.83
   3  -3  -8    8.06    1.67
   2  -3  -8   12.32    1.82
   1  -3  -8   25.15    2.32
   0  -3  -8    1.98    1.08
   0  -3  -8    1.82    0.75
  -1  -3  -8   76.84    3.50
  -1  -3  -8   78.61    4.16
  -2  -3  -8   -0.30    0.96
  -3  -3  -8   14.77    2.17
  -4  -3  -8    0.08    1.17
  -5  -3  -8  115.41    6.02
  -6  -3  -8   30.15    3.54
  -7  -3  -8   16.96    2.94
  -8  -3  -8   14.12    3.26
  -9  -3  -8    0.10    1.98
 -10  -3  -8   23.66    4.59
 -11  -3  -8   17.47    4.51
 -12  -3  -8   19.56    4.77
 -13  -3  -8   11.71    3.78
 -14  -3  -8   13.22    4.93
  12  -4  -8    6.67    2.59
  11  -4  -8    4.88    2.22
  10  -4  -8    1.55    2.04
   9  -4  -8   31.20    4.11
   8  -4  -8    1.19    1.74
   8  -4  -8    4.05    1.90
   7  -4  -8    0.31    1.72
   7  -4  -8   -0.05    1.45
   6  -4  -8   11.24    2.43
   6  -4  -8    8.68    2.49
   5  -4  -8    7.23    2.28
   5  -4  -8    7.66    2.03
   4  -4  -8   35.88    3.39
   3  -4  -8   89.43    4.82
   2  -4  -8   29.31    2.75
   1  -4  -8   12.84    1.91
   0  -4  -8    0.33    0.95
   0  -4  -8    0.90    0.64
  -1  -4  -8    0.82    0.86
  -1  -4  -8    1.77    1.22
  -2  -4  -8   56.89    3.39
  -3  -4  -8   18.42    2.30
  -4  -4  -8  140.75    6.39
  -5  -4  -8  125.96    6.34
  -6  -4  -8   61.39    4.71
  -7  -4  -8   -0.29    1.37
  -8  -4  -8   13.42    3.10
  -9  -4  -8   17.10    3.91
 -10  -4  -8    6.08    3.25
 -11  -4  -8   22.60    4.88
 -12  -4  -8   14.84    4.11
 -13  -4  -8    2.22    3.22
  11  -5  -8    0.69    1.94
  10  -5  -8   38.19    4.61
   9  -5  -8   16.62    3.48
   8  -5  -8   -2.28    1.47
   7  -5  -8    1.99    2.08
   7  -5  -8    9.43    2.60
   6  -5  -8   -0.34    1.50
   6  -5  -8    1.15    1.66
   5  -5  -8   -0.54    1.35
   4  -5  -8   51.10    4.04
   3  -5  -8   96.64    5.30
   2  -5  -8    3.41    1.40
   1  -5  -8   12.01    2.00
   0  -5  -8   42.98    2.23
   0  -5  -8   37.60    3.09
  -1  -5  -8    7.71    1.38
  -1  -5  -8    7.99    1.76
  -2  -5  -8    0.78    1.23
  -2  -5  -8    1.23    1.06
  -3  -5  -8  177.54    7.13
  -4  -5  -8   22.56    2.83
  -5  -5  -8   71.79    4.88
  -6  -5  -8   -0.07    1.55
  -7  -5  -8   54.85    4.73
  -8  -5  -8   35.04    4.41
  -9  -5  -8   21.55    4.04
 -10  -5  -8    5.47    3.24
 -11  -5  -8    2.37    3.05
 -12  -5  -8   -1.16    3.11
 -13  -5  -8    1.37    2.32
  11  -6  -8   23.26    4.25
  10  -6  -8    3.65    2.17
   9  -6  -8    2.10    2.17
   8  -6  -8    9.05    2.93
   7  -6  -8   37.40    4.43
   6  -6  -8    0.32    1.58
   5  -6  -8    4.71    2.01
   4  -6  -8    3.99    1.84
   3  -6  -8   10.19    2.21
   2  -6  -8   89.85    5.21
   1  -6  -8   19.54    2.64
   0  -6  -8   15.74    1.61
   0  -6  -8   20.91    2.57
  -1  -6  -8    9.77    1.93
  -1  -6  -8    9.41    1.46
  -2  -6  -8   17.38    2.08
  -2  -6  -8   18.91    2.54
  -3  -6  -8   21.23    2.54
  -3  -6  -8   20.01    2.84
  -4  -6  -8   10.83    2.14
  -5  -6  -8    2.07    1.62
  -6  -6  -8   46.05    4.34
  -7  -6  -8   50.47    4.48
  -8  -6  -8   56.74    5.42
  -9  -6  -8   23.17    4.18
 -10  -6  -8   -0.07    2.42
 -11  -6  -8    5.06    3.46
 -12  -6  -8    2.04    3.10
 -13  -6  -8   -0.37    2.33
  10  -7  -8    4.44    2.38
   9  -7  -8    2.30    1.82
   8  -7  -8   31.95    4.53
   7  -7  -8    3.28    2.10
   6  -7  -8    4.24    2.13
   5  -7  -8    0.76    1.58
   4  -7  -8   10.17    2.44
   3  -7  -8    2.50    1.68
   2  -7  -8   74.13    5.00
   1  -7  -8   60.39    4.42
   0  -7  -8   46.89    3.73
   0  -7  -8   42.15    2.75
  -1  -7  -8    5.83    1.41
  -1  -7  -8    5.80    1.75
  -2  -7  -8    0.72    1.17
  -2  -7  -8    0.41    1.01
  -3  -7  -8    7.61    1.89
  -3  -7  -8    7.26    2.02
  -4  -7  -8    0.63    1.29
  -4  -7  -8    0.69    1.36
  -5  -7  -8   82.59    5.31
  -6  -7  -8    3.10    1.86
  -7  -7  -8   46.00    4.76
  -8  -7  -8    2.12    1.83
  -9  -7  -8   10.31    3.00
 -10  -7  -8    8.47    2.89
 -11  -7  -8    2.33    3.17
 -12  -7  -8   -4.32    2.81
 -13  -7  -8    1.15    3.00
  10  -8  -8    5.30    2.29
   9  -8  -8   17.95    3.82
   8  -8  -8    0.48    1.82
   7  -8  -8   18.52    3.57
   6  -8  -8   29.08    4.01
   5  -8  -8    1.06    1.54
   4  -8  -8    6.29    2.28
   3  -8  -8   -1.36    1.32
   2  -8  -8   20.92    3.17
   1  -8  -8   13.33    2.58
   0  -8  -8  132.20    6.72
   0  -8  -8  128.78    5.28
  -1  -8  -8    0.64    1.38
  -1  -8  -8   -0.15    1.13
  -2  -8  -8    4.36    1.62
  -2  -8  -8    6.72    1.90
  -3  -8  -8   38.65    3.43
  -3  -8  -8   44.96    4.13
  -4  -8  -8   55.88    4.35
  -4  -8  -8   50.24    4.43
  -5  -8  -8    8.59    2.18
  -5  -8  -8   13.22    2.87
  -6  -8  -8   83.86    5.69
  -7  -8  -8    8.99    2.61
  -8  -8  -8    3.18    2.02
  -9  -8  -8    2.62    1.93
 -10  -8  -8   17.24    3.78
 -11  -8  -8   23.14    4.50
 -12  -8  -8    0.50    1.97
   9  -9  -8    4.73    2.19
   8  -9  -8   19.18    3.79
   7  -9  -8    2.94    2.10
   6  -9  -8    2.57    1.91
   5  -9  -8    5.27    2.40
   4  -9  -8   19.86    3.33
   3  -9  -8    1.77    1.86
   2  -9  -8    8.46    2.43
   1  -9  -8   26.12    3.48
   0  -9  -8   14.86    2.81
  -1  -9  -8    8.91    1.88
  -1  -9  -8    6.82    2.09
  -2  -9  -8   27.33    3.02
  -2  -9  -8   28.67    3.53
  -3  -9  -8   29.38    3.12
  -3  -9  -8   24.38    3.46
  -4  -9  -8   13.96    2.66
  -4  -9  -8   13.56    2.93
  -5  -9  -8    4.32    2.23
  -5  -9  -8    2.31    1.70
  -6  -9  -8   26.02    3.86
  -6  -9  -8   25.54    3.63
  -7  -9  -8    3.63    2.05
  -8  -9  -8   -0.36    1.35
  -9  -9  -8    8.03    2.66
 -10  -9  -8   13.67    3.26
 -11  -9  -8    1.55    1.65
 -12  -9  -8    0.01    1.80
   8 -10  -8    2.55    2.09
   7 -10  -8   -0.70    1.81
   6 -10  -8   -1.26    2.06
   5 -10  -8   51.08    5.39
   4 -10  -8   39.93    4.70
   3 -10  -8   -1.71    1.33
   2 -10  -8    3.21    2.01
   1 -10  -8    2.21    1.86
   0 -10  -8   17.06    3.12
  -1 -10  -8   29.36    3.65
  -2 -10  -8   47.07    4.31
  -2 -10  -8   49.23    3.92
  -3 -10  -8    5.19    2.24
  -3 -10  -8    5.51    1.78
  -4 -10  -8    0.59    1.37
  -4 -10  -8    0.45    1.65
  -5 -10  -8   19.03    3.24
  -5 -10  -8   21.71    3.62
  -6 -10  -8   10.78    2.91
  -6 -10  -8   13.75    3.18
  -7 -10  -8    1.83    2.14
  -7 -10  -8   -0.39    1.26
  -8 -10  -8   31.91    4.38
  -9 -10  -8    0.78    1.59
 -10 -10  -8   16.32    3.63
 -11 -10  -8    1.91    1.93
   7 -11  -8    0.66    1.74
   6 -11  -8   -0.24    1.95
   5 -11  -8   11.57    3.21
   4 -11  -8   11.65    3.15
   3 -11  -8    1.42    1.78
   2 -11  -8   59.02    5.55
   1 -11  -8    0.82    1.85
   0 -11  -8    2.16    1.84
  -1 -11  -8   15.90    3.18
  -2 -11  -8    5.59    2.30
  -3 -11  -8    4.90    2.02
  -3 -11  -8    5.96    2.30
  -4 -11  -8    3.55    2.14
  -4 -11  -8    4.81    1.96
  -5 -11  -8    4.30    1.89
  -5 -11  -8    5.43    2.47
  -6 -11  -8   -0.67    1.76
  -6 -11  -8    1.97    1.62
  -7 -11  -8   28.48    4.11
  -7 -11  -8   27.83    4.15
  -8 -11  -8    0.56    2.17
  -8 -11  -8    7.24    2.46
  -9 -11  -8    5.02    2.24
  -9 -11  -8    8.06    3.14
 -10 -11  -8    0.36    1.57
 -11 -11  -8   12.01    3.23
   6 -12  -8   -1.10    1.61
   5 -12  -8    0.60    2.11
   4 -12  -8    2.44    2.23
   3 -12  -8   15.57    3.58
   2 -12  -8   10.95    3.16
   1 -12  -8   -1.18    1.69
   0 -12  -8    1.03    1.77
  -1 -12  -8    3.96    2.09
  -2 -12  -8    2.61    2.00
  -3 -12  -8   14.92    3.18
  -4 -12  -8   33.77    4.03
  -4 -12  -8   36.23    4.55
  -5 -12  -8    7.01    2.36
  -5 -12  -8    3.86    2.40
  -6 -12  -8    4.93    2.17
  -6 -12  -8    4.76    2.51
  -7 -12  -8    2.29    2.26
  -7 -12  -8    1.90    1.65
  -8 -12  -8    1.95    1.80
  -9 -12  -8    2.34    1.68
 -10 -12  -8    0.65    1.74
   5 -13  -8   -1.30    1.91
   4 -13  -8    0.77    1.36
   3 -13  -8    1.05    2.10
   2 -13  -8    9.36    3.01
   1 -13  -8   14.36    3.40
   0 -13  -8   35.14    4.67
  -1 -13  -8    7.27    2.83
  -2 -13  -8    1.20    2.37
  -3 -13  -8    4.53    2.33
  -4 -13  -8    7.44    2.88
  -5 -13  -8   26.77    4.34
  -5 -13  -8   36.67    4.35
  -6 -13  -8    8.11    3.13
  -6 -13  -8    6.54    2.36
  -7 -13  -8    1.93    1.84
  -8 -13  -8    3.45    2.07
  -9 -13  -8   10.04    3.01
   3 -14  -8   19.35    4.21
   2 -14  -8    1.94    2.02
   1 -14  -8   -3.94    1.65
   0 -14  -8    3.94    2.40
  -1 -14  -8   12.60    3.35
  -2 -14  -8    4.06    2.62
  -3 -14  -8    1.54    2.18
  -4 -14  -8   17.13    3.69
  -6 -14  -8    4.99    2.22
  -7 -14  -8    4.02    2.01
  -8 -14  -8   10.76    3.26
   1 -15  -8    2.57    2.70
   0 -15  -8    7.86    2.97
  -1 -15  -8   21.31    4.25
  -2 -15  -8    4.14    2.58
  -2 -14   9   -1.47    1.44
  -1 -14   9   25.39    4.47
   0 -14   9   38.84    5.16
   1 -14   9    0.73    1.79
   2 -14   9    5.45    2.59
  -5 -13   9    4.27    2.22
  -4 -13   9    7.06    2.86
  -3 -13   9   99.41    7.71
  -2 -13   9   33.53    4.86
  -1 -13   9   11.09    2.79
   1 -13   9    6.70    2.59
   2 -13   9    1.20    1.40
   4 -13   9    0.71    1.88
  -7 -12   9   -1.31    2.07
  -6 -12   9    0.58    1.44
  -5 -12   9   40.50    5.49
  -4 -12   9   29.20    4.67
  -3 -12   9   38.77    5.11
  -2 -12   9    6.60    2.59
  -1 -12   9   -1.49    1.22
   0 -12   9    4.13    1.89
   1 -12   9   20.84    3.74
   2 -12   9   44.92    5.21
   3 -12   9    4.31    1.96
   4 -12   9    5.28    1.94
   5 -12   9    4.73    2.41
  -8 -11   9   -0.66    1.77
  -7 -11   9   -0.21    2.50
  -6 -11   9   22.01    4.45
  -5 -11   9    1.23    2.32
  -4 -11   9   67.69    6.03
  -3 -11   9    0.84    1.84
  -2 -11   9    8.91    2.86
  -1 -11   9   60.49    5.46
   0 -11   9   20.30    3.82
   1 -11   9   10.42    2.89
   2 -11   9   13.45    3.14
   3 -11   9   25.35    3.63
   4 -11   9    2.32    1.68
   5 -11   9    0.41    1.65
   6 -11   9    3.30    2.01
  -9 -10   9   -2.32    1.29
  -8 -10   9    1.11    2.79
  -7 -10   9   19.10    4.34
  -6 -10   9    0.40    2.11
  -5 -10   9   40.85    5.20
  -4 -10   9    0.89    2.28
  -3 -10   9    3.24    2.24
  -2 -10   9   16.63    3.47
  -1 -10   9   92.61    6.44
   0 -10   9   46.23    4.87
   1 -10   9    3.28    1.99
   2 -10   9    7.56    2.53
   3 -10   9    4.25    2.22
   4 -10   9    4.61    1.86
   5 -10   9    7.99    2.61
   6 -10   9    7.32    2.41
   7 -10   9   -0.26    1.76
   7 -10   9   -0.12    1.77
   8 -10   9    0.20    1.86
 -10  -9   9    9.06    3.35
  -9  -9   9    1.78    2.74
  -8  -9   9   70.58    6.89
  -7  -9   9   -1.97    1.77
  -6  -9   9   26.36    4.43
  -5  -9   9   21.69    3.95
  -4  -9   9   13.90    3.31
  -3  -9   9    6.81    2.42
  -2  -9   9   90.72    6.28
  -1  -9   9   23.81    3.58
   0  -9   9   49.08    4.71
   1  -9   9    2.40    1.80
   2  -9   9    4.64    2.31
   3  -9   9    5.71    2.32
   4  -9   9   20.00    3.06
   5  -9   9   99.01    6.58
   5  -9   9   96.35    6.55
   6  -9   9   -1.65    1.66
   6  -9   9    1.58    1.61
   7  -9   9    6.23    2.65
   7  -9   9    5.65    2.29
   8  -9   9    4.83    2.36
   8  -9   9   -0.30    1.74
   9  -9   9    3.47    2.11
 -11  -8   9    0.97    2.52
 -10  -8   9   -1.90    2.30
  -9  -8   9   65.77    6.64
   9   8  -9   77.84    8.61
  -8  -8   9    0.14    2.14
   8   8  -9    1.03    3.15
   7   8  -9   -0.90    2.58
  -7  -8   9   -0.55    1.77
   6   8  -9    6.96    3.30
  -6  -8   9   11.49    3.13
  -5  -8   9    2.59    2.12
   5   8  -9    0.76    2.83
  -4  -8   9   16.21    3.36
   4   8  -9   14.36    3.87
  -3  -8   9   51.74    4.67
  -2  -8   9   36.69    4.01
  -1  -8   9   37.80    4.14
   0  -8   9    1.45    1.57
   1  -8   9    6.47    2.24
   2  -8   9   75.31    5.47
   3  -8   9    0.78    0.64
   3  -8   9    3.66    2.17
   4  -8   9   14.47    2.89
   4  -8   9   16.20    2.99
   5  -8   9   -0.57    1.59
   5  -8   9    2.44    2.01
   6  -8   9   15.55    3.04
   6  -8   9   16.63    3.20
   7  -8   9   -1.01    1.82
   7  -8   9    3.29    1.97
   8  -8   9    1.89    1.91
   8  -8   9   -0.24    1.71
   9  -8   9    2.53    2.13
   9  -8   9    1.37    2.18
  10  -8   9   15.41    3.75
 -12  -7   9    8.90    4.28
 -11  -7   9   10.71    4.01
  11   7  -9   -1.45    2.40
 -10  -7   9   24.01    4.69
  10   7  -9   19.24    5.47
   9   7  -9   -1.89    2.70
  -9  -7   9   -0.98    2.02
   8   7  -9    1.15    3.27
  -8  -7   9    2.53    2.37
  -7  -7   9    2.62    2.32
   7   7  -9    3.07    2.67
  -6  -7   9   88.98    6.40
   6   7  -9   87.81    7.90
  -5  -7   9   16.47    3.33
   5   7  -9    9.00    3.66
   4   7  -9   83.75    7.26
  -4  -7   9   73.35    5.53
  -3  -7   9   11.28    2.69
   3   7  -9   19.51    4.04
  -2  -7   9   10.75    2.56
   2   7  -9   10.67    3.07
  -1  -7   9    5.29    2.03
   1   7  -9    3.67    2.60
   0  -7   9   53.22    4.22
   1  -7   9  147.20    7.41
   2  -7   9   67.71    4.18
   2  -7   9   58.85    4.69
   3  -7   9    3.19    1.94
   4  -7   9    0.71    1.82
   4  -7   9    1.39    1.78
   5  -7   9    0.88    1.82
   5  -7   9    0.47    1.59
   6  -7   9    3.40    1.93
   6  -7   9    6.15    2.30
   7  -7   9   96.00    6.65
   7  -7   9  102.79    6.52
   8  -7   9    5.28    2.60
   8  -7   9    1.76    2.25
   9  -7   9    5.21    2.32
   9  -7   9    8.29    2.88
  10  -7   9    0.31    2.16
  12   6  -9    6.25    4.12
  11   6  -9   18.77    5.64
 -11  -6   9   19.50    4.34
  10   6  -9    6.84    3.61
 -10  -6   9    5.21    3.11
   9   6  -9    1.05    3.15
  -9  -6   9    0.70    2.42
  -8  -6   9    6.13    2.66
   8   6  -9    5.70    3.31
   7   6  -9   78.10    7.75
  -7  -6   9   72.07    5.83
   6   6  -9    7.23    3.42
  -6  -6   9    4.14    2.31
  -5  -6   9  112.09    6.66
   5   6  -9  113.30    8.41
   4   6  -9    4.68    2.83
  -4  -6   9    9.57    2.53
   3   6  -9    1.64    2.17
  -3  -6   9   -0.35    1.43
   2   6  -9  119.67    7.58
  -2  -6   9  119.32    6.28
   1   6  -9    8.18    2.72
  -1  -6   9    5.39    2.05
   0  -6   9   16.61    2.63
   0   6  -9   11.83    2.77
   1  -6   9  219.23    9.11
   1  -6   9  219.13    7.55
   2  -6   9    4.98    1.79
   2  -6   9    2.90    1.45
   4  -6   9   29.36    3.28
   4  -6   9   27.69    3.47
   5  -6   9    9.40    2.41
   5  -6   9   10.85    2.61
   6  -6   9   38.29    4.04
   6  -6   9   27.32    3.61
   7  -6   9   17.39    3.18
   7  -6   9   12.57    2.88
   8  -6   9   23.57    3.77
   8  -6   9   34.11    4.17
   9  -6   9    2.69    2.05
   9  -6   9    8.13    2.46
 -10   6  -9    4.71    3.23
  10  -6   9   -0.67    1.71
 -10   6  -9    1.43    2.05
  11  -6   9    0.03    1.29
  12   5  -9   17.17    4.85
  11   5  -9    0.27    3.36
  10   5  -9    8.53    3.80
 -10  -5   9    1.75    2.83
  -9  -5   9   26.99    4.30
   9   5  -9   20.18    4.93
   8   5  -9   34.11    5.60
  -8  -5   9   31.56    4.30
  -7  -5   9    4.38    2.36
   7   5  -9    6.12    3.46
   6   5  -9   90.89    7.75
  -6  -5   9   81.01    5.65
  -5  -5   9   -0.29    1.58
   5   5  -9   -2.96    1.90
  -4  -5   9    2.13    1.79
   4   5  -9    1.69    2.53
  -3  -5   9   55.80    4.24
   3   5  -9   53.05    5.41
   2   5  -9   81.33    6.15
  -2  -5   9   83.13    4.92
  -1  -5   9    0.90    1.40
   1   5  -9   -1.57    1.52
   0  -5   9   57.31    4.00
   0  -5   9   51.65    2.56
   0   5  -9   55.86    4.50
   1  -5   9   16.38    2.58
   1  -5   9   16.71    1.91
  -2   5  -9    1.66    1.39
   2  -5   9    1.13    1.17
   2  -5   9    1.31    1.43
   3  -5   9  123.50    6.23
   3  -5   9  106.72    5.33
   4  -5   9   56.40    4.26
   4  -5   9   54.01    4.09
   5  -5   9   10.10    2.39
   5  -5   9    8.19    2.25
   6  -5   9   -0.10    1.43
   6  -5   9    0.95    1.58
   7  -5   9   18.73    3.22
   7  -5   9   23.08    3.40
   8  -5   9    6.29    2.39
   8  -5   9    6.08    2.33
   9  -5   9   18.64    3.56
  10  -5   9    5.07    2.57
 -10   5  -9    2.52    3.06
 -10   5  -9    0.42    2.00
 -11   5  -9    3.90    2.00
  11  -5   9   -0.49    1.70
 -11   5  -9   -0.10    2.68
  13   4  -9    3.18    4.32
  12   4  -9    5.76    3.47
  11   4  -9   11.81    4.27
  10   4  -9    0.35    2.62
 -10  -4   9    3.94    2.41
   9   4  -9   10.20    4.37
  -9  -4   9   16.26    3.47
   8   4  -9    0.59    2.83
  -8  -4   9    1.41    2.02
  -7  -4   9   45.82    4.40
   7   4  -9   31.71    5.08
   6   4  -9   28.46    4.81
  -6  -4   9   29.35    3.53
   5   4  -9   29.35    4.51
  -5  -4   9   27.41    3.26
   4   4  -9   -0.69    1.98
  -4  -4   9   -0.85    1.23
   3   4  -9  250.04   11.43
  -3  -4   9  257.23    9.49
   2   4  -9   -0.83    1.69
  -2  -4   9   -0.03    1.16
  -1  -4   9   86.23    4.76
   1   4  -9   87.15    5.73
   0  -4   9   58.00    3.92
   0  -4   9   65.10    2.64
   0   4  -9   57.42    4.46
   1  -4   9    0.03    1.17
  -1   4  -9    0.98    1.45
   1  -4   9   -0.47    0.70
  -2   4  -9    2.62    1.39
   2  -4   9    3.47    1.50
   2  -4   9    1.50    1.15
  -3   4  -9  174.02    6.21
   3  -4   9  167.39    7.28
   3  -4   9  176.92    6.88
   4  -4   9   29.09    3.33
   4  -4   9   34.68    3.27
   5  -4   9   51.51    4.16
   5  -4   9   49.53    4.05
   6  -4   9    0.17    1.64
   6  -4   9    1.31    1.56
   7  -4   9    0.70    1.60
   7  -4   9   -1.51    1.27
   8  -4   9    6.18    2.30
   8  -4   9    5.72    2.16
  -9   4  -9    8.69    2.99
   9  -4   9   13.09    3.11
  -9   4  -9    9.21    3.40
 -10   4  -9   50.51    5.83
  10  -4   9   35.80    4.68
 -10   4  -9   34.61    5.09
  11  -4   9    4.59    2.34
 -11   4  -9    3.73    3.17
 -11   4  -9    4.58    2.68
 -12   4  -9    4.79    3.73
  12  -4   9    0.74    1.32
  12   3  -9    5.00    3.33
  11   3  -9   68.21    7.58
  10   3  -9   80.29    8.12
   9   3  -9    9.06    3.75
  -9  -3   9   11.83    2.93
   8   3  -9   14.83    4.22
  -8  -3   9   10.08    2.38
  -7  -3   9   20.46    3.10
   7   3  -9   30.04    4.82
  -6  -3   9    7.54    2.13
   6   3  -9    3.51    2.65
  -5  -3   9   78.95    4.69
   5   3  -9   60.90    5.63
   4   3  -9  348.22   14.24
  -4  -3   9  361.68   11.87
  -3  -3   9    3.43    1.50
   3   3  -9    1.78    1.90
   2   3  -9   74.73    5.24
  -2  -3   9   74.88    4.18
  -1  -3   9  229.15    8.35
   1   3  -9  243.01    9.71
   0   3  -9   26.13    2.93
   0  -3   9   21.68    2.49
  -1   3  -9  112.20    5.36
   1  -3   9  110.65    5.36
   1  -3   9  111.63    4.28
   2  -3   9   24.52    2.68
   2  -3   9   28.24    2.29
  -2   3  -9   23.35    2.29
  -3   3  -9   51.31    2.92
   3  -3   9   51.20    3.39
   3  -3   9   53.00    3.78
   4  -3   9  141.40    6.59
   4  -3   9  142.10    6.40
   5  -3   9    4.17    1.86
   5  -3   9    5.12    1.86
   6  -3   9   19.83    3.00
   6  -3   9   22.28    3.11
   7  -3   9   10.26    2.48
   7  -3   9    7.75    2.40
   8  -3   9    3.66    2.14
  -9   3  -9   17.54    3.87
   9  -3   9   15.88    3.24
  -9   3  -9   20.86    4.13
 -10   3  -9   11.60    3.30
  10  -3   9   12.00    3.00
 -10   3  -9   11.11    3.61
  11  -3   9    1.04    1.93
 -11   3  -9    3.19    2.36
 -11   3  -9    1.79    2.48
  12  -3   9    2.19    1.64
 -12   3  -9   -2.95    2.36
 -13   3  -9    3.90    2.42
  12   2  -9   59.98    7.23
  11   2  -9   25.48    5.05
  10   2  -9    6.40    3.26
   9   2  -9    3.27    2.79
   8   2  -9    2.15    3.07
  -8  -2   9    3.45    1.78
   7   2  -9   33.77    4.97
  -7  -2   9   36.29    3.55
   6   2  -9    6.54    2.94
  -6  -2   9    6.74    1.85
   5   2  -9   92.13    4.06
   5   2  -9   87.09    6.36
  -5  -2   9   98.20    4.91
   4   2  -9   18.40    1.61
  -4  -2   9   17.21    2.24
   4   2  -9   12.81    2.67
   3   2  -9   34.76    3.78
  -3  -2   9   33.34    2.75
   2   2  -9   -2.04    1.22
  -2  -2   9    0.43    1.08
   1   2  -9  187.39    7.94
  -1  -2   9  183.52    6.73
   0  -2   9   73.61    3.96
   0   2  -9   74.58    4.40
  -1   2  -9   68.08    3.92
   1  -2   9   58.89    3.64
   2  -2   9   17.05    2.18
  -2   2  -9   17.25    2.01
  -3   2  -9   22.54    2.00
   3  -2   9   29.74    2.79
   3  -2   9   26.95    2.48
   4  -2   9   18.81    2.39
   4  -2   9   14.93    2.35
  -4   2  -9   17.10    1.28
   5  -2   9   14.65    2.46
   5  -2   9   14.18    2.32
   6  -2   9   64.73    4.56
   6  -2   9   66.57    4.66
   7  -2   9    4.19    1.86
   7  -2   9    3.21    1.92
  -8   2  -9    0.11    2.16
  -8   2  -9    1.97    2.13
   8  -2   9   -0.92    1.44
   9  -2   9    1.63    1.85
  -9   2  -9   -0.05    1.80
  -9   2  -9   -1.75    1.84
 -10   2  -9    9.00    3.23
 -10   2  -9    6.48    2.70
  10  -2   9   10.61    2.90
  11  -2   9    2.68    2.19
 -11   2  -9   -0.88    2.32
 -12   2  -9   23.09    4.21
 -13   2  -9   -1.05    1.83
  13  -2   9    1.78    2.23
  11   1  -9   -0.38    2.29
  10   1  -9   30.94    5.22
   9   1  -9   23.21    4.62
   8   1  -9   85.96    7.21
   7   1  -9   54.99    5.58
   7   1  -9   50.99    3.83
  -7  -1   9   52.37    3.69
   6   1  -9   42.07    4.70
  -6  -1   9   42.38    3.27
   6   1  -9   49.49    3.35
  -5  -1   9   30.72    2.50
   5   1  -9   25.99    2.39
   5   1  -9   25.93    3.59
   4   1  -9   40.76    2.52
   4   1  -9   35.87    3.88
   3   1  -9  242.52   10.08
   3   1  -9  237.36    7.05
   2   1  -9  295.70   10.99
   2   1  -9  296.57    8.14
  -2  -1   9  298.30    9.12
   1   1  -9   14.58    1.27
   1   1  -9   16.21    2.30
  -1  -1   9   16.43    1.86
   0  -1   9  337.60   10.12
   0   1  -9  314.84   11.00
  -1   1  -9  227.18    8.14
   1  -1   9  227.17    7.78
   2  -1   9   38.32    2.92
  -2   1  -9   43.19    2.81
   3  -1   9   64.30    3.82
   4  -1   9    8.98    1.89
   4  -1   9    9.93    1.86
   5  -1   9   33.92    3.28
   5  -1   9   42.83    3.47
   6  -1   9  183.11    8.05
   6  -1   9  201.44    8.36
  -7   1  -9    1.13    1.90
   7  -1   9   -0.31    1.44
  -7   1  -9    0.17    1.80
  -8   1  -9    7.51    2.87
   8  -1   9    2.12    1.93
  -8   1  -9    3.69    2.31
   9  -1   9    1.88    1.84
  -9   1  -9    2.70    2.23
  -9   1  -9   -0.07    2.14
  10  -1   9    0.48    1.70
 -10   1  -9   -0.14    2.30
 -11   1  -9    3.02    2.72
  11  -1   9    1.52    1.74
  12  -1   9   -0.22    1.58
 -12   1  -9    2.15    2.80
  13  -1   9   15.01    3.41
 -13   1  -9   10.75    3.61
  11   0  -9    5.42    2.77
  10   0  -9   66.47    6.88
   9   0  -9   35.45    3.72
   9   0  -9   25.87    4.59
   8   0  -9   32.14    4.66
   8   0  -9   39.96    3.79
   7   0  -9   76.20    4.77
   7   0  -9   82.15    6.36
   6   0  -9   -0.24    1.91
  -6   0   9    1.60    1.40
   6   0  -9    0.00    1.27
  -5   0   9    1.17    1.05
   5   0  -9    0.96    1.15
   5   0  -9    1.32    1.68
  -4   0   9   21.35    1.95
   4   0  -9   21.30    2.05
   4   0  -9   18.96    2.92
  -3   0   9  103.75    4.15
   3   0  -9   96.03    5.72
   3   0  -9  106.25    4.16
  -2   0   9    6.24    1.21
   2   0  -9    7.11    2.04
   2   0  -9    7.27    1.15
  -1   0   9  303.24    9.35
   1   0  -9  338.74   11.40
   1   0  -9  333.55    9.17
   0   0   9   32.95    2.36
   1   0   9   14.71    1.80
   2   0   9  235.87    7.93
   3   0   9   -0.21    1.10
   4   0   9   13.33    2.07
   5   0   9   56.11    3.90
   5   0   9   57.02    3.90
  -6   0  -9   41.34    3.96
   6   0   9   49.75    3.93
  -6   0  -9   43.69    4.06
  -7   0  -9   14.04    2.98
  -7   0  -9   10.38    2.86
   7   0   9    8.84    2.42
   8   0   9   66.49    5.16
  -8   0  -9   59.03    5.27
  -8   0  -9   55.04    5.01
  -9   0  -9    0.95    2.00
   9   0   9    2.48    2.04
  10   0   9    0.39    1.82
 -10   0  -9    0.42    2.11
  11   0   9    1.70    2.02
 -11   0  -9    5.11    2.63
 -12   0  -9    1.91    2.58
  12   0   9   12.06    3.09
  13   0   9   10.65    3.08
 -13   0  -9    5.35    3.06
 -14   0  -9    8.19    4.19
  10  -1  -9   34.66    4.13
  10  -1  -9   31.13    5.03
   9  -1  -9   17.19    3.01
   9  -1  -9   14.94    3.59
   8  -1  -9   56.18    5.62
   8  -1  -9   67.09    4.82
   7  -1  -9    2.08    2.20
   7  -1  -9   -1.74    1.44
   6  -1  -9   35.07    3.37
   6  -1  -9   30.50    4.01
   5  -1  -9    0.66    1.60
  -5   1   9   -0.65    0.81
   5  -1  -9    0.52    1.13
  -4   1   9   67.72    3.03
   4  -1  -9   68.39    4.93
   4  -1  -9   63.20    3.63
   3  -1  -9    2.61    1.13
  -3   1   9    2.62    0.87
   3  -1  -9    2.64    1.62
  -2   1   9   15.00    1.34
   2  -1  -9   15.45    1.70
   2  -1  -9    9.42    2.14
   1  -1  -9  227.67    7.50
  -1   1   9  249.06    7.11
   0   1   9    8.01    1.23
   0  -1  -9    4.85    1.21
   1   1   9    0.00    0.78
   2   1   9  569.52   15.82
   3   1   9   14.48    1.95
  -4  -1  -9   42.93    3.69
  -4  -1  -9   45.08    3.68
  -5  -1  -9    1.15    1.54
  -5  -1  -9    0.17    1.39
  -6  -1  -9   27.02    3.51
  -6  -1  -9   23.69    3.50
  -7  -1  -9   23.66    3.76
  -7  -1  -9   19.46    3.34
  -8  -1  -9   78.21    5.94
  -9  -1  -9   16.86    3.75
 -10  -1  -9   11.42    3.51
 -11  -1  -9    6.94    3.19
 -12  -1  -9    1.90    2.73
 -13  -1  -9    4.26    3.21
 -14  -1  -9   -0.18    3.37
  11  -2  -9   16.91    3.47
  10  -2  -9   13.55    3.13
   9  -2  -9    2.43    1.79
   9  -2  -9    1.30    2.20
   8  -2  -9    6.42    2.20
   8  -2  -9   10.61    2.95
   7  -2  -9    2.13    2.04
   7  -2  -9   -0.67    1.40
   6  -2  -9  133.26    6.60
   6  -2  -9  137.17    7.62
   5  -2  -9  203.48    8.12
   5  -2  -9  224.30    9.95
   4  -2  -9    5.29    1.55
   4  -2  -9    6.75    2.11
   3  -2  -9   28.36    2.52
   2  -2  -9  121.73    5.09
   1  -2  -9   16.09    1.84
   0  -2  -9   36.80    2.78
   0   2   9   46.82    2.25
   1   2   9  255.92    7.64
  -2  -2  -9    3.25    1.36
  -2  -2  -9    4.24    1.56
  -3  -2  -9  187.53    7.50
  -3  -2  -9  184.92    7.33
  -4  -2  -9   87.91    4.98
  -4  -2  -9   87.65    5.03
  -5  -2  -9   12.71    2.58
  -5  -2  -9    9.91    2.24
  -6  -2  -9   13.39    2.68
  -7  -2  -9    2.32    1.86
  -8  -2  -9   86.58    6.28
  -9  -2  -9   32.16    4.53
 -10  -2  -9   -0.81    2.44
 -11  -2  -9    1.31    2.42
 -12  -2  -9    2.19    2.85
 -13  -2  -9    2.54    3.23
 -14  -2  -9    1.70    3.33
  12  -3  -9    2.94    2.21
  11  -3  -9   20.37    3.61
  10  -3  -9   14.17    3.31
   9  -3  -9    1.67    1.76
   9  -3  -9    2.35    2.18
   8  -3  -9    4.53    2.25
   8  -3  -9   12.57    3.13
   7  -3  -9   64.14    5.38
   7  -3  -9   56.39    4.66
   6  -3  -9   60.13    5.12
   6  -3  -9   49.83    4.07
   5  -3  -9    0.88    1.55
   5  -3  -9    2.50    1.63
   4  -3  -9   17.95    2.44
   3  -3  -9   11.98    1.99
   2  -3  -9    3.82    1.26
   1  -3  -9   54.56    3.33
   0  -3  -9   50.32    3.30
   0  -3  -9   54.72    2.59
  -1  -3  -9  101.87    4.27
  -1  -3  -9  106.28    5.04
  -2  -3  -9   36.65    2.81
  -3  -3  -9    0.73    1.18
  -4  -3  -9  181.52    7.54
  -5  -3  -9   41.18    3.87
  -6  -3  -9   28.42    3.51
  -7  -3  -9    0.19    1.36
  -8  -3  -9   52.75    5.25
  -9  -3  -9    0.90    2.29
 -10  -3  -9    9.26    3.20
 -11  -3  -9   29.03    5.32
 -12  -3  -9    3.07    3.03
 -13  -3  -9    3.29    3.45
  12  -4  -9    7.10    3.05
  11  -4  -9    0.38    1.94
  10  -4  -9    3.63    2.01
   9  -4  -9   27.59    3.94
   8  -4  -9    4.54    2.34
   8  -4  -9    2.92    2.09
   7  -4  -9    2.42    1.93
   7  -4  -9    1.43    1.78
   6  -4  -9   -2.37    1.40
   6  -4  -9   -0.65    1.37
   5  -4  -9   54.05    4.74
   5  -4  -9   55.21    4.26
   4  -4  -9  143.17    6.64
   3  -4  -9  141.88    6.38
   2  -4  -9   27.35    2.84
   1  -4  -9   21.58    2.43
   0  -4  -9   39.39    2.97
  -1  -4  -9   28.36    2.29
  -1  -4  -9   33.78    2.87
  -2  -4  -9  168.97    6.33
  -3  -4  -9  288.38    9.80
  -4  -4  -9   12.40    2.26
  -5  -4  -9  277.55   10.50
  -6  -4  -9    4.58    2.03
  -7  -4  -9   -1.12    1.29
  -8  -4  -9    5.84    2.40
  -9  -4  -9    1.34    2.36
 -10  -4  -9    3.97    3.26
 -11  -4  -9   22.52    5.03
 -12  -4  -9   22.32    4.92
 -13  -4  -9   -0.17    2.26
  11  -5  -9    6.81    2.65
  10  -5  -9    7.18    2.59
   9  -5  -9   24.63    4.02
   8  -5  -9    7.23    2.58
   7  -5  -9    8.69    2.67
   7  -5  -9    9.27    2.83
   6  -5  -9    0.35    1.66
   6  -5  -9    1.55    1.81
   5  -5  -9   29.84    3.50
   4  -5  -9   64.32    4.50
   3  -5  -9   11.86    2.20
   2  -5  -9  238.91    9.03
   1  -5  -9    4.29    1.53
   0  -5  -9   -0.03    0.99
  -1  -5  -9    1.73    0.90
  -1  -5  -9   -0.37    0.94
  -2  -5  -9   45.75    3.67
  -2  -5  -9   41.51    2.96
  -3  -5  -9   13.25    2.11
  -4  -5  -9  238.87    9.33
  -5  -5  -9   15.16    2.79
  -6  -5  -9    1.77    1.49
  -7  -5  -9   14.17    3.12
  -8  -5  -9   15.97    3.45
  -9  -5  -9   -2.04    1.40
 -10  -5  -9    8.73    3.52
 -11  -5  -9    5.55    3.30
 -12  -5  -9    3.35    3.50
 -13  -5  -9    0.37    2.10
  11  -6  -9   12.94    3.62
   9  -6  -9    5.56    2.72
   8  -6  -9    7.05    2.87
   7  -6  -9    8.81    2.77
   7  -6  -9   10.31    2.73
   6  -6  -9    1.55    1.59
   5  -6  -9    1.37    1.64
   4  -6  -9    1.86    1.51
   3  -6  -9   48.53    4.00
   2  -6  -9   31.38    3.27
   1  -6  -9    0.71    1.31
   0  -6  -9    7.06    1.80
   0  -6  -9    5.07    1.05
  -1  -6  -9    6.27    1.34
  -1  -6  -9    3.57    1.52
  -2  -6  -9    1.15    1.22
  -2  -6  -9    1.26    1.06
  -3  -6  -9   42.49    3.27
  -3  -6  -9   39.51    3.84
  -4  -6  -9   81.42    4.92
  -5  -6  -9   16.64    2.86
  -6  -6  -9   12.85    2.74
  -7  -6  -9  123.91    7.27
  -8  -6  -9    7.82    2.61
  -9  -6  -9   21.13    3.95
 -10  -6  -9    4.80    2.43
 -11  -6  -9   -1.41    2.65
 -12  -6  -9    0.89    3.11
 -13  -6  -9   -1.10    2.54
  10  -7  -9    2.71    2.10
   9  -7  -9    2.35    1.82
   8  -7  -9    1.83    2.31
   7  -7  -9   36.16    4.37
   6  -7  -9   19.19    3.39
   5  -7  -9   27.40    3.71
   4  -7  -9   -0.44    1.25
   3  -7  -9    1.56    1.45
   2  -7  -9   38.48    3.81
   1  -7  -9   39.55    3.81
   0  -7  -9  215.68    6.99
   0  -7  -9  213.08    8.78
  -1  -7  -9   15.00    1.91
  -1  -7  -9   13.89    2.40
  -2  -7  -9    0.33    1.14
  -2  -7  -9    4.26    1.44
  -3  -7  -9   -1.10    1.10
  -3  -7  -9   -0.22    1.15
  -4  -7  -9   14.40    2.73
  -4  -7  -9   11.65    2.17
  -5  -7  -9    1.35    1.60
  -6  -7  -9  220.53    9.72
  -7  -7  -9   23.08    3.49
  -8  -7  -9   35.94    4.50
  -9  -7  -9    7.16    2.60
 -10  -7  -9   -0.12    1.58
 -11  -7  -9   -1.25    1.52
 -12  -7  -9    0.63    3.23
 -13  -7  -9    0.68    3.33
   9  -8  -9    8.65    3.22
   8  -8  -9   -0.26    1.64
   7  -8  -9    9.64    2.93
   6  -8  -9   30.61    4.24
   5  -8  -9    5.31    2.28
   4  -8  -9    8.00    2.39
   3  -8  -9   -0.02    1.26
   2  -8  -9    5.34    2.10
   1  -8  -9   41.46    4.18
   0  -8  -9    0.53    1.27
  -1  -8  -9   53.16    3.40
  -1  -8  -9   57.61    4.44
  -2  -8  -9    3.40    1.73
  -2  -8  -9    2.11    1.43
  -3  -8  -9    4.61    1.97
  -3  -8  -9    4.00    1.72
  -4  -8  -9    4.29    1.79
  -4  -8  -9    5.79    2.26
  -5  -8  -9   48.26    4.13
  -5  -8  -9   45.97    4.58
  -6  -8  -9   14.25    2.75
  -7  -8  -9   19.32    3.34
  -8  -8  -9    0.55    1.61
  -9  -8  -9   48.76    5.40
 -10  -8  -9   15.55    3.60
 -11  -8  -9   15.62    3.86
 -12  -8  -9    6.79    2.90
   9  -9  -9   25.95    4.54
   8  -9  -9    1.99    1.81
   7  -9  -9    2.11    1.88
   6  -9  -9    2.03    1.71
   5  -9  -9   20.88    3.55
   4  -9  -9    3.32    2.16
   3  -9  -9    9.24    2.65
   2  -9  -9   10.25    2.72
   1  -9  -9   -0.28    1.55
   0  -9  -9    0.19    1.51
  -1  -9  -9   30.35    3.57
  -2  -9  -9   75.11    4.54
  -2  -9  -9   76.71    5.40
  -3  -9  -9   53.29    4.64
  -3  -9  -9   61.24    4.40
  -4  -9  -9   13.11    2.86
  -4  -9  -9   20.57    2.90
  -5  -9  -9    4.77    2.37
  -5  -9  -9    4.63    1.90
  -6  -9  -9    2.72    1.91
  -6  -9  -9    0.56    1.85
  -7  -9  -9    0.89    1.49
  -8  -9  -9   36.26    4.53
  -9  -9  -9   -1.21    1.41
 -10  -9  -9   40.69    5.19
 -11  -9  -9    9.00    2.70
 -12  -9  -9    2.30    2.12
   8 -10  -9    9.85    3.29
   7 -10  -9    1.21    1.53
   6 -10  -9    1.61    1.90
   5 -10  -9   19.53    3.68
   4 -10  -9   29.72    4.20
   3 -10  -9   26.88    3.90
   2 -10  -9   -0.38    1.54
   1 -10  -9    0.08    1.47
   0 -10  -9    7.13    2.38
  -1 -10  -9   30.45    3.73
  -2 -10  -9    0.24    1.53
  -3 -10  -9   38.20    3.45
  -3 -10  -9   39.42    4.40
  -4 -10  -9   -0.35    1.49
  -4 -10  -9    1.48    1.53
  -5 -10  -9    9.50    2.58
  -5 -10  -9    8.27    2.85
  -6 -10  -9    0.97    1.64
  -6 -10  -9    0.68    1.83
  -7 -10  -9   20.74    3.89
  -7 -10  -9   17.68    3.30
  -8 -10  -9    9.73    2.92
  -9 -10  -9   12.54    3.20
 -10 -10  -9    4.55    2.11
 -11 -10  -9    2.68    1.76
   7 -11  -9    0.65    1.69
   6 -11  -9    0.08    1.72
   5 -11  -9    6.66    2.73
   4 -11  -9    0.56    1.92
   3 -11  -9    0.77    1.76
   2 -11  -9    6.58    2.61
   1 -11  -9   -1.30    1.57
   0 -11  -9   12.72    2.91
  -1 -11  -9    0.04    1.61
  -2 -11  -9   24.29    3.67
  -3 -11  -9   13.80    3.04
  -4 -11  -9    0.06    1.40
  -4 -11  -9   -0.68    1.50
  -5 -11  -9    4.91    1.95
  -5 -11  -9    0.32    1.82
  -6 -11  -9    3.74    2.12
  -6 -11  -9    1.15    1.74
  -7 -11  -9   -0.43    1.79
  -7 -11  -9   -0.16    1.31
  -8 -11  -9   17.80    3.54
  -8 -11  -9   17.04    4.04
  -9 -11  -9    7.48    2.99
  -9 -11  -9    1.57    1.56
 -10 -11  -9    0.42    1.34
 -11 -11  -9    2.67    1.62
   6 -12  -9    0.04    1.80
   5 -12  -9   -1.06    1.27
   4 -12  -9   -0.12    1.99
   3 -12  -9   10.49    2.90
   2 -12  -9   12.86    3.43
   1 -12  -9    6.23    2.61
   0 -12  -9    0.65    1.72
  -1 -12  -9    1.47    1.91
  -2 -12  -9    2.37    2.03
  -3 -12  -9    1.09    1.87
  -4 -12  -9    2.21    2.31
  -5 -12  -9   29.71    4.14
  -5 -12  -9   30.65    3.98
  -6 -12  -9    1.74    1.53
  -6 -12  -9    1.55    2.28
  -7 -12  -9   -1.51    2.00
  -7 -12  -9    0.64    1.64
  -8 -12  -9    4.80    2.08
  -8 -12  -9   -0.19    2.22
  -9 -12  -9    2.01    1.78
 -10 -12  -9    4.14    2.15
   4 -13  -9    2.78    1.89
   3 -13  -9    1.23    2.04
   2 -13  -9    7.61    2.95
   1 -13  -9    3.21    2.22
   0 -13  -9    4.65    2.44
  -1 -13  -9    1.97    2.16
  -2 -13  -9    1.48    2.24
  -3 -13  -9    5.51    2.51
  -4 -13  -9   12.97    3.34
  -5 -13  -9   -1.59    2.25
  -6 -13  -9   13.45    3.05
  -6 -13  -9   12.52    3.28
  -7 -13  -9    1.68    2.41
  -7 -13  -9    1.12    1.65
  -8 -13  -9    2.84    1.80
  -9 -13  -9    0.03    1.43
   3 -14  -9    1.60    2.00
   2 -14  -9    4.13    2.41
   1 -14  -9   -1.95    1.85
   0 -14  -9    1.28    2.20
  -1 -14  -9    0.53    1.91
  -2 -14  -9    1.00    2.07
  -3 -14  -9    1.81    2.20
  -4 -14  -9    1.61    2.19
  -5 -14  -9    4.07    2.76
  -7 -14  -9    9.02    2.91
  -8 -14  -9    1.65    2.08
   1 -15  -9    3.71    2.93
   0 -15  -9    1.84    2.40
  -1 -15  -9    5.01    2.28
  -2 -15  -9    0.59    2.14
  -3 -15  -9    6.12    3.03
  -4 -13  10   18.93    4.14
  -3 -13  10   24.20    4.54
  -2 -13  10   40.85    5.49
  -1 -13  10   40.90    5.37
   0 -13  10   21.13    4.15
   1 -13  10    0.70    1.58
   2 -13  10    9.06    3.02
   3 -13  10    1.95    1.94
   4 -13  10   16.19    3.22
  -6 -12  10   -0.15    1.69
  -5 -12  10    0.35    1.93
  -4 -12  10   47.04    5.63
  -3 -12  10   29.16    4.64
  -2 -12  10   19.38    3.83
  -1 -12  10    4.18    1.93
   0 -12  10    3.47    2.01
   1 -12  10    0.74    1.53
   2 -12  10   21.84    3.85
   3 -12  10   15.58    3.01
   4 -12  10    5.20    2.11
   5 -12  10    8.65    2.64
  -8 -11  10   -2.23    1.77
  -7 -11  10   -0.60    1.45
  -6 -11  10    1.71    2.38
  -5 -11  10   32.98    5.08
  -4 -11  10   13.22    3.53
  -3 -11  10   47.41    5.41
  -2 -11  10    5.59    2.09
  -1 -11  10    0.54    1.50
   0 -11  10   52.57    5.54
   1 -11  10   55.09    5.50
   2 -11  10   23.84    4.01
   3 -11  10    8.09    2.56
   4 -11  10    3.49    2.19
   5 -11  10    1.85    1.73
   6 -11  10   12.88    2.92
  -9 -10  10    0.25    2.03
  -8 -10  10    5.15    2.91
  -7 -10  10    5.16    2.90
  -6 -10  10   63.09    6.63
  -5 -10  10   -0.47    2.08
  -4 -10  10   22.10    4.12
  -3 -10  10   -1.79    1.13
  -2 -10  10   10.21    2.92
  -1 -10  10   78.68    6.05
   0 -10  10   73.38    5.83
   1 -10  10   55.95    5.42
   2 -10  10    6.35    2.50
   3 -10  10    8.48    2.69
   4 -10  10    8.22    2.50
   5 -10  10   24.99    3.59
   6 -10  10    2.96    1.93
   7 -10  10   26.74    3.65
 -10  -9  10    4.87    3.10
  -9  -9  10   16.36    4.19
  -8  -9  10    4.43    2.81
  -7  -9  10   49.17    6.02
  -6  -9  10    4.10    2.54
  -5  -9  10    2.40    2.22
  -4  -9  10    2.14    2.06
  -3  -9  10   37.14    4.54
  -2  -9  10   36.28    4.42
  -1  -9  10   80.15    5.81
   1  -9  10   58.77    5.01
   2  -9  10    0.84    1.72
   3  -9  10   16.64    3.20
   5  -9  10   12.09    2.94
   6  -9  10   21.67    3.50
   6  -9  10   34.58    4.38
   7  -9  10    4.13    2.15
   7  -9  10    1.70    1.83
   8  -9  10   -0.62    1.91
   8  -9  10    6.26    2.27
   9  -9  10   10.53    3.00
 -11  -8  10    6.60    3.23
 -10  -8  10   30.31    5.12
  -9  -8  10   -3.71    2.01
   9   8 -10    2.99    3.65
   8   8 -10   33.46    6.08
  -8  -8  10   45.55    5.52
   7   8 -10    2.13    2.96
  -7  -8  10    0.86    2.19
   6   8 -10   -0.53    2.49
  -6  -8  10    0.24    2.02
  -5  -8  10    5.00    2.53
   5   8 -10    9.51    3.80
  -4  -8  10   44.23    4.87
   4   8 -10   44.99    5.68
   3   8 -10    2.25    2.50
  -3  -8  10    1.99    1.84
  -2  -8  10  152.38    8.07
  -1  -8  10   14.56    2.93
   0  -8  10    4.48    2.09
   1  -8  10   43.93    4.50
   2  -8  10   35.66    4.16
   3  -8  10   61.55    5.02
   4  -8  10   38.06    3.95
   4  -8  10   24.81    3.49
   5  -8  10   20.61    3.39
   5  -8  10   28.34    3.74
   6  -8  10    0.29    1.64
   6  -8  10    1.58    1.77
   7  -8  10    0.98    1.99
   7  -8  10    0.94    1.79
   8  -8  10    5.72    2.31
   8  -8  10   -1.38    1.54
   9  -8  10   48.22    5.51
   9  -8  10   55.85    5.48
  10  -8  10    7.04    3.14
 -11  -7  10   28.47    4.96
  11   7 -10    1.01    2.96
  10   7 -10    7.19    4.11
 -10  -7  10   14.54    3.92
  -9  -7  10   12.67    3.70
   9   7 -10   16.83    5.22
  -8  -7  10    3.54    2.51
   8   7 -10    1.73    3.37
  -7  -7  10    0.36    1.97
   7   7 -10   -2.91    2.24
   6   7 -10   19.65    4.73
  -6  -7  10   17.11    3.37
  -5  -7  10   94.20    6.50
   5   7 -10  101.82    8.33
  -4  -7  10   19.50    3.42
   4   7 -10   26.89    4.74
   3   7 -10   96.48    7.57
  -3  -7  10   86.44    5.83
  -2  -7  10    2.53    1.89
   2   7 -10    1.09    2.22
   1   7 -10    0.56    2.21
  -1  -7  10    0.21    1.41
   0  -7  10   29.45    3.60
   1  -7  10  101.79    6.08
   2  -7  10  141.13    7.37
   3  -7  10  102.26    6.26
   3  -7  10   93.66    5.22
   4  -7  10   18.27    3.26
   4  -7  10   29.09    3.42
   5  -7  10   10.99    2.75
   5  -7  10    6.68    2.11
   6  -7  10   17.09    3.21
   6  -7  10   16.24    3.14
   7  -7  10   11.09    2.79
   7  -7  10    5.62    2.41
   8  -7  10   28.36    4.15
   8  -7  10   29.57    4.18
   9  -7  10    6.49    2.44
   9  -7  10    3.53    2.46
  10  -7  10   10.74    3.34
 -11  -6  10    9.66    3.63
  11   6 -10    1.44    3.26
  10   6 -10   13.45    5.13
 -10  -6  10   21.82    4.24
   9   6 -10    5.01    3.33
  -9  -6  10   -2.44    1.95
  -8  -6  10    7.19    2.87
   8   6 -10    9.15    3.99
   7   6 -10    3.21    3.33
  -7  -6  10    7.45    2.79
  -6  -6  10  104.86    6.71
   6   6 -10  121.30    9.06
  -5  -6  10   -0.80    1.66
   5   6 -10   -2.56    2.12
   4   6 -10   40.79    5.42
  -4  -6  10   42.39    4.28
   3   6 -10   -2.64    2.00
  -3  -6  10    0.18    1.52
  -2  -6  10   23.32    3.20
   2   6 -10   21.66    3.95
  -1  -6  10   43.76    3.88
   1   6 -10   46.40    4.86
   0  -6  10  157.20    7.38
   0   6 -10  147.34    7.97
  -1   6 -10   51.03    4.18
   1  -6  10   42.80    3.77
   2  -6  10  131.74    5.75
   2  -6  10  129.28    6.72
   3  -6  10    5.51    2.11
   4  -6  10    1.42    1.69
   4  -6  10    4.89    1.69
   5  -6  10    9.67    2.60
   5  -6  10   11.31    2.46
   6  -6  10   58.70    4.76
   6  -6  10   39.12    4.14
   7  -6  10   45.50    4.62
   7  -6  10   36.94    4.16
   8  -6  10    1.84    1.72
   8  -6  10    2.88    2.08
   9  -6  10   22.63    3.75
   9  -6  10   18.39    3.63
 -10   6 -10   11.13    3.44
 -10   6 -10    2.18    3.42
  10  -6  10    6.20    2.69
 -11   6 -10   12.16    3.71
 -11   6 -10    9.79    4.41
  12   5 -10   11.47    4.60
  11   5 -10    0.10    3.11
 -10  -5  10   -2.22    2.06
  10   5 -10    4.64    3.51
  -9  -5  10    6.31    2.77
   9   5 -10    6.09    3.49
   8   5 -10   20.12    4.87
  -8  -5  10   12.32    3.09
   7   5 -10  142.49   10.06
  -7  -5  10  132.87    7.55
   6   5 -10   -2.11    2.28
  -6  -5  10    1.39    1.79
  -5  -5  10   33.26    3.75
   5   5 -10   26.81    4.69
   4   5 -10    5.43    2.93
  -4  -5  10    2.24    1.89
   3   5 -10    7.25    2.98
  -3  -5  10   12.14    2.48
   2   5 -10   27.76    4.03
  -2  -5  10   29.76    3.32
  -1  -5  10  117.96    6.06
   1   5 -10  116.20    7.20
   0  -5  10    7.19    2.07
   0   5 -10    8.35    2.54
  -1   5 -10  114.56    6.06
   1  -5  10   97.26    4.35
   1  -5  10  107.18    5.73
   2  -5  10    1.35    1.27
   2  -5  10    2.41    1.57
  -2   5 -10    3.79    1.66
   3  -5  10   13.51    2.51
   4  -5  10  254.57    9.55
   4  -5  10  246.14   10.05
   5  -5  10   37.87    3.93
   5  -5  10   40.49    3.96
   6  -5  10   27.63    3.58
   6  -5  10   31.60    3.78
   7  -5  10    2.15    1.61
   7  -5  10   -1.99    1.47
   8  -5  10   13.52    3.10
   8  -5  10   19.76    3.47
   9  -5  10   17.84    3.42
   9  -5  10   19.23    3.66
 -10   5 -10   20.99    4.51
  10  -5  10   15.46    3.47
 -10   5 -10   23.53    4.48
  11  -5  10    1.98    1.58
 -11   5 -10    1.28    3.22
 -11   5 -10    2.11    2.12
 -12   5 -10   26.32    4.47
 -12   5 -10   25.60    4.70
  12   4 -10   16.94    4.82
  11   4 -10    0.55    2.68
  10   4 -10   18.51    4.80
  -9  -4  10    8.95    2.92
   9   4 -10    6.52    3.33
   8   4 -10   82.58    7.79
  -8  -4  10   79.33    5.74
  -7  -4  10    6.48    2.44
   7   4 -10    6.22    3.35
  -6  -4  10    8.39    2.22
   6   4 -10   13.02    3.79
   5   4 -10    6.00    2.91
  -5  -4  10    9.55    2.32
  -4  -4  10  100.40    5.62
   4   4 -10   94.69    7.12
   3   4 -10    2.50    2.18
  -3  -4  10    1.54    1.53
  -2  -4  10  136.97    6.34
   2   4 -10  139.66    7.87
   1   4 -10    0.15    1.81
  -1  -4  10    1.84    1.44
   0   4 -10    9.90    2.38
   0  -4  10    9.27    2.06
   1  -4  10   39.49    2.47
   1  -4  10   37.11    3.33
  -1   4 -10   39.49    3.53
  -2   4 -10   80.89    4.64
   2  -4  10   78.56    4.76
   2  -4  10   86.77    4.18
  -3   4 -10   66.94    3.66
   3  -4  10   64.67    3.83
   3  -4  10   70.13    4.53
   4  -4  10  278.66   10.65
   4  -4  10  296.09   10.42
   5  -4  10   89.11    5.61
   5  -4  10   92.17    5.47
   6  -4  10   41.10    4.17
   6  -4  10   49.01    4.27
   7  -4  10    2.81    1.94
   7  -4  10    1.54    1.71
   8  -4  10   16.59    3.22
   8  -4  10   22.09    3.53
   9  -4  10   33.67    4.34
  10  -4  10    6.69    2.44
 -10   4 -10    8.67    3.33
 -10   4 -10    9.22    3.72
  11  -4  10   20.23    3.81
 -11   4 -10   31.29    4.99
 -11   4 -10   33.48    5.07
  12  -4  10   -0.85    1.64
 -12   4 -10    3.17    2.95
  12   3 -10    6.97    3.35
  11   3 -10   20.97    4.96
  10   3 -10   12.11    4.16
   9   3 -10   42.14    6.15
  -8  -3  10    1.55    1.65
   8   3 -10    5.03    3.03
   7   3 -10   15.93    4.08
  -7  -3  10   15.72    2.76
   6   3 -10   11.99    3.59
  -6  -3  10   13.93    2.56
  -5  -3  10  112.47    5.82
   5   3 -10  116.93    7.95
   4   3 -10    6.35    2.75
  -4  -3  10    7.56    1.93
   3   3 -10  426.74   15.85
  -3  -3  10  428.00   13.52
  -2  -3  10    2.34    1.31
   2   3 -10   -0.43    1.63
   1   3 -10   40.69    3.85
  -1  -3  10   40.32    3.15
   0   3 -10   42.28    3.74
   0  -3  10   47.29    3.42
  -1   3 -10    8.88    1.90
   1  -3  10    5.01    1.71
  -2   3 -10   15.09    1.94
   2  -3  10   10.58    2.02
   2  -3  10   15.00    1.85
   3  -3  10  276.64    9.29
   3  -3  10  266.39    9.92
  -3   3 -10  279.00    8.96
   4  -3  10  106.03    5.33
   4  -3  10  103.58    5.64
   5  -3  10   60.91    4.41
   5  -3  10   70.77    4.68
   6  -3  10   43.53    4.13
   6  -3  10   37.10    3.92
   7  -3  10    5.87    2.29
   7  -3  10    4.21    2.05
   8  -3  10   33.48    4.00
   8  -3  10   33.99    4.03
   9  -3  10    4.34    2.15
  -9   3 -10    6.03    3.16
  -9   3 -10    4.78    2.75
 -10   3 -10   42.72    5.44
  10  -3  10   63.82    5.71
 -10   3 -10   55.75    6.21
 -11   3 -10   -1.40    1.81
 -11   3 -10    3.88    3.16
  11  -3  10    6.55    2.75
  12  -3  10   -0.42    1.22
 -12   3 -10   -0.13    2.70
 -13   3 -10    0.32    2.66
  12   2 -10   23.24    5.48
  11   2 -10   33.40    5.73
  10   2 -10   57.99    6.91
   9   2 -10   15.22    4.13
   8   2 -10    1.90    2.64
  -8  -2  10   -0.52    1.22
   7   2 -10    4.45    2.82
  -7  -2  10    2.89    1.60
   6   2 -10  110.80    7.68
  -6  -2  10  110.68    5.57
   5   2 -10   17.73    3.45
  -5  -2  10   14.75    2.26
  -4  -2  10  104.58    5.08
   4   2 -10  102.76    3.86
   4   2 -10  106.96    6.75
  -3  -2  10    8.11    1.79
   3   2 -10    7.14    2.35
  -2  -2  10    1.85    1.21
   2   2 -10   -0.63    1.41
   1   2 -10    9.07    2.20
  -1  -2  10    9.80    1.78
   1   2 -10    6.53    0.81
   0  -2  10  144.68    5.97
   0   2 -10  149.80    6.84
  -1   2 -10   10.65    2.02
   1  -2  10   13.25    2.06
   2  -2  10  135.61    5.98
  -2   2 -10  141.86    5.79
   3  -2  10   21.89    2.62
  -3   2 -10   25.17    2.16
   3  -2  10   28.91    2.60
   4  -2  10   24.75    2.66
   4  -2  10   21.68    2.83
   5  -2  10   58.93    4.27
   5  -2  10   57.96    4.15
   6  -2  10   41.57    3.78
   6  -2  10   52.55    4.27
   7  -2  10   74.76    5.13
   7  -2  10   70.28    5.22
  -8   2 -10   58.71    5.86
  -8   2 -10   44.63    5.23
   8  -2  10   49.63    4.81
   9  -2  10   22.44    3.68
  -9   2 -10   34.28    4.83
  -9   2 -10   33.43    4.72
  10  -2  10    4.43    2.37
 -10   2 -10    9.62    3.62
 -10   2 -10    2.38    2.16
 -11   2 -10    0.90    2.44
  11  -2  10    4.61    2.22
 -12   2 -10    3.08    2.59
  12  -2  10   -0.06    1.94
 -13   2 -10   19.77    4.08
  11   1 -10   13.36    4.19
  10   1 -10    9.68    3.39
   9   1 -10    3.37    3.00
   8   1 -10   14.75    3.78
  -7  -1  10  112.39    5.69
   7   1 -10  110.49    7.85
   6   1 -10   26.26    2.62
  -6  -1  10   21.62    2.60
   6   1 -10   29.16    4.20
   5   1 -10   62.78    3.50
   5   1 -10   60.97    5.32
  -5  -1  10   66.04    3.77
  -4  -1  10   45.85    3.01
   4   1 -10   49.82    2.79
   4   1 -10   50.55    4.51
  -3  -1  10    0.26    0.46
   3   1 -10    1.23    0.79
   3   1 -10    2.75    2.03
   2   1 -10   53.42    4.28
   2   1 -10   59.91    2.53
  -2  -1  10   57.75    3.18
   1   1 -10  797.26   20.40
  -1  -1  10  817.08   21.73
   1   1 -10  818.30   23.86
   0  -1  10   11.40    1.86
   0   1 -10   15.28    2.31
  -1   1 -10  171.10    6.79
   1  -1  10  159.19    6.23
  -2   1 -10  131.49    5.57
   2  -1  10  141.43    5.78
   3  -1  10   26.21    2.72
   4  -1  10   31.95    3.10
   4  -1  10   32.65    2.91
   5  -1  10  209.10    8.31
   5  -1  10  196.24    8.23
   6  -1  10  199.05    8.67
   6  -1  10  212.14    8.72
  -7   1 -10  127.04    7.51
   7  -1  10  138.38    7.24
  -7   1 -10  130.85    7.66
   8  -1  10   17.96    3.22
  -8   1 -10   11.51    3.21
  -8   1 -10   12.10    3.35
  -9   1 -10   18.95    4.03
   9  -1  10   10.16    2.92
  -9   1 -10   18.43    3.83
  10  -1  10   -1.62    1.52
 -10   1 -10    1.04    2.45
 -11   1 -10    7.80    3.31
  11  -1  10   13.67    3.29
 -12   1 -10   39.10    5.05
  12  -1  10   72.96    6.32
  13  -1  10    4.26    2.16
 -13   1 -10    2.60    2.70
  11   0 -10    0.75    2.43
  10   0 -10    0.01    2.18
   9   0 -10   82.98    7.15
   8   0 -10  100.81    5.72
   8   0 -10   94.01    7.33
   7   0 -10   60.54    4.23
   7   0 -10   59.84    5.63
  -6   0  10   55.05    3.39
   6   0 -10   51.48    3.75
   6   0 -10   53.60    5.24
   5   0 -10   10.77    1.86
   5   0 -10    8.71    2.69
  -5   0  10   10.65    1.67
   4   0 -10   26.47    2.33
   4   0 -10   20.77    3.07
  -4   0  10   26.40    2.22
   3   0 -10   52.55    4.38
  -3   0  10   59.08    3.05
   3   0 -10   59.99    3.08
   2   0 -10  262.49   10.47
  -2   0  10  263.25    8.13
   2   0 -10  266.96    7.97
   1   0 -10    1.80    0.78
  -1   0  10    3.61    1.03
   1   0 -10    3.89    1.68
   0   0  10  196.64    6.68
   1   0  10   49.02    3.07
   2   0  10   12.35    1.84
   3   0  10  172.40    6.76
   4   0  10   31.88    3.01
   5   0  10    5.87    1.78
  -6   0 -10   60.50    4.80
  -6   0 -10   65.38    4.98
   7   0  10   -0.97    1.43
  -7   0 -10    1.11    1.83
  -7   0 -10    2.38    2.14
   8   0  10   -0.45    1.53
  -8   0 -10    1.17    2.09
  -8   0 -10    0.75    1.99
  -9   0 -10   86.61    6.63
   9   0  10   83.96    6.15
 -10   0 -10   19.38    4.15
  10   0  10   19.78    3.58
 -11   0 -10   12.35    3.75
  11   0  10   13.04    3.14
 -12   0 -10    5.14    2.93
  12   0  10    0.83    1.60
 -13   0 -10    2.88    2.68
  10  -1 -10   35.48    5.18
   9  -1 -10   85.72    5.76
   9  -1 -10   82.15    7.11
   8  -1 -10   24.17    4.23
   8  -1 -10   24.21    3.23
   7  -1 -10   28.18    4.16
   7  -1 -10   26.76    3.36
   6  -1 -10    6.74    2.71
   6  -1 -10    9.98    2.22
  -5   1  10   75.29    3.48
   5  -1 -10   74.30    5.42
   5  -1 -10   73.24    4.22
  -4   1  10   61.03    2.91
   4  -1 -10   53.33    4.62
   4  -1 -10   57.03    3.49
   3  -1 -10   78.34    3.83
  -3   1  10   77.07    3.19
   3  -1 -10   73.01    5.07
   2  -1 -10   41.49    3.87
   2  -1 -10   47.57    2.90
  -2   1  10   47.29    2.49
  -1   1  10   43.63    2.39
   1  -1 -10   30.10    2.36
   0   1  10   42.04    2.53
   0  -1 -10   44.14    2.84
   1   1  10   29.99    2.28
   2   1  10    2.87    1.28
   3   1  10  333.34   10.60
  -5  -1 -10   15.35    2.74
  -5  -1 -10   14.87    2.90
  -6  -1 -10   57.78    4.62
  -6  -1 -10   51.89    4.41
  -7  -1 -10   11.70    3.04
  -7  -1 -10   19.25    3.41
  -8  -1 -10   54.94    5.37
  -9  -1 -10   86.39    6.54
 -10  -1 -10   23.02    4.40
 -11  -1 -10   12.17    3.78
 -12  -1 -10   23.44    4.55
 -13  -1 -10    1.77    2.68
  10  -2 -10   17.87    3.46
   9  -2 -10   20.07    3.29
   9  -2 -10   22.51    4.14
   8  -2 -10   31.23    3.76
   8  -2 -10   45.40    5.21
   7  -2 -10   23.69    3.19
   7  -2 -10   25.29    4.09
   6  -2 -10   56.91    4.22
   6  -2 -10   46.13    4.74
   5  -2 -10   54.62    4.90
   5  -2 -10   57.29    4.00
   4  -2 -10  234.85    8.41
   4  -2 -10  227.29   10.12
   3  -2 -10   10.82    2.42
   3  -2 -10   10.72    1.73
   2  -2 -10   14.79    1.96
  -1   2  10  230.11    6.72
   1  -2 -10  242.84    8.01
   0  -2 -10  107.73    4.84
   0   2  10  113.08    4.05
   1   2  10    3.88    0.99
  -3  -2 -10   41.86    3.43
  -3  -2 -10   42.59    3.35
  -4  -2 -10   84.05    4.92
  -4  -2 -10   70.49    4.62
  -5  -2 -10   54.01    4.26
  -5  -2 -10   51.59    4.13
  -6  -2 -10   -0.61    1.51
  -7  -2 -10    1.04    1.62
  -8  -2 -10  122.64    7.47
  -9  -2 -10   62.14    5.73
 -10  -2 -10   15.24    3.86
 -11  -2 -10   17.32    4.08
 -12  -2 -10    6.84    3.46
 -13  -2 -10   -0.96    3.21
  11  -3 -10   13.94    3.40
  10  -3 -10    9.53    2.97
   9  -3 -10   20.57    4.06
   9  -3 -10   16.39    3.19
   8  -3 -10    4.40    2.49
   8  -3 -10    4.31    2.27
   7  -3 -10   76.15    5.97
   7  -3 -10   82.83    5.53
   6  -3 -10   67.27    5.57
   6  -3 -10   53.58    4.27
   5  -3 -10  203.78   10.05
   5  -3 -10  235.02    8.94
   4  -3 -10    4.27    2.08
   4  -3 -10    2.13    1.41
   3  -3 -10    1.60    1.31
   2  -3 -10    5.60    1.53
   1  -3 -10   41.29    3.03
   0  -3 -10    4.35    1.37
   0  -3 -10    2.54    0.95
   0  -3 -10    2.42    0.86
  -1  -3 -10  276.78    9.61
  -1  -3 -10  281.13    8.76
  -1  -3 -10  272.15    8.85
  -2  -3 -10    0.81    1.10
  -2  -3 -10    1.75    1.14
  -3  -3 -10   35.78    3.15
  -4  -3 -10   13.77    2.36
  -5  -3 -10  104.14    5.81
  -6  -3 -10   64.48    4.94
  -7  -3 -10   27.34    3.69
  -8  -3 -10   -0.45    1.59
  -9  -3 -10   21.97    4.18
 -10  -3 -10    8.65    3.48
 -11  -3 -10   23.49    4.84
 -12  -3 -10   22.07    4.88
 -13  -3 -10   -0.38    2.42
  12  -4 -10    7.32    3.19
  11  -4 -10    4.55    2.56
  10  -4 -10    2.28    2.09
   9  -4 -10    6.34    2.44
   8  -4 -10   67.12    5.35
   8  -4 -10   66.58    5.89
   7  -4 -10   22.68    3.50
   7  -4 -10   21.68    3.89
   6  -4 -10   87.85    6.39
   6  -4 -10   85.89    5.55
   5  -4 -10   -0.75    1.84
   5  -4 -10    2.75    1.66
   4  -4 -10   -0.23    1.30
   3  -4 -10    7.97    1.82
   2  -4 -10  423.99   13.36
   1  -4 -10    1.79    1.17
   0  -4 -10   34.78    2.89
  -1  -4 -10  144.24    6.29
  -1  -4 -10  140.14    5.24
  -2  -4 -10    0.44    1.01
  -3  -4 -10    0.44    1.00
  -4  -4 -10  331.85   11.53
  -5  -4 -10   73.42    4.86
  -6  -4 -10  114.66    6.52
  -7  -4 -10    0.42    1.34
  -8  -4 -10   12.63    3.06
  -9  -4 -10    5.57    2.62
 -10  -4 -10   19.26    4.43
 -11  -4 -10   60.26    6.87
 -12  -4 -10   29.50    5.51
 -13  -4 -10    0.59    2.17
  11  -5 -10   -1.07    1.59
  10  -5 -10   17.79    3.58
   9  -5 -10   18.14    3.59
   8  -5 -10   83.16    6.30
   8  -5 -10   89.25    6.46
   7  -5 -10    2.37    1.99
   7  -5 -10    4.26    2.63
   6  -5 -10    4.91    2.03
   6  -5 -10    8.45    2.73
   5  -5 -10    0.87    1.43
   4  -5 -10  147.57    7.15
   3  -5 -10  293.58   10.78
   2  -5 -10   67.71    4.41
   1  -5 -10  114.98    5.66
   0  -5 -10   13.80    2.23
  -1  -5 -10    3.91    1.22
  -1  -5 -10    4.71    1.55
  -2  -5 -10   27.64    2.61
  -2  -5 -10   28.30    3.20
  -3  -5 -10  309.18   10.60
  -4  -5 -10    1.33    1.41
  -5  -5 -10  129.10    6.88
  -6  -5 -10    0.41    1.47
  -7  -5 -10    3.37    2.05
  -8  -5 -10   40.47    4.67
  -9  -5 -10   31.23    4.70
 -10  -5 -10    7.51    3.01
 -11  -5 -10   25.23    5.31
 -12  -5 -10    1.26    3.22
 -13  -5 -10   -0.38    2.32
  11  -6 -10   18.41    4.07
  10  -6 -10    3.21    2.47
   9  -6 -10   28.14    4.27
   8  -6 -10    3.61    2.24
   7  -6 -10    1.56    1.98
   7  -6 -10    0.32    1.42
   6  -6 -10   65.86    5.22
   6  -6 -10   61.29    5.50
   4  -6 -10   80.66    5.36
   3  -6 -10    4.44    1.84
   2  -6 -10   69.25    4.67
   1  -6 -10   -0.31    1.08
   0  -6 -10  104.94    5.63
  -1  -6 -10   26.78    3.01
  -1  -6 -10   27.57    2.22
  -2  -6 -10   83.61    5.04
  -2  -6 -10   73.86    4.08
  -3  -6 -10   10.68    2.06
  -3  -6 -10   12.73    2.56
  -4  -6 -10    4.13    1.81
  -5  -6 -10    5.61    2.14
  -6  -6 -10   17.47    3.06
  -7  -6 -10   18.96    3.43
  -8  -6 -10   52.65    5.21
  -9  -6 -10    0.53    1.73
 -10  -6 -10   18.27    4.19
 -11  -6 -10   -0.60    2.40
 -12  -6 -10    2.42    3.53
 -13  -6 -10    2.98    3.17
  10  -7 -10    7.91    2.60
   9  -7 -10    4.39    2.40
   8  -7 -10    3.45    2.20
   7  -7 -10   30.55    4.28
   6  -7 -10   49.06    4.90
   5  -7 -10   70.60    5.37
   4  -7 -10   12.48    2.64
   3  -7 -10   37.83    3.97
   2  -7 -10   77.39    5.16
   1  -7 -10   60.43    4.52
   0  -7 -10   72.50    4.76
  -1  -7 -10  182.59    8.04
  -1  -7 -10  176.11    6.53
  -2  -7 -10   45.95    3.97
  -2  -7 -10   46.53    3.35
  -3  -7 -10    3.65    1.56
  -3  -7 -10    2.11    1.75
  -4  -7 -10   56.12    4.74
  -4  -7 -10   61.81    4.33
  -5  -7 -10   66.25    4.74
  -6  -7 -10    0.36    1.45
  -7  -7 -10  169.82    8.73
  -8  -7 -10   28.92    4.11
  -9  -7 -10    3.08    2.31
 -10  -7 -10    8.41    3.02
 -11  -7 -10   -0.42    1.76
 -12  -7 -10    3.94    3.08
   9  -8 -10   11.16    3.35
   8  -8 -10    1.78    1.73
   7  -8 -10   31.31    4.44
   6  -8 -10   12.62    3.06
   5  -8 -10   17.39    3.19
   4  -8 -10    7.36    2.30
   3  -8 -10   -0.53    1.37
   2  -8 -10   32.28    3.78
   1  -8 -10    1.88    1.84
   0  -8 -10  102.50    6.01
  -1  -8 -10    1.96    1.62
  -2  -8 -10   10.38    2.36
  -2  -8 -10    8.92    1.85
  -3  -8 -10   14.97    2.42
  -3  -8 -10   10.87    2.60
  -4  -8 -10   23.64    3.52
  -4  -8 -10   21.29    2.87
  -5  -8 -10    0.94    1.22
  -5  -8 -10    2.70    1.93
  -6  -8 -10   45.75    4.17
  -7  -8 -10    2.21    1.79
  -8  -8 -10   48.80    5.30
  -9  -8 -10    2.80    2.03
 -10  -8 -10   31.78    4.98
 -11  -8 -10   16.55    3.96
 -12  -8 -10    8.02    2.94
   8  -9 -10   48.64    5.68
   7  -9 -10    2.71    2.08
   6  -9 -10    2.36    2.09
   5  -9 -10   14.67    3.19
   4  -9 -10   -0.85    1.18
   3  -9 -10   41.02    4.48
   2  -9 -10   14.44    2.98
   1  -9 -10   40.83    4.32
   0  -9 -10    1.06    1.60
  -1  -9 -10    8.35    2.29
  -2  -9 -10   25.35    2.81
  -2  -9 -10   23.78    3.43
  -3  -9 -10   97.02    5.60
  -3  -9 -10   98.34    6.39
  -4  -9 -10    8.71    2.15
  -4  -9 -10    7.35    2.53
  -5  -9 -10   22.35    3.81
  -5  -9 -10   29.22    3.73
  -6  -9 -10   42.40    4.42
  -6  -9 -10   43.00    4.94
  -7  -9 -10   -0.33    1.26
  -8  -9 -10    3.23    2.12
  -9  -9 -10   46.28    5.26
 -10  -9 -10   21.21    4.03
 -11  -9 -10   24.39    4.47
 -12  -9 -10    1.31    1.97
   7 -10 -10    3.55    1.94
   6 -10 -10    2.17    2.00
   5 -10 -10   10.05    2.86
   4 -10 -10   41.15    4.79
   3 -10 -10   20.94    3.59
   2 -10 -10    6.44    2.44
   1 -10 -10    8.58    2.49
   0 -10 -10    0.40    1.65
  -1 -10 -10   35.65    4.14
  -2 -10 -10  110.72    6.86
  -3 -10 -10    1.86    1.77
  -3 -10 -10    1.79    1.45
  -4 -10 -10   46.80    4.99
  -4 -10 -10   48.91    4.25
  -5 -10 -10    1.98    2.03
  -5 -10 -10    4.39    1.77
  -6 -10 -10    0.22    1.61
  -6 -10 -10   -1.21    1.27
  -7 -10 -10    3.34    2.26
  -7 -10 -10    1.84    1.50
  -8 -10 -10   46.79    5.33
  -9 -10 -10    6.50    2.29
 -10 -10 -10   41.44    5.32
 -11 -10 -10    0.04    1.82
   7 -11 -10   -1.95    1.76
   6 -11 -10   -0.55    1.15
   5 -11 -10    2.61    2.21
   4 -11 -10   23.69    3.96
   3 -11 -10   -0.41    1.68
   2 -11 -10    9.11    2.70
   1 -11 -10    6.08    2.54
   0 -11 -10   -0.57    1.63
  -1 -11 -10   19.57    3.39
  -2 -11 -10   -0.39    1.57
  -3 -11 -10   38.59    4.69
  -4 -11 -10    4.86    2.27
  -4 -11 -10    3.49    1.84
  -5 -11 -10    6.97    2.62
  -5 -11 -10   10.72    2.58
  -6 -11 -10    3.55    2.41
  -6 -11 -10   -0.72    1.51
  -7 -11 -10   12.69    2.91
  -7 -11 -10   15.79    3.75
  -8 -11 -10    2.38    2.71
  -8 -11 -10    2.18    1.89
  -9 -11 -10    5.17    3.29
  -9 -11 -10    6.56    2.54
 -10 -11 -10    1.51    1.67
 -11 -11 -10    3.10    1.87
   5 -12 -10    1.88    1.63
   4 -12 -10    0.50    1.92
   3 -12 -10    0.32    1.81
   2 -12 -10   24.21    4.01
   1 -12 -10   10.27    2.96
   0 -12 -10    9.27    2.81
  -1 -12 -10    5.94    2.63
  -2 -12 -10   16.47    3.27
  -3 -12 -10   37.26    4.56
  -4 -12 -10   38.34    4.82
  -5 -12 -10   10.80    2.64
  -5 -12 -10    6.74    2.70
  -6 -12 -10   30.75    4.01
  -6 -12 -10   34.75    4.86
  -7 -12 -10    3.52    2.08
  -7 -12 -10    4.34    2.62
  -8 -12 -10   -0.50    1.29
  -8 -12 -10    0.42    2.26
  -9 -12 -10    5.99    2.64
  -9 -12 -10    7.31    3.40
 -10 -12 -10   21.03    4.27
   4 -13 -10    1.25    1.54
   3 -13 -10   -1.84    1.02
   2 -13 -10   12.79    3.51
   1 -13 -10   16.04    3.61
   0 -13 -10   10.71    3.13
  -1 -13 -10   -0.29    1.81
  -2 -13 -10   17.01    3.74
  -3 -13 -10   16.22    3.53
  -4 -13 -10   -2.16    1.62
  -5 -13 -10   16.92    3.81
  -6 -13 -10    0.46    1.46
  -6 -13 -10    0.25    2.35
  -7 -13 -10    6.00    2.10
  -7 -13 -10    8.91    3.36
  -8 -13 -10    4.23    1.99
  -9 -13 -10    3.80    2.37
   2 -14 -10   -0.86    1.45
   1 -14 -10   -3.46    1.73
   0 -14 -10    3.82    2.60
  -1 -14 -10    0.23    2.14
  -2 -14 -10   -0.49    1.98
  -3 -14 -10    1.14    2.46
  -4 -14 -10    7.84    2.91
  -5 -14 -10    7.51    3.00
  -6 -14 -10    0.91    2.67
  -8 -14 -10    3.91    2.40
   0 -15 -10    1.88    2.33
  -1 -15 -10   12.13    3.53
  -2 -15 -10   10.00    2.90
  -3 -15 -10   -2.40    1.73
  -4 -15 -10    7.79    2.96
  -3 -13  11   28.97    4.91
  -2 -13  11   42.42    5.53
  -1 -13  11   18.43    4.05
   0 -13  11    9.25    2.64
   1 -13  11   16.11    3.69
   2 -13  11    0.89    1.85
  -6 -12  11    1.69    2.29
  -5 -12  11    0.22    1.70
  -4 -12  11   -1.65    1.53
  -3 -12  11   19.06    3.97
  -2 -12  11   33.50    4.90
  -1 -12  11   16.24    3.48
   0 -12  11    8.45    2.62
   1 -12  11    3.65    1.91
   3 -12  11    2.34    2.09
   4 -12  11   18.19    3.19
   5 -12  11    5.33    2.63
   6 -12  11   -0.98    3.35
  -7 -11  11    0.80    1.60
  -6 -11  11   -1.79    2.16
  -5 -11  11    1.47    2.26
  -4 -11  11   18.85    3.98
  -3 -11  11    9.28    3.02
  -2 -11  11   13.53    3.32
  -1 -11  11   17.68    3.59
   0 -11  11   49.68    5.37
   1 -11  11   34.89    4.50
   2 -11  11   20.35    3.68
   3 -11  11   14.31    2.97
   4 -11  11    8.06    2.40
   5 -11  11   11.07    2.73
   6 -11  11    8.62    2.51
   7 -11  11    7.15    3.07
  -9 -10  11   -0.13    2.32
  -8 -10  11   -1.05    1.47
  -7 -10  11   17.62    4.33
  -6 -10  11    9.59    3.48
  -5 -10  11   53.76    5.99
  -4 -10  11   35.31    4.87
  -3 -10  11    3.81    2.53
  -2 -10  11    2.28    2.15
  -1 -10  11    5.00    2.19
   0 -10  11   92.18    6.65
   1 -10  11   98.05    6.79
   2 -10  11   52.86    5.44
   3 -10  11   -0.80    1.84
   4 -10  11    5.97    2.28
   5 -10  11    2.67    2.15
   6 -10  11   18.32    3.24
   7 -10  11   10.98    2.82
   8 -10  11    2.81    2.54
 -10  -9  11    2.16    3.02
  -9  -9  11    2.71    2.76
  -8  -9  11   21.50    4.41
  -7  -9  11   -1.07    2.04
  -6  -9  11   48.89    5.65
   6   9 -11   40.82    6.34
  -5  -9  11   14.71    3.60
  -4  -9  11    6.63    2.83
  -3  -9  11    8.48    2.76
  -2  -9  11   25.94    4.02
  -1  -9  11    2.18    1.82
   0  -9  11   61.68    5.25
   1  -9  11    6.75    2.32
   2  -9  11    2.73    2.00
   3  -9  11    1.44    1.78
   4  -9  11   15.87    3.10
   5  -9  11   21.98    3.58
   6  -9  11   17.88    3.18
   7  -9  11    5.76    2.19
   8  -9  11   -0.05    1.61
   8  -9  11    1.27    1.85
   9  -9  11    6.05    2.78
   9  -9  11    1.14    1.98
 -11  -8  11   -1.58    2.81
  10   8 -11    0.16    2.96
 -10  -8  11    3.27    2.56
  -9  -8  11   61.95    6.50
   8   8 -11    1.67    2.96
  -8  -8  11    0.79    2.29
  -7  -8  11   15.12    3.66
   7   8 -11   13.47    4.38
   6   8 -11    0.83    2.53
  -6  -8  11   -0.51    1.65
  -5  -8  11    8.41    2.92
   5   8 -11    6.08    3.41
  -4  -8  11    9.33    2.87
   4   8 -11    1.94    2.79
   3   8 -11   78.01    6.90
  -3  -8  11   77.06    5.78
   2   8 -11   10.39    3.24
  -2  -8  11   13.59    3.09
  -1  -8  11   72.86    5.52
   0  -8  11    1.27    1.64
   1  -8  11   28.43    3.73
   2  -8  11  165.96    8.55
   3  -8  11   95.62    6.43
   4  -8  11  114.25    7.08
   5  -8  11   11.21    2.66
   5  -8  11   13.46    3.00
   6  -8  11    7.16    2.50
   6  -8  11   10.39    2.73
   7  -8  11    6.62    2.55
   7  -8  11    8.32    2.48
   8  -8  11   13.23    3.09
   8  -8  11    7.66    2.85
   9  -8  11    2.65    2.12
   9  -8  11    0.62    1.70
  10  -8  11   10.96    3.32
  10  -8  11    9.91    3.65
 -11  -7  11    7.19    2.91
  11   7 -11    1.60    3.83
  10   7 -11    0.83    3.02
 -10  -7  11   26.09    4.69
   9   7 -11    5.85    3.81
  -9  -7  11    6.86    2.89
  -8  -7  11   18.95    3.86
   8   7 -11   25.84    5.67
   7   7 -11    2.59    2.73
  -7  -7  11    0.67    2.11
  -6  -7  11    4.19    2.29
   6   7 -11    3.63    2.97
   5   7 -11   -0.18    2.39
  -5  -7  11   -0.71    1.74
   4   7 -11  131.74    9.23
  -4  -7  11  124.06    7.32
  -3  -7  11   38.36    4.27
   3   7 -11   34.78    5.03
   2   7 -11   23.87    4.14
  -2  -7  11   23.08    3.44
  -1  -7  11   62.93    4.92
   1   7 -11   53.33    5.44
   0   7 -11    4.46    2.41
   0  -7  11    3.20    1.86
   1  -7  11    3.78    1.99
   2  -7  11   82.08    5.61
   3  -7  11   84.11    5.77
   4  -7  11   10.26    2.27
   4  -7  11    9.44    2.91
   5  -7  11   41.69    4.14
   5  -7  11   29.19    3.79
   6  -7  11    8.07    2.48
   6  -7  11    9.10    2.67
   7  -7  11   34.15    4.08
   7  -7  11   50.04    4.96
   8  -7  11    3.39    1.95
   8  -7  11   -0.48    1.45
   9  -7  11   21.85    3.86
   9  -7  11   14.93    3.43
  10  -7  11    4.42    2.09
  11   6 -11    1.83    3.01
  10   6 -11   22.13    5.73
 -10  -6  11   20.08    4.20
   9   6 -11   16.01    4.84
  -9  -6  11    8.50    3.05
  -8  -6  11    1.42    2.04
   8   6 -11    1.65    2.99
  -7  -6  11   24.38    3.86
   7   6 -11   27.96    5.33
  -6  -6  11   -1.12    1.62
   6   6 -11   -0.68    2.43
  -5  -6  11  149.91    8.07
   5   6 -11  154.00   10.21
   4   6 -11    0.47    2.56
  -4  -6  11   -0.74    1.56
   3   6 -11   24.43    4.39
  -3  -6  11   25.51    3.35
   2   6 -11    0.79    2.31
  -2  -6  11   -0.62    1.42
   1   6 -11   68.74    5.91
  -1  -6  11   66.80    4.82
   0   6 -11    0.42    1.95
   0  -6  11    0.25    1.60
  -1   6 -11   90.97    5.94
   1  -6  11   91.67    5.57
   2  -6  11   12.37    2.57
   3  -6  11   82.47    5.47
   3  -6  11   78.07    4.68
   4  -6  11   28.81    3.83
   4  -6  11   28.93    3.34
   5  -6  11   13.67    2.72
   5  -6  11   12.53    2.86
   6  -6  11   56.12    4.93
   6  -6  11   59.34    4.82
   7  -6  11   27.87    3.68
   7  -6  11   35.40    4.21
   8  -6  11   58.34    5.37
   8  -6  11   77.48    5.94
   9  -6  11    8.45    2.78
   9  -6  11    7.34    2.73
  10  -6  11    0.97    1.80
 -11   6 -11    9.05    3.72
 -11   6 -11    6.73    2.97
  11  -6  11    3.87    2.09
  12   5 -11   36.60    7.46
  11   5 -11   18.30    5.34
  10   5 -11   -1.17    2.46
   9   5 -11    2.05    3.12
  -9  -5  11    0.79    2.12
   8   5 -11   32.34    5.75
  -8  -5  11   33.75    4.33
  -7  -5  11    0.31    1.88
   7   5 -11    1.66    2.91
   6   5 -11  159.03   10.32
  -6  -5  11  147.69    7.79
  -5  -5  11    3.77    2.07
   5   5 -11    0.18    2.56
   4   5 -11    1.11    2.40
  -4  -5  11   -0.62    1.57
   3   5 -11    3.45    2.36
  -3  -5  11   -1.36    1.38
  -2  -5  11   63.14    4.49
   2   5 -11   60.62    5.81
   1   5 -11   38.24    4.32
  -1  -5  11   29.05    3.40
   0  -5  11  196.74    8.59
   0   5 -11  215.78    9.69
   1  -5  11  137.46    5.13
  -1   5 -11  127.56    6.92
   1  -5  11  133.26    6.63
   2  -5  11    6.70    1.61
  -2   5 -11    8.13    2.09
   2  -5  11    8.77    2.25
   3  -5  11   -0.38    0.84
   3  -5  11    3.13    1.72
   4  -5  11    1.43    1.67
   4  -5  11    5.45    1.76
   5  -5  11  108.74    6.47
   5  -5  11  113.46    6.29
   6  -5  11   40.95    4.13
   6  -5  11   31.99    3.94
   7  -5  11   83.47    5.93
   7  -5  11   77.27    5.70
   8  -5  11    1.07    1.67
   8  -5  11    1.90    1.77
   9  -5  11    1.17    1.57
   9  -5  11    1.39    1.98
 -10   5 -11    1.80    2.22
 -10   5 -11    7.62    3.47
  10  -5  11    6.25    2.31
 -11   5 -11   13.25    3.88
 -11   5 -11   12.94    4.36
 -12   5 -11    3.71    2.81
 -12   5 -11    2.08    3.33
  12   4 -11    2.39    3.52
  11   4 -11   -2.56    2.46
  10   4 -11    3.30    3.26
  -9  -4  11   58.87    5.09
   9   4 -11   49.64    6.88
  -8  -4  11   28.29    3.90
   8   4 -11   21.41    4.88
   7   4 -11  100.49    8.52
  -7  -4  11  106.76    6.36
  -6  -4  11    0.41    1.41
   6   4 -11    1.29    2.76
   5   4 -11   -1.54    2.07
  -5  -4  11    0.47    1.37
  -4  -4  11   -0.32    1.65
   4   4 -11    3.31    2.58
  -3  -4  11  186.35    7.87
   3   4 -11  180.17    9.80
   2   4 -11   21.73    3.60
  -2  -4  11   15.24    2.49
   1   4 -11  295.65   12.09
  -1  -4  11  285.47   10.44
   0  -4  11    6.51    1.92
   0   4 -11    5.21    2.18
  -1   4 -11   21.85    2.87
   1  -4  11   18.23    1.78
   1  -4  11   20.71    2.87
   2  -4  11   -0.04    1.32
   2  -4  11    0.03    0.87
  -2   4 -11   -1.07    1.25
   4  -4  11   58.61    4.13
   4  -4  11   64.78    4.58
   5  -4  11  211.17    8.78
   5  -4  11  204.10    9.07
   6  -4  11   47.85    4.38
   6  -4  11   41.01    4.19
   7  -4  11    2.62    1.78
   7  -4  11   -1.40    1.46
   8  -4  11    4.41    2.18
   8  -4  11    1.72    1.76
   9  -4  11    6.33    2.49
 -10   4 -11   97.54    7.65
  10  -4  11  101.92    7.23
 -10   4 -11   95.69    7.89
 -11   4 -11   13.11    3.59
 -11   4 -11   11.81    4.06
  11  -4  11    6.87    3.02
 -12   4 -11   18.06    4.23
 -12   4 -11   16.81    3.90
  12   3 -11    2.50    2.39
  11   3 -11    9.36    3.59
  10   3 -11   51.08    6.99
   9   3 -11    7.08    3.46
  -8  -3  11   22.31    3.28
   8   3 -11   18.01    4.63
   7   3 -11   19.25    4.45
  -7  -3  11   22.08    3.11
   6   3 -11    3.53    3.05
  -6  -3  11    6.09    1.99
   5   3 -11    1.10    2.43
  -5  -3  11    1.58    1.47
   4   3 -11  203.75   10.43
  -4  -3  11  218.02    8.49
  -3  -3  11    3.58    1.57
   3   3 -11    6.10    2.42
  -2  -3  11   33.02    3.14
   2   3 -11   31.11    3.83
  -1  -3  11    0.76    1.34
   1   3 -11    2.01    1.56
   0  -3  11    5.96    1.77
   0   3 -11    6.85    1.99
   1  -3  11    8.81    1.96
  -1   3 -11   10.04    1.98
   2  -3  11  142.73    5.56
  -2   3 -11  139.38    6.09
   2  -3  11  133.54    6.35
  -3   3 -11  116.88    5.06
   3  -3  11  118.72    5.92
   3  -3  11  107.57    5.19
   4  -3  11  120.38    6.31
   4  -3  11  129.30    6.06
   5  -3  11    3.57    1.91
   5  -3  11    4.95    1.79
   6  -3  11   50.39    4.32
   6  -3  11   49.47    4.28
   7  -3  11   31.81    3.88
   7  -3  11   37.32    4.20
   8  -3  11   56.51    4.84
   8  -3  11   51.04    4.96
  -9   3 -11  100.71    7.73
   9  -3  11  116.78    7.40
  -9   3 -11  120.96    8.08
  10  -3  11    3.96    2.18
 -10   3 -11    1.98    2.72
 -10   3 -11    0.69    1.84
 -11   3 -11   15.66    4.56
  11  -3  11   18.33    3.74
 -11   3 -11   22.77    4.67
  12  -3  11   -0.47    1.44
 -12   3 -11   -1.08    2.70
 -13   3 -11   -1.47    2.88
  12   2 -11   68.95    8.02
  11   2 -11    7.99    3.68
  10   2 -11    8.81    3.25
   9   2 -11   22.90    5.03
   8   2 -11   10.80    3.84
   7   2 -11   37.89    5.30
   6   2 -11   11.60    3.46
  -6  -2  11   15.06    2.48
  -5  -2  11  163.77    6.92
   5   2 -11  166.69    9.27
  -4  -2  11   20.95    2.51
   4   2 -11   19.75    3.45
   3   2 -11   65.76    5.08
  -3  -2  11   63.22    3.89
  -2  -2  11    3.72    1.53
   2   2 -11   -0.06    1.52
   1   2 -11   11.88    1.11
   1   2 -11   12.90    2.49
  -1  -2  11   13.65    2.02
   0   2 -11    0.05    1.34
   0  -2  11    0.91    1.22
   1  -2  11  460.37   14.16
  -1   2 -11  471.10   14.83
  -2   2 -11   39.65    3.02
   2  -2  11   32.78    3.00
   3  -2  11   33.29    3.15
  -3   2 -11   31.48    2.54
   4  -2  11   33.89    3.10
  -4   2 -11   32.24    2.23
   4  -2  11   33.10    3.38
   5  -2  11   33.92    3.57
   5  -2  11   32.92    3.38
   6  -2  11   93.07    5.73
   6  -2  11   99.08    5.81
   7  -2  11  107.71    6.46
   7  -2  11  105.82    6.35
   8  -2  11   65.59    5.27
  -8   2 -11   67.67    6.09
  -8   2 -11   60.98    5.66
   9  -2  11   15.77    3.24
  -9   2 -11   11.40    3.66
  -9   2 -11   20.88    4.29
 -10   2 -11   12.57    3.78
 -10   2 -11   10.66    3.20
  10  -2  11   14.99    3.34
 -11   2 -11    2.61    2.96
  11  -2  11    1.92    2.23
 -12   2 -11   34.54    5.10
 -13   2 -11   -0.80    2.96
  11   1 -11   19.97    4.91
  10   1 -11   11.34    3.94
   9   1 -11    4.39    2.85
   8   1 -11    9.79    3.47
   7   1 -11    1.54    2.59
   6   1 -11  118.08    7.94
  -6  -1  11  132.56    5.88
   5   1 -11    7.60    2.87
   5   1 -11   11.30    1.70
  -5  -1  11    6.70    1.70
   4   1 -11   76.70    3.48
  -4  -1  11   72.23    3.98
   4   1 -11   76.79    5.69
   3   1 -11   -0.39    0.63
   3   1 -11    1.61    1.66
  -3  -1  11   -0.26    0.50
   2   1 -11   36.21    2.03
   2   1 -11   33.54    3.60
  -2  -1  11   32.53    2.44
  -1  -1  11    3.55    1.26
   1   1 -11    1.73    1.52
   1   1 -11    2.63    0.75
   0   1 -11  414.45   13.71
   0  -1  11  387.87   12.09
   1  -1  11   70.69    3.89
  -1   1 -11   71.35    4.23
   2  -1  11  155.10    6.33
  -2   1 -11  149.47    6.18
   3  -1  11    0.64    1.20
   4  -1  11   -0.11    1.20
   5  -1  11   32.36    3.28
   5  -1  11   36.42    3.54
   6  -1  11  207.91    8.94
   6  -1  11  208.50    8.90
   7  -1  11   94.05    5.96
   8  -1  11  101.82    6.45
  -8   1 -11   81.58    6.49
  -8   1 -11   98.66    6.91
  -9   1 -11   -0.88    1.71
  -9   1 -11   -0.32    2.13
   9  -1  11    0.47    1.82
  10  -1  11    4.32    2.45
 -10   1 -11    3.02    2.75
 -10   1 -11    0.60    2.26
  11  -1  11   43.26    5.21
 -11   1 -11   40.12    5.36
  12  -1  11   -1.27    1.76
 -12   1 -11    1.23    2.80
  13  -1  11   22.19    4.19
 -13   1 -11   13.71    3.83
  11   0 -11    6.38    2.50
  10   0 -11   49.64    6.48
   9   0 -11    1.78    2.32
   8   0 -11   10.23    3.33
   7   0 -11  110.62    5.72
   7   0 -11  105.58    7.60
   6   0 -11   34.92    3.19
   6   0 -11   35.11    4.61
   5   0 -11    9.61    1.83
  -5   0  11    9.32    1.61
   5   0 -11   14.78    3.29
   4   0 -11    1.20    1.07
   4   0 -11    3.99    1.93
  -4   0  11    3.09    1.17
   3   0 -11   58.58    3.13
   3   0 -11   61.74    4.84
  -3   0  11   59.91    3.15
  -2   0  11    0.59    0.92
   2   0 -11   -1.99    0.52
   2   0 -11    2.28    1.79
   1   0 -11  428.83   14.50
   1   0 -11  430.40   11.91
   0   0  11    9.76    1.59
   0   0 -11    9.24    2.10
   1   0  11   50.84    3.20
   2   0  11   14.93    2.05
   3   0  11  117.16    5.45
   4   0  11   86.49    4.79
   5   0  11   86.36    5.00
  -6   0 -11  113.43    6.71
  -6   0 -11  120.56    6.94
  -7   0 -11   19.33    3.46
  -7   0 -11   20.67    3.76
  -8   0 -11    3.37    2.45
  -8   0 -11   -2.66    1.62
  -9   0 -11    8.87    3.28
  -9   0 -11    8.93    3.21
   9   0  11    8.63    2.65
 -10   0 -11   31.75    4.86
 -11   0 -11   21.03    4.26
 -12   0 -11   33.31    5.05
 -13   0 -11   -0.02    2.59
  10  -1 -11   33.27    5.17
   9  -1 -11  116.19    8.43
   8  -1 -11   93.00    5.60
   8  -1 -11   79.33    6.73
   7  -1 -11    1.76    1.64
   7  -1 -11    4.52    2.69
   6  -1 -11    2.55    2.22
   6  -1 -11   -0.19    1.53
   5  -1 -11   43.84    4.47
   5  -1 -11   39.56    3.25
   4  -1 -11  191.46    7.18
  -4   1  11  201.84    6.40
   4  -1 -11  185.93    9.18
  -3   1  11    1.33    0.82
   3  -1 -11    0.66    1.39
   3  -1 -11    1.19    0.91
   2  -1 -11  554.68   15.71
   2  -1 -11  552.34   18.63
  -2   1  11  594.32   15.25
  -1   1  11    0.91    0.90
   1  -1 -11    1.79    0.97
   0   1  11   25.95    2.15
   0  -1 -11   27.66    2.39
   1   1  11    1.92    1.02
   2   1  11  348.78   10.83
   3   1  11   80.04    4.24
   4   1  11  237.04    8.68
  -5  -1 -11   13.08    2.74
  -5  -1 -11   10.36    2.45
  -6  -1 -11   13.66    3.05
  -6  -1 -11   14.68    2.85
  -7  -1 -11   19.93    3.56
  -7  -1 -11   15.80    3.14
  -8  -1 -11   56.07    5.85
  -8  -1 -11   57.22    5.58
  -9  -1 -11  121.16    7.91
 -10  -1 -11   68.97    6.35
 -11  -1 -11   18.07    4.11
 -12  -1 -11    8.07    3.47
 -13  -1 -11   -1.37    2.05
  10  -2 -11   54.12    6.20
   9  -2 -11   41.30    5.40
   9  -2 -11   36.21    4.18
   8  -2 -11   -2.05    1.34
   8  -2 -11    2.32    2.26
   7  -2 -11   11.80    2.55
   7  -2 -11    8.80    3.17
   6  -2 -11   21.50    3.59
   6  -2 -11   19.29    2.76
   5  -2 -11  196.71    9.82
   5  -2 -11  196.79    7.93
   4  -2 -11   43.94    3.40
   4  -2 -11   45.36    4.52
   3  -2 -11   84.93    5.74
   3  -2 -11   84.90    4.38
   2  -2 -11    0.51    0.92
   1  -2 -11   16.96    2.05
  -1   2  11   20.73    1.66
   0   2  11   18.21    1.69
   0  -2 -11   16.39    2.06
   1   2  11  469.87   13.14
   2   2  11   27.29    2.35
  -3  -2 -11  206.15    8.06
  -3  -2 -11  199.98    8.07
  -4  -2 -11   10.24    2.41
  -4  -2 -11    6.98    2.05
  -5  -2 -11   17.33    2.87
  -5  -2 -11   16.69    2.94
  -6  -2 -11   15.67    3.11
  -6  -2 -11   13.59    2.85
  -7  -2 -11   43.56    4.58
  -8  -2 -11   74.14    5.79
  -9  -2 -11   81.62    6.58
 -10  -2 -11   48.60    5.77
 -11  -2 -11    7.23    3.42
 -12  -2 -11   13.50    5.08
 -13  -2 -11   -0.27    1.81
  10  -3 -11    5.10    2.63
   9  -3 -11   13.00    3.66
   9  -3 -11   26.40    3.67
   8  -3 -11   12.14    2.91
   8  -3 -11    5.62    2.93
   7  -3 -11  185.53    9.94
   7  -3 -11  183.94    8.63
   6  -3 -11  143.38    7.06
   6  -3 -11  136.61    8.21
   5  -3 -11    8.51    2.20
   5  -3 -11    6.31    2.54
   4  -3 -11   80.61    4.81
   4  -3 -11   92.65    6.22
   3  -3 -11   56.42    3.77
   2  -3 -11    9.64    1.78
   1  -3 -11   17.42    2.24
   0  -3 -11  534.61   14.64
   0  -3 -11  552.52   15.15
   0  -3 -11  527.04   15.83
  -1  -3 -11    0.15    1.00
  -1  -3 -11   -0.52    0.98
  -1  -3 -11    2.06    1.28
  -2  -3 -11  195.24    7.49
  -2  -3 -11  202.42    7.47
  -3  -3 -11   -0.02    1.24
  -3  -3 -11    0.66    1.24
  -4  -3 -11    0.85    1.46
  -5  -3 -11    3.35    1.70
  -6  -3 -11  118.73    6.67
  -7  -3 -11   25.70    3.71
  -8  -3 -11   11.96    3.03
  -9  -3 -11   -0.42    2.04
 -10  -3 -11    4.08    2.73
 -11  -3 -11   29.62    5.25
 -12  -3 -11   22.80    4.94
 -13  -3 -11   -0.23    2.01
  11  -4 -11    2.14    2.48
   9  -4 -11   10.87    3.03
   8  -4 -11   30.15    4.41
   8  -4 -11   26.38    3.76
   7  -4 -11  133.03    7.33
   7  -4 -11  128.17    8.20
   6  -4 -11   37.93    3.97
   6  -4 -11   35.56    4.60
   5  -4 -11   96.14    6.90
   5  -4 -11   91.74    5.54
   4  -4 -11    2.89    1.74
   3  -4 -11   71.90    4.57
   2  -4 -11    9.19    2.00
   1  -4 -11   86.04    4.65
   0  -4 -11    2.89    1.39
  -1  -4 -11   54.05    3.07
  -1  -4 -11   56.47    3.86
  -2  -4 -11   18.74    2.23
  -3  -4 -11   31.86    3.05
  -4  -4 -11    9.45    2.20
  -5  -4 -11  293.64   11.18
  -6  -4 -11   -1.29    1.23
  -7  -4 -11   62.22    4.99
  -8  -4 -11   -0.58    1.59
  -9  -4 -11    5.64    2.46
 -10  -4 -11   27.10    4.81
 -11  -4 -11   53.91    6.58
 -12  -4 -11   30.07    5.52
 -13  -4 -11    0.69    2.16
  11  -5 -11    5.88    3.10
  10  -5 -11    4.95    2.17
   9  -5 -11   13.72    3.25
   8  -5 -11   28.38    4.25
   8  -5 -11   24.70    3.83
   7  -5 -11   85.63    5.92
   7  -5 -11   93.24    7.06
   6  -5 -11    2.97    2.19
   6  -5 -11    2.35    1.84
   5  -5 -11   55.15    4.49
   4  -5 -11   37.80    3.79
   3  -5 -11   26.97    3.12
   2  -5 -11  373.61   12.65
   1  -5 -11   24.73    2.84
   0  -5 -11   73.83    4.54
  -1  -5 -11   44.81    2.82
  -1  -5 -11   50.09    3.78
  -2  -5 -11   82.59    5.15
  -2  -5 -11   80.44    4.27
  -3  -5 -11   13.00    2.27
  -4  -5 -11  267.33   10.08
  -5  -5 -11    8.81    2.34
  -6  -5 -11  105.74    6.33
  -7  -5 -11    8.23    2.67
  -8  -5 -11    2.01    1.97
  -9  -5 -11   35.94    4.68
 -10  -5 -11   18.40    4.12
 -11  -5 -11   59.24    6.72
 -12  -5 -11    7.27    3.89
 -13  -5 -11    0.92    2.72
  10  -6 -11   22.34    4.05
   9  -6 -11   19.24    3.68
   8  -6 -11    8.90    2.99
   7  -6 -11   -0.89    1.33
   7  -6 -11    0.62    2.21
   6  -6 -11    1.40    1.47
   6  -6 -11    1.35    1.92
   5  -6 -11  112.29    6.63
   4  -6 -11   46.58    4.22
   3  -6 -11  216.84    9.21
   2  -6 -11   22.04    2.91
   1  -6 -11   11.51    2.22
   0  -6 -11   -1.16    1.02
  -1  -6 -11   25.66    2.17
  -1  -6 -11   37.28    3.60
  -2  -6 -11    0.65    1.25
  -2  -6 -11    0.67    1.01
  -3  -6 -11   76.58    4.54
  -3  -6 -11   78.61    5.34
  -4  -6 -11   58.56    4.27
  -5  -6 -11   37.40    3.95
  -6  -6 -11    0.31    1.46
  -7  -6 -11   75.74    5.66
  -8  -6 -11   29.73    4.00
  -9  -6 -11   30.24    4.32
 -10  -6 -11    1.42    2.36
 -11  -6 -11   11.56    3.42
 -12  -6 -11    1.02    3.57
 -13  -6 -11    1.28    3.50
  10  -7 -11    1.69    2.17
   9  -7 -11   -0.16    1.71
   8  -7 -11    1.42    1.99
   7  -7 -11    0.61    2.09
   6  -7 -11   34.53    4.23
   5  -7 -11  123.12    7.23
   4  -7 -11   66.37    5.07
   3  -7 -11   -0.03    1.35
   2  -7 -11    3.64    1.80
   1  -7 -11   13.17    2.52
   0  -7 -11  242.17    9.75
  -1  -7 -11   21.33    2.93
  -1  -7 -11   20.92    2.18
  -2  -7 -11  111.86    6.37
  -2  -7 -11  118.92    5.34
  -3  -7 -11   15.37    2.84
  -3  -7 -11   17.84    2.44
  -4  -7 -11    0.95    1.61
  -4  -7 -11    4.07    1.56
  -5  -7 -11    4.77    1.91
  -6  -7 -11  129.59    7.24
  -7  -7 -11   18.68    3.35
  -8  -7 -11  142.48    8.34
  -9  -7 -11    2.08    2.06
 -10  -7 -11   10.06    3.05
 -11  -7 -11   12.45    3.48
 -12  -7 -11    4.38    2.44
   9  -8 -11    4.36    2.49
   8  -8 -11   53.34    5.74
   7  -8 -11   13.39    3.30
   6  -8 -11   53.04    5.31
   5  -8 -11   11.12    2.77
   4  -8 -11   23.28    3.43
   3  -8 -11    1.89    1.61
   2  -8 -11   79.20    5.59
   1  -8 -11  315.56   12.22
   0  -8 -11    6.49    2.10
  -1  -8 -11  127.57    6.98
  -2  -8 -11    0.99    1.30
  -2  -8 -11    2.00    1.59
  -3  -8 -11    8.43    2.56
  -3  -8 -11   12.42    2.32
  -4  -8 -11    4.00    1.63
  -4  -8 -11    3.97    2.21
  -5  -8 -11   76.68    5.19
  -5  -8 -11   80.23    5.98
  -6  -8 -11   20.39    3.20
  -7  -8 -11   78.79    5.87
  -8  -8 -11    1.71    1.64
  -9  -8 -11    5.92    2.40
 -10  -8 -11    3.90    2.46
 -11  -8 -11   27.44    4.87
 -12  -8 -11    5.05    2.79
   8  -9 -11   10.16    3.32
   7  -9 -11    8.80    2.85
   6  -9 -11   16.72    3.44
   5  -9 -11    0.64    1.59
   4  -9 -11   24.90    3.71
   3  -9 -11    8.72    2.45
   2  -9 -11   59.44    5.11
   1  -9 -11    4.28    2.08
   0  -9 -11  111.02    6.68
  -1  -9 -11    0.22    1.48
  -2  -9 -11   29.62    3.78
  -3  -9 -11    4.54    1.87
  -3  -9 -11    5.02    2.37
  -4  -9 -11   44.21    3.86
  -4  -9 -11   45.06    4.82
  -5  -9 -11    1.50    1.91
  -5  -9 -11    1.91    1.44
  -6  -9 -11   14.52    3.46
  -6  -9 -11   17.67    3.09
  -7  -9 -11    6.95    2.22
  -8  -9 -11    9.68    2.79
  -9  -9 -11    2.35    1.80
 -10  -9 -11   54.77    6.06
 -11  -9 -11    5.48    2.58
 -12  -9 -11   15.02    3.87
   7 -10 -11    8.65    2.80
   6 -10 -11    0.97    1.70
   5 -10 -11    0.34    1.52
   4 -10 -11   22.07    3.68
   3 -10 -11   33.36    4.33
   2 -10 -11   49.23    5.15
   1 -10 -11   28.01    3.85
   0 -10 -11   29.64    3.98
  -1 -10 -11  105.92    6.72
  -2 -10 -11    0.51    1.64
  -3 -10 -11  160.46    8.43
  -4 -10 -11    2.41    1.71
  -4 -10 -11    0.48    1.40
  -5 -10 -11   23.00    3.33
  -5 -10 -11   30.67    4.33
  -6 -10 -11   39.31    4.45
  -6 -10 -11   37.45    4.83
  -7 -10 -11   27.94    3.97
  -7 -10 -11   24.67    4.22
  -8 -10 -11    3.88    2.14
  -9 -10 -11   53.44    5.70
 -10 -10 -11    4.69    2.09
 -11 -10 -11   21.72    4.20
   6 -11 -11   10.62    3.38
   5 -11 -11    2.56    2.43
   4 -11 -11   14.83    3.42
   3 -11 -11   18.90    3.68
   2 -11 -11    0.76    1.83
   1 -11 -11    0.12    1.52
   0 -11 -11   13.81    3.15
  -1 -11 -11    9.87    2.89
  -2 -11 -11  146.43    8.27
  -3 -11 -11    0.85    1.85
  -4 -11 -11   17.22    3.40
  -5 -11 -11    1.61    1.57
  -5 -11 -11   -1.73    1.33
  -6 -11 -11    4.11    2.23
  -6 -11 -11    3.37    2.60
  -7 -11 -11    2.93    2.47
  -7 -11 -11    4.77    2.26
  -8 -11 -11   25.71    3.95
  -8 -11 -11   22.84    4.51
  -9 -11 -11   19.13    3.74
  -9 -11 -11   14.25    3.77
 -10 -11 -11    3.70    1.73
 -11 -11 -11   -0.57    1.42
   5 -12 -11    0.13    1.49
   4 -12 -11    0.05    1.63
   3 -12 -11   -0.61    1.73
   2 -12 -11   -1.99    1.57
   1 -12 -11   23.25    3.89
   0 -12 -11   39.61    4.82
  -1 -12 -11   28.27    4.24
  -2 -12 -11   -0.34    1.76
  -3 -12 -11   -2.98    1.39
  -4 -12 -11    1.12    2.01
  -5 -12 -11   86.89    6.59
  -6 -12 -11    1.83    1.52
  -6 -12 -11    3.31    2.39
  -7 -12 -11   23.25    3.89
  -7 -12 -11   19.44    4.04
  -8 -12 -11   15.60    3.47
  -8 -12 -11   25.10    4.46
  -9 -12 -11    0.26    1.89
  -9 -12 -11    0.93    2.66
 -10 -12 -11    2.60    2.61
 -10 -12 -11   -0.15    1.58
   4 -13 -11    0.52    1.63
   3 -13 -11   -1.11    0.89
   2 -13 -11    3.57    2.29
   1 -13 -11   47.68    5.47
   0 -13 -11   29.24    4.50
  -1 -13 -11    1.73    1.99
  -2 -13 -11    0.72    1.99
  -3 -13 -11   13.32    3.34
  -4 -13 -11   62.49    6.22
  -5 -13 -11   -0.43    1.77
  -6 -13 -11   38.58    4.87
  -7 -13 -11    0.37    1.46
  -7 -13 -11    4.06    2.81
  -8 -13 -11    3.47    1.98
  -8 -13 -11    1.65    2.73
  -9 -13 -11    0.85    1.41
   2 -14 -11   -0.61    1.47
   1 -14 -11   -1.24    1.10
   0 -14 -11    1.12    2.20
  -1 -14 -11    0.97    2.04
  -2 -14 -11    4.72    2.78
  -3 -14 -11   12.57    3.52
  -4 -14 -11    4.20    2.58
  -5 -14 -11   14.17    3.85
  -6 -14 -11    2.42    2.75
  -7 -14 -11    3.32    2.67
  -8 -14 -11    5.98    2.61
   0 -15 -11    8.63    3.45
  -1 -15 -11    5.34    2.94
  -2 -15 -11   25.02    4.58
  -3 -15 -11   12.02    3.40
  -4 -15 -11    9.48    3.18
  -5 -15 -11    1.70    2.41
  -2 -13  12   -1.01    1.56
  -1 -13  12   18.32    4.00
   0 -13  12   15.15    3.73
   1 -13  12    3.36    1.92
   2 -13  12    1.65    1.96
  -5 -12  12    0.38    1.92
  -4 -12  12    4.42    2.54
  -3 -12  12    0.39    1.66
  -2 -12  12    6.28    2.36
  -1 -12  12   31.91    4.89
   0 -12  12    9.89    2.67
   1 -12  12    1.95    1.81
   2 -12  12   -1.05    1.82
   3 -12  12   10.23    2.74
   4 -12  12    7.35    2.42
  -7 -11  12   -1.03    1.86
  -6 -11  12   -2.27    1.10
  -5 -11  12    2.46    2.60
  -4 -11  12    5.57    2.83
  -3 -11  12   21.11    4.03
  -2 -11  12    4.09    2.16
  -1 -11  12    8.76    2.66
   0 -11  12    2.21    1.77
   1 -11  12   30.67    4.43
   2 -11  12   46.28    5.27
   3 -11  12    6.91    2.37
   4 -11  12    7.05    2.53
   5 -11  12    4.10    2.18
   6 -11  12    8.44    2.57
   7 -11  12    3.26    2.80
  -8 -10  12   -0.40    1.46
  -7 -10  12    0.09    2.21
  -6 -10  12    9.47    3.47
  -5 -10  12    2.50    2.29
  -4 -10  12   27.43    4.55
  -3 -10  12    6.11    3.04
  -2 -10  12    0.50    1.90
  -1 -10  12    8.25    2.66
   0 -10  12    2.90    1.95
   1 -10  12   23.09    3.85
   2 -10  12    0.35    1.63
   3 -10  12    9.78    2.75
   4 -10  12   -1.20    1.49
   5 -10  12    6.70    2.50
   6 -10  12   -0.25    1.74
   8 -10  12   -0.98    2.07
 -10  -9  12    1.95    3.38
  -9  -9  12    4.91    2.16
   8   9 -12   10.61    3.88
  -8  -9  12    9.22    3.42
  -7  -9  12   15.98    3.97
   7   9 -12   18.20    5.03
   6   9 -12    3.29    3.33
  -6  -9  12    7.62    3.37
  -5  -9  12   38.57    5.16
   5   9 -12   42.05    6.45
  -4  -9  12    2.09    2.28
   4   9 -12   -3.72    2.14
  -3  -9  12   20.05    3.86
  -2  -9  12    3.82    2.23
  -1  -9  12   27.58    3.89
   0  -9  12    2.04    1.80
   1  -9  12   14.00    3.15
   2  -9  12    4.50    2.10
   3  -9  12   15.89    3.26
   4  -9  12    2.96    2.09
   5  -9  12   13.70    3.18
   6  -9  12   21.58    3.52
   7  -9  12    4.99    2.37
   8  -9  12   13.21    2.89
   9  -9  12    3.63    2.76
   9  -9  12   -1.98    2.08
 -10  -8  12    1.98    2.15
  -9  -8  12   14.75    3.77
   9   8 -12    0.00    2.20
   8   8 -12   92.50    9.45
  -8  -8  12   85.14    7.31
   7   8 -12    6.05    3.74
  -7  -8  12    2.18    2.20
  -6  -8  12    0.74    2.02
   6   8 -12    0.36    2.43
   5   8 -12    1.85    3.05
  -5  -8  12    3.57    2.20
   4   8 -12    3.00    3.09
  -4  -8  12    2.00    2.11
   3   8 -12    2.60    2.66
  -3  -8  12    1.27    1.80
  -2  -8  12  110.89    6.93
   2   8 -12   97.06    7.67
  -1  -8  12   49.73    5.00
   1   8 -12   57.53    5.77
   0  -8  12   28.25    3.85
   1  -8  12    8.99    2.60
   2  -8  12   14.25    2.95
   3  -8  12    4.54    2.35
   4  -8  12   25.90    3.69
   5  -8  12   24.00    3.69
   6  -8  12   -1.25    1.81
   7  -8  12   -0.13    1.52
   7  -8  12   -2.28    1.21
   8  -8  12   12.36    3.12
   8  -8  12   10.04    2.86
   9  -8  12   43.75    5.29
   9  -8  12   37.26    4.88
  10  -8  12    0.83    2.51
  10  -8  12   -0.89    2.35
  10   7 -12   -0.54    2.49
 -10  -7  12   10.60    3.61
  -9  -7  12   13.85    3.73
   9   7 -12   13.81    4.88
  -8  -7  12   -0.30    2.14
   8   7 -12    2.66    3.10
   7   7 -12    4.94    2.98
  -7  -7  12    2.68    2.50
   6   7 -12   23.11    5.01
  -6  -7  12   14.76    3.38
  -5  -7  12    9.03    2.69
   5   7 -12    9.10    3.71
   4   7 -12    4.16    2.77
  -4  -7  12    2.60    1.99
  -3  -7  12   89.12    5.94
   3   7 -12   85.22    7.39
  -2  -7  12    4.97    2.43
   2   7 -12    6.48    2.90
   1   7 -12   -2.34    1.76
  -1  -7  12    0.70    1.67
   0  -7  12    1.79    1.86
   0   7 -12    0.07    2.08
   1  -7  12    6.51    2.21
   2  -7  12   26.76    3.70
   3  -7  12   22.41    3.56
   4  -7  12   51.04    4.75
   5  -7  12    4.00    2.08
   5  -7  12    0.07    1.61
   6  -7  12   15.82    3.35
   6  -7  12   19.97    3.19
   7  -7  12    4.33    2.14
   7  -7  12    4.72    2.23
   8  -7  12   45.05    5.08
   8  -7  12   42.23    4.64
   9  -7  12    5.27    2.36
   9  -7  12    9.95    2.90
  10  -7  12   55.55    5.94
  10  -7  12   69.29    5.90
 -11   7 -12    1.72    4.83
 -11   7 -12    4.71    4.27
  11   6 -12   -1.11    3.16
 -10  -6  12   25.27    4.36
  10   6 -12    4.10    3.95
   9   6 -12   22.07    5.42
  -9  -6  12   18.36    3.79
  -8  -6  12    1.21    1.82
   8   6 -12   -0.16    2.63
   7   6 -12   13.26    4.18
  -7  -6  12   16.19    3.40
  -6  -6  12   91.48    6.47
   6   6 -12   99.96    8.48
   5   6 -12    1.13    2.67
  -5  -6  12    1.89    1.96
   4   6 -12   47.05    5.95
  -4  -6  12   48.20    4.52
  -3  -6  12    1.07    1.75
   3   6 -12   -0.22    2.40
  -2  -6  12    4.25    2.05
   2   6 -12    5.43    3.01
  -1  -6  12   27.34    3.53
   1   6 -12   21.63    3.96
   0  -6  12   95.06    5.97
   0   6 -12   99.60    6.71
  -1   6 -12   68.11    5.29
   1  -6  12   69.32    5.03
   2  -6  12   54.39    4.52
   3  -6  12   -1.36    1.18
   3  -6  12    0.61    1.57
   4  -6  12   57.88    4.24
   4  -6  12   59.46    4.88
   5  -6  12   -0.53    1.64
   5  -6  12   -0.75    1.30
   6  -6  12   49.48    4.44
   6  -6  12   38.67    4.21
   7  -6  12   44.96    4.73
   7  -6  12   37.98    4.37
   8  -6  12    9.11    2.82
   8  -6  12   11.76    2.94
   9  -6  12   28.84    4.25
   9  -6  12   24.34    4.02
  10  -6  12    5.64    2.33
 -11   6 -12    1.39    3.46
 -11   6 -12    8.62    3.64
  11  -6  12    6.41    3.09
  11   5 -12   -0.72    2.61
  10   5 -12    5.76    3.49
   9   5 -12    2.60    3.21
  -9  -5  12    3.84    2.48
  -8  -5  12    5.70    2.39
   8   5 -12    7.36    4.04
   7   5 -12   19.94    4.90
  -7  -5  12   23.36    3.53
   6   5 -12    1.20    2.68
  -6  -5  12    6.32    2.42
   5   5 -12   39.77    5.46
  -5  -5  12   43.24    4.43
  -4  -5  12    6.85    2.27
   4   5 -12    7.85    3.15
   3   5 -12   -0.50    2.26
  -3  -5  12    4.05    1.97
  -2  -5  12    0.98    1.46
   2   5 -12   -0.85    1.99
  -1  -5  12   73.79    4.93
   1   5 -12   72.25    6.02
   0  -5  12   13.48    2.62
   0   5 -12   16.89    3.16
  -1   5 -12   58.23    4.91
   1  -5  12   62.44    4.63
  -2   5 -12   23.41    3.06
   2  -5  12   29.05    2.66
   2  -5  12   31.47    3.55
   3  -5  12    0.17    1.17
   3  -5  12   -0.48    1.29
   4  -5  12   60.32    4.77
   4  -5  12   56.85    4.18
   5  -5  12   -0.74    1.55
   5  -5  12    2.42    1.61
   6  -5  12   78.96    5.53
   6  -5  12   70.79    5.42
   7  -5  12    3.42    1.85
   7  -5  12    1.35    1.80
   8  -5  12   15.86    3.38
   8  -5  12   31.85    4.13
   9  -5  12    3.96    1.97
   9  -5  12    0.82    1.69
 -10   5 -12   12.99    4.46
  10  -5  12   12.65    3.18
 -10   5 -12    9.44    3.88
 -11   5 -12    1.79    2.56
 -11   5 -12    0.76    3.35
  11  -5  12    0.40    1.49
 -12   5 -12   40.85    6.36
 -12   5 -12   54.80    7.16
  12   4 -12    4.17    3.82
  11   4 -12    8.51    3.80
  10   4 -12   29.30    6.06
   9   4 -12    0.24    2.79
   8   4 -12   30.94    5.65
  -8  -4  12   27.65    4.03
  -7  -4  12   32.79    3.88
   7   4 -12   31.86    5.43
  -6  -4  12   56.10    4.50
   6   4 -12   40.89    5.78
   5   4 -12   10.35    3.59
  -5  -4  12    5.79    2.20
  -4  -4  12    5.37    2.07
   4   4 -12    0.74    2.34
  -3  -4  12   43.79    3.73
   3   4 -12   43.04    5.11
  -2  -4  12  128.93    6.41
   2   4 -12  123.12    7.77
  -1  -4  12   34.90    3.45
   1   4 -12   37.35    4.22
   0   4 -12   95.80    6.11
   0  -4  12   85.04    5.23
  -1   4 -12  133.21    6.89
   1  -4  12  132.25    6.56
  -2   4 -12   12.17    2.32
   2  -4  12    7.36    2.14
   2  -4  12   11.51    1.80
   3  -4  12   30.59    3.43
   3  -4  12   13.70    1.95
   4  -4  12    4.72    1.70
   4  -4  12    5.05    2.02
   5  -4  12   53.51    4.57
   5  -4  12   52.42    4.22
   6  -4  12  100.57    5.97
   6  -4  12   80.23    5.70
   7  -4  12   14.35    2.90
   7  -4  12   19.24    3.41
   8  -4  12   39.15    4.52
   8  -4  12   43.30    4.62
   9  -4  12   12.98    3.22
 -10   4 -12    1.06    2.46
 -10   4 -12    1.35    3.21
  10  -4  12    4.16    2.35
 -11   4 -12   23.24    4.97
 -11   4 -12   27.08    5.03
 -12   4 -12    4.08    3.57
 -12   4 -12    6.52    3.51
  12   3 -12    6.52    4.01
  11   3 -12    3.20    3.12
  10   3 -12   -0.41    2.45
   9   3 -12   69.10    7.67
   8   3 -12    1.60    2.88
   7   3 -12   52.27    6.42
  -7  -3  12   49.80    4.22
   6   3 -12   -0.49    2.27
  -6  -3  12   -0.07    1.45
   5   3 -12    0.20    2.11
  -5  -3  12    1.28    1.56
  -4  -3  12   32.52    3.33
   4   3 -12   34.64    4.56
  -3  -3  12  222.06    8.65
   3   3 -12  231.57   10.86
  -2  -3  12   36.25    3.25
   2   3 -12   35.94    4.11
  -1  -3  12   28.92    3.02
   1   3 -12   33.11    3.72
   0   3 -12   -1.36    1.27
   0  -3  12    1.88    1.37
   1  -3  12   32.43    3.26
  -1   3 -12   34.91    3.31
   2  -3  12    1.71    1.52
  -2   3 -12    1.62    1.41
  -3   3 -12  161.02    6.43
   3  -3  12  151.91    7.13
   4  -3  12   85.15    5.27
   4  -3  12   89.24    5.06
   5  -3  12   17.96    2.68
   5  -3  12   21.31    3.10
   6  -3  12   13.91    2.82
   6  -3  12   17.35    3.10
   7  -3  12   48.11    4.76
   7  -3  12   42.93    4.48
   8  -3  12    7.84    2.59
   8  -3  12    6.62    2.38
   9  -3  12   31.25    4.19
  -9   3 -12   36.71    5.13
  -9   3 -12   30.50    4.98
 -10   3 -12   25.44    4.90
  10  -3  12   31.79    4.49
 -10   3 -12   40.93    5.70
 -11   3 -12    4.37    3.22
 -11   3 -12    5.52    2.73
  11  -3  12    4.09    2.42
  12  -3  12    0.31    1.66
  12   2 -12    2.31    3.03
  11   2 -12   -2.63    2.45
  10   2 -12   12.86    4.24
   9   2 -12   20.70    4.90
   8   2 -12    0.73    2.57
   7   2 -12    6.89    3.25
   6   2 -12   39.62    5.23
   5   2 -12    1.91    2.23
  -5  -2  12    0.40    1.17
  -4  -2  12  155.65    6.59
   4   2 -12  142.23    8.27
  -3  -2  12    9.17    1.87
   3   2 -12    7.74    2.58
   2   2 -12   64.67    5.09
  -2  -2  12   66.44    3.98
   1   2 -12   42.66    2.09
  -1  -2  12   41.70    3.28
   1   2 -12   44.47    4.07
   0  -2  12   60.37    3.96
   0   2 -12   58.86    4.47
   1  -2  12   88.04    4.83
  -1   2 -12   98.85    5.26
   2  -2  12  283.37   10.26
  -2   2 -12  301.54   10.32
  -3   2 -12  103.55    4.95
   3  -2  12  115.41    5.71
   4  -2  12   35.12    3.53
   5  -2  12    4.17    1.96
   5  -2  12    5.64    1.91
   6  -2  12    1.27    1.74
   6  -2  12    1.42    1.58
   7  -2  12  202.76    9.31
   7  -2  12  189.90    9.10
   8  -2  12   37.40    4.40
   9  -2  12   71.78    5.87
  -9   2 -12   79.24    6.68
  -9   2 -12   60.35    6.32
 -10   2 -12    5.44    3.11
  10  -2  12    5.72    2.54
 -10   2 -12   -0.77    1.92
 -11   2 -12    7.73    3.38
 -11   2 -12    3.89    3.39
  11  -2  12    3.56    2.28
 -12   2 -12   -1.04    2.57
  12  -2  12   -0.52    1.18
 -13   2 -12   15.71    4.54
  12   1 -12    7.99    4.01
  11   1 -12   21.95    5.09
  10   1 -12    1.96    2.87
   9   1 -12    1.67    2.46
   8   1 -12   -1.18    1.94
   7   1 -12   70.14    6.48
  -6  -1  12    3.81    1.66
   6   1 -12    3.75    2.67
   5   1 -12  145.64    8.72
  -5  -1  12  155.59    6.49
   4   1 -12   13.21    1.61
  -4  -1  12   13.21    2.03
   4   1 -12   15.41    3.18
   3   1 -12   19.02    1.74
   3   1 -12   21.09    3.43
   2   1 -12   31.78    2.04
  -2  -1  12   24.17    2.32
   2   1 -12   30.00    3.51
  -1  -1  12  155.80    6.02
   1   1 -12  140.88    5.02
   1   1 -12  146.46    7.30
   0  -1  12   55.77    3.56
   0   1 -12   53.22    4.14
  -1   1 -12  208.35    8.36
   1  -1  12  203.55    7.57
   2  -1  12   -0.81    0.98
  -2   1 -12    0.93    1.13
  -3   1 -12    8.82    1.66
   3  -1  12    7.51    1.88
   4  -1  12   57.72    4.14
   5  -1  12  126.74    6.51
   6  -1  12   42.26    3.92
   7  -1  12   26.54    3.55
  -8   1 -12   11.68    3.35
  -8   1 -12   12.03    3.53
   8  -1  12   16.47    3.19
  -9   1 -12   65.60    5.93
  -9   1 -12   59.66    6.22
   9  -1  12   63.12    5.49
 -10   1 -12    6.71    3.26
 -10   1 -12    6.31    3.13
  10  -1  12    2.78    2.35
 -11   1 -12   20.23    4.56
  11  -1  12   31.14    4.49
 -12   1 -12   26.56    4.65
 -13   1 -12    1.32    2.63
  11   0 -12   18.26    4.63
  10   0 -12    9.70    3.34
   9   0 -12   31.19    5.11
   8   0 -12   36.43    5.16
   7   0 -12    8.84    3.24
   6   0 -12   36.50    3.29
   6   0 -12   32.24    4.64
   5   0 -12   84.22    4.27
  -5   0  12   83.03    4.14
   5   0 -12   69.29    5.95
   4   0 -12   -0.16    0.84
   4   0 -12    0.40    1.77
  -4   0  12   -0.27    0.96
  -3   0  12    0.17    0.94
   3   0 -12    0.84    1.69
   3   0 -12    0.51    0.86
   2   0 -12  210.75    6.91
   2   0 -12  203.96    9.41
  -2   0  12  208.92    7.14
   1   0 -12    6.58    1.16
  -1   0  12    4.61    1.19
   1   0 -12    8.81    2.26
   0   0 -12  281.81    8.99
   0   0  12  284.35    9.10
   0   0 -12  277.08   10.75
   1   0  12    7.14    1.59
   2   0  12    4.37    1.51
   3   0  12   23.89    2.72
   4   0  12  180.42    7.54
   5   0  12   30.02    3.26
  -7   0 -12   45.16    5.10
  -7   0 -12   36.81    4.50
  -8   0 -12    1.15    2.03
  -8   0 -12    2.13    2.08
  -9   0 -12  130.28    8.31
  -9   0 -12  125.64    8.28
 -10   0 -12    2.28    2.77
 -11   0 -12   28.30    4.79
 -12   0 -12    5.65    3.30
 -13   0 -12   22.25    4.81
  10  -1 -12    3.46    2.84
   9  -1 -12    5.75    2.83
   8  -1 -12    1.99    2.39
   7  -1 -12   37.43    4.93
   7  -1 -12   34.67    3.51
   6  -1 -12    8.70    2.97
   6  -1 -12    9.06    2.17
   5  -1 -12    7.16    2.56
   5  -1 -12   11.20    2.10
   4  -1 -12   22.39    2.40
   4  -1 -12   17.64    3.29
   3  -1 -12  231.06    7.96
  -3   1  12  235.84    7.32
   3  -1 -12  229.82   10.38
   2  -1 -12   13.29    1.87
  -2   1  12   17.23    1.77
   2  -1 -12   14.41    2.74
  -1   1  12  168.91    5.71
   1  -1 -12  152.31    5.94
   0   1  12    5.14    1.25
   0  -1 -12    4.50    1.34
   1   1  12    2.04    1.11
   2   1  12   14.77    2.02
   3   1  12  318.49   10.59
   4   1  12   47.60    3.50
  -5  -1 -12  114.44    6.54
  -5  -1 -12  113.48    6.44
  -6  -1 -12   86.89    5.98
  -6  -1 -12   90.85    5.93
  -7  -1 -12   32.32    4.37
  -7  -1 -12   29.77    4.03
  -8  -1 -12    6.33    2.65
  -8  -1 -12    3.68    2.30
  -9  -1 -12    8.59    3.26
 -10  -1 -12   49.00    5.73
 -11  -1 -12   27.38    4.66
 -12  -1 -12   24.32    4.63
 -13  -1 -12   -0.65    2.14
  10  -2 -12   28.82    4.99
   9  -2 -12   20.83    3.26
   9  -2 -12   14.59    3.80
   8  -2 -12   23.26    3.33
   8  -2 -12   17.52    4.02
   7  -2 -12   34.36    3.74
   7  -2 -12   39.23    5.06
   6  -2 -12    5.81    2.48
   6  -2 -12    8.97    2.17
   5  -2 -12    6.07    1.78
   5  -2 -12    3.94    2.26
   4  -2 -12  137.56    8.04
   4  -2 -12  143.45    6.25
   3  -2 -12   40.78    3.10
   3  -2 -12   38.67    4.31
   2  -2 -12  168.22    6.69
   1  -2 -12   28.54    2.58
  -1   2  12   32.70    2.05
   0   2  12   58.40    2.93
   0  -2 -12   52.44    3.48
   1   2  12   47.56    2.77
   2   2  12  200.19    7.08
  -4  -2 -12   95.24    5.53
  -4  -2 -12  100.20    5.72
  -5  -2 -12    7.88    2.39
  -5  -2 -12    6.75    2.18
  -6  -2 -12    2.57    1.83
  -6  -2 -12    2.66    1.88
  -7  -2 -12    0.74    1.57
  -8  -2 -12   63.98    5.48
  -9  -2 -12   98.87    7.27
 -10  -2 -12   18.04    4.23
 -11  -2 -12    3.31    2.72
 -12  -2 -12   12.18    4.05
 -13  -2 -12    1.43    2.32
  10  -3 -12   24.89    3.86
   9  -3 -12    0.60    1.62
   9  -3 -12   -1.54    1.90
   8  -3 -12   -0.53    2.07
   8  -3 -12    0.12    1.55
   7  -3 -12    1.61    1.95
   7  -3 -12    1.50    1.68
   6  -3 -12   19.28    2.95
   6  -3 -12   26.18    4.15
   5  -3 -12   70.50    4.70
   5  -3 -12   67.69    5.80
   4  -3 -12   33.47    4.41
   4  -3 -12   38.41    3.46
   3  -3 -12   17.52    2.38
   2  -3 -12  147.39    6.43
   1  -3 -12   93.66    4.83
   0  -3 -12   -0.21    0.95
   0  -3 -12   -0.33    0.95
   0  -3 -12   -0.29    0.85
  -1  -3 -12  317.68   11.04
  -1  -3 -12  329.62   10.19
  -1  -3 -12  310.17   10.35
  -2  -3 -12    0.68    1.17
  -2  -3 -12    2.65    1.31
  -3  -3 -12   61.45    4.20
  -3  -3 -12   59.81    4.06
  -4  -3 -12  108.40    5.92
  -4  -3 -12  102.87    5.74
  -5  -3 -12   30.47    3.64
  -6  -3 -12   65.79    4.99
  -7  -3 -12  156.03    8.33
  -8  -3 -12   97.85    6.73
  -9  -3 -12    1.53    1.98
 -10  -3 -12    4.64    3.06
 -11  -3 -12   -0.35    2.51
 -12  -3 -12   42.47    5.92
 -13  -3 -12   -0.99    2.40
  11  -4 -12    3.78    2.80
  10  -4 -12    1.06    1.86
   9  -4 -12   -0.66    1.84
   9  -4 -12    3.47    2.17
   8  -4 -12   81.31    6.72
   8  -4 -12   70.79    5.67
   7  -4 -12   21.12    3.95
   7  -4 -12   25.07    3.51
   6  -4 -12   75.91    6.35
   6  -4 -12   81.81    5.47
   5  -4 -12   -1.92    1.70
   5  -4 -12    0.17    1.42
   4  -4 -12    4.05    1.75
   3  -4 -12    7.34    1.91
   2  -4 -12  169.67    7.28
   1  -4 -12    6.28    1.73
   0  -4 -12  297.27   10.53
   0  -4 -12  306.89    8.94
  -1  -4 -12    1.41    1.25
  -1  -4 -12    0.07    0.92
  -2  -4 -12   49.11    3.40
  -3  -4 -12   85.22    4.83
  -4  -4 -12   61.78    4.40
  -5  -4 -12   36.62    3.82
  -6  -4 -12  180.41    8.59
  -7  -4 -12   10.19    2.72
  -8  -4 -12   20.87    3.67
  -9  -4 -12    0.38    2.12
 -10  -4 -12   19.08    3.98
 -11  -4 -12   64.97    6.90
 -12  -4 -12   20.44    5.21
 -13  -4 -12    2.84    2.69
  11  -5 -12    6.18    3.18
  10  -5 -12   12.72    3.26
   9  -5 -12   13.17    3.25
   8  -5 -12   43.22    5.18
   8  -5 -12   34.08    4.24
   7  -5 -12   15.08    3.16
   7  -5 -12   19.99    4.19
   6  -5 -12   19.96    3.94
   6  -5 -12   27.01    3.54
   5  -5 -12   21.49    3.14
   4  -5 -12   61.99    4.63
   3  -5 -12    5.39    1.84
   2  -5 -12   26.61    3.12
   1  -5 -12  152.52    6.95
   0  -5 -12   52.74    3.90
  -1  -5 -12   -0.31    0.99
  -1  -5 -12    0.20    0.95
  -2  -5 -12    2.47    1.33
  -2  -5 -12    1.80    1.62
  -3  -5 -12   88.92    4.82
  -4  -5 -12    1.80    1.46
  -5  -5 -12  169.29    7.91
  -6  -5 -12   42.57    4.21
  -7  -5 -12   23.15    3.59
  -8  -5 -12   -0.99    1.66
  -9  -5 -12   26.53    4.16
 -10  -5 -12   26.86    4.20
 -11  -5 -12   16.59    4.00
 -12  -5 -12    2.63    3.70
 -13  -5 -12    2.35    3.50
  10  -6 -12    2.27    2.07
   9  -6 -12   30.34    4.21
   8  -6 -12    7.56    2.82
   7  -6 -12   -1.75    1.60
   7  -6 -12   -2.18    1.51
   6  -6 -12   38.03    4.22
   6  -6 -12   26.98    4.49
   5  -6 -12   25.89    3.47
   4  -6 -12   69.77    5.12
   3  -6 -12   23.07    3.16
   2  -6 -12   25.83    3.23
   1  -6 -12    2.52    1.44
   0  -6 -12    5.06    1.91
  -1  -6 -12   16.67    2.71
  -1  -6 -12   18.61    1.98
  -2  -6 -12  173.29    6.86
  -2  -6 -12  177.04    8.14
  -3  -6 -12    3.57    1.57
  -3  -6 -12    2.15    1.69
  -4  -6 -12  204.44    8.67
  -5  -6 -12   14.00    2.93
  -6  -6 -12   -0.01    1.58
  -7  -6 -12    0.90    1.77
  -8  -6 -12  140.25    8.34
  -9  -6 -12    3.34    2.10
 -10  -6 -12   21.93    3.91
 -11  -6 -12   12.54    3.57
 -12  -6 -12    6.31    2.82
 -13  -6 -12    2.97    3.77
  10  -7 -12   28.80    4.41
   9  -7 -12    6.49    2.94
   8  -7 -12   15.47    3.39
   7  -7 -12    3.28    2.25
   7  -7 -12    9.80    2.70
   6  -7 -12    1.26    1.67
   5  -7 -12   60.13    5.01
   4  -7 -12   78.04    5.61
   3  -7 -12  142.07    7.51
   2  -7 -12   68.00    4.91
   1  -7 -12    2.81    1.82
   0  -7 -12    0.18    1.25
  -1  -7 -12  163.56    7.73
  -2  -7 -12   12.38    1.96
  -2  -7 -12   11.64    2.58
  -3  -7 -12  141.02    6.51
  -3  -7 -12  151.49    7.82
  -4  -7 -12   18.88    3.38
  -4  -7 -12   15.16    2.64
  -5  -7 -12    2.30    1.53
  -6  -7 -12   31.41    3.86
  -7  -7 -12  113.35    7.18
  -8  -7 -12   26.43    4.11
  -9  -7 -12   69.52    6.14
 -10  -7 -12    6.94    2.63
 -11  -7 -12    1.05    2.30
 -12  -7 -12    4.64    2.71
   9  -8 -12   12.28    3.29
   8  -8 -12    0.85    2.08
   7  -8 -12   34.61    4.64
   6  -8 -12   26.32    3.92
   5  -8 -12   17.23    3.27
   4  -8 -12   -0.83    1.29
   3  -8 -12    0.67    1.56
   2  -8 -12    0.70    1.55
   1  -8 -12   93.25    6.04
   0  -8 -12   73.33    5.21
  -1  -8 -12    5.46    2.21
  -2  -8 -12   28.09    3.68
  -3  -8 -12   25.08    3.66
  -3  -8 -12   25.72    2.88
  -4  -8 -12   19.17    2.86
  -4  -8 -12   12.76    3.09
  -5  -8 -12    6.24    2.39
  -5  -8 -12    3.90    1.80
  -6  -8 -12  168.06    8.49
  -7  -8 -12   -0.82    1.29
  -8  -8 -12   22.82    3.93
  -9  -8 -12   11.64    3.22
 -10  -8 -12   19.64    4.03
 -11  -8 -12    0.14    1.78
 -12  -8 -12   25.73    4.95
   8  -9 -12   69.45    6.72
   7  -9 -12   10.94    3.14
   6  -9 -12    4.91    2.51
   5  -9 -12    4.15    2.28
   4  -9 -12    0.52    1.51
   3  -9 -12   83.79    6.04
   2  -9 -12   10.36    2.61
   1  -9 -12  176.38    8.91
   0  -9 -12    2.59    1.86
  -1  -9 -12    8.58    2.39
  -2  -9 -12    2.83    1.93
  -3  -9 -12   76.35    4.81
  -3  -9 -12   69.01    5.57
  -4  -9 -12    2.42    1.68
  -4  -9 -12    3.41    2.21
  -5  -9 -12  101.95    6.11
  -5  -9 -12   98.91    7.00
  -6  -9 -12   17.08    3.55
  -6  -9 -12   21.39    3.33
  -7  -9 -12    8.59    2.52
  -8  -9 -12   14.99    3.34
  -9  -9 -12    2.02    1.93
 -10  -9 -12    5.89    2.54
 -11  -9 -12   39.67    5.53
   7 -10 -12    4.25    2.15
   6 -10 -12    8.54    2.49
   5 -10 -12   10.63    2.90
   4 -10 -12    7.63    2.40
   3 -10 -12   54.88    5.41
   2 -10 -12   77.67    6.04
   1 -10 -12   34.64    4.41
   0 -10 -12   31.68    4.22
  -1 -10 -12   77.43    5.80
  -2 -10 -12   25.13    3.80
  -3 -10 -12   11.26    2.74
  -4 -10 -12   43.14    4.88
  -4 -10 -12   53.40    4.42
  -5 -10 -12    6.64    2.20
  -5 -10 -12   14.35    3.38
  -6 -10 -12    9.21    3.12
  -6 -10 -12   10.18    2.70
  -7 -10 -12    0.37    1.94
  -7 -10 -12    0.46    1.48
  -8 -10 -12   50.94    5.42
  -9 -10 -12    8.93    2.70
 -10 -10 -12   48.42    5.68
 -11 -10 -12    8.23    2.58
   6 -11 -12   28.33    4.50
   5 -11 -12   19.99    3.68
   4 -11 -12   19.80    3.76
   3 -11 -12   13.89    3.28
   2 -11 -12    5.54    2.43
   1 -11 -12   15.04    3.30
   0 -11 -12   -0.09    1.69
  -1 -11 -12   66.29    5.64
  -2 -11 -12    0.06    1.67
  -3 -11 -12   90.56    6.69
  -4 -11 -12    0.25    1.77
  -5 -11 -12    6.85    2.23
  -5 -11 -12    6.56    2.71
  -6 -11 -12    3.89    2.65
  -6 -11 -12    2.68    1.57
  -7 -11 -12   11.79    3.74
  -7 -11 -12    8.91    2.68
  -8 -11 -12    1.47    1.62
  -8 -11 -12    4.60    3.01
  -9 -11 -12   37.75    4.99
  -9 -11 -12   31.34    5.18
 -10 -11 -12    3.70    1.92
   5 -12 -12    0.87    1.82
   4 -12 -12   -0.40    0.98
   3 -12 -12    0.13    1.87
   2 -12 -12    0.65    1.85
   1 -12 -12    0.98    1.99
   0 -12 -12   62.10    5.92
  -1 -12 -12   27.25    4.31
  -2 -12 -12   56.54    5.64
  -3 -12 -12   16.72    3.53
  -4 -12 -12   -1.93    1.47
  -5 -12 -12   12.83    3.23
  -6 -12 -12   54.27    4.99
  -6 -12 -12   49.59    5.69
  -7 -12 -12    1.66    1.71
  -7 -12 -12    0.60    2.27
  -8 -12 -12   21.57    3.90
  -8 -12 -12   20.55    4.42
  -9 -12 -12    9.04    3.73
  -9 -12 -12    7.81    2.76
 -10 -12 -12    5.29    2.32
 -10 -12 -12    3.67    2.73
   3 -13 -12   -0.84    1.13
   2 -13 -12   -1.82    1.45
   1 -13 -12   14.49    3.53
   0 -13 -12   23.08    4.11
  -1 -13 -12    3.59    2.45
  -2 -13 -12    3.34    2.35
  -3 -13 -12    4.60    2.53
  -4 -13 -12    1.51    2.63
  -5 -13 -12   77.89    6.77
  -6 -13 -12    4.30    2.63
  -7 -13 -12   11.50    3.90
  -8 -13 -12    0.83    1.74
  -8 -13 -12    0.74    2.34
  -9 -13 -12    1.58    2.56
  -9 -13 -12    4.71    2.42
   1 -14 -12   -0.90    1.29
   0 -14 -12    0.23    1.34
  -1 -14 -12    1.92    2.42
  -2 -14 -12    6.85    3.07
  -3 -14 -12    1.97    2.34
  -4 -14 -12   65.00    6.55
  -5 -14 -12   11.91    3.76
  -6 -14 -12    9.27    3.29
  -7 -14 -12   -1.74    1.62
  -1 -15 -12   19.87    4.47
  -2 -15 -12   14.56    3.94
  -3 -15 -12   18.91    4.35
  -4 -15 -12   10.28    3.42
  -5 -15 -12   16.06    4.17
  -6 -15 -12   14.32    4.40
  -4 -12  13   -0.50    2.01
  -3 -12  13    0.85    1.59
  -2 -12  13   14.18    3.71
  -1 -12  13    9.64    3.11
   0 -12  13    4.36    2.39
   1 -12  13    0.27    1.74
   2 -12  13    2.74    2.26
   3 -12  13   -0.27    1.60
   4 -12  13    5.20    2.46
  -6 -11  13    1.54    1.75
  -5 -11  13    1.98    1.56
  -4 -11  13   -1.91    2.42
  -3 -11  13   -2.21    2.13
  -2 -11  13    7.38    2.52
  -1 -11  13    3.81    1.82
   0 -11  13    1.39    1.60
   1 -11  13    2.46    1.85
   2 -11  13   17.38    3.68
   3 -11  13   17.33    3.41
   4 -11  13    0.35    1.64
   5 -11  13    3.63    2.19
   6 -11  13    9.89    2.88
  -8 -10  13   -0.73    2.48
  -7 -10  13   -0.15    1.42
  -6 -10  13    1.22    2.40
  -5 -10  13   51.69    6.04
  -4 -10  13   26.96    4.60
  -3 -10  13   13.75    3.70
  -2 -10  13   -0.33    1.98
  -1 -10  13    2.55    1.95
   0 -10  13    1.25    1.83
   1 -10  13   35.34    4.78
   2 -10  13   52.32    5.55
   3 -10  13    1.27    1.83
   4 -10  13    8.04    2.47
   5 -10  13   -1.28    1.55
   6 -10  13    4.66    2.01
   7 -10  13    4.14    2.21
  -9  -9  13    2.64    2.86
  -8  -9  13    4.30    2.63
   8   9 -13    3.02    3.12
   7   9 -13    2.05    2.88
  -7  -9  13    0.86    2.16
   6   9 -13   40.33    6.48
  -6  -9  13   37.60    5.23
  -5  -9  13    0.29    1.98
   5   9 -13    0.85    2.65
   4   9 -13    1.68    2.66
  -4  -9  13    2.96    2.45
  -3  -9  13    8.35    3.11
   3   9 -13   18.83    4.29
  -2  -9  13   32.93    4.59
  -1  -9  13    0.44    1.79
   0  -9  13    0.95    1.55
   1  -9  13   10.56    2.84
   2  -9  13    2.55    2.13
   3  -9  13    8.64    2.92
   4  -9  13   12.63    2.93
   5  -9  13   14.47    3.28
   6  -9  13    1.35    1.80
   7  -9  13   15.26    3.26
   8  -9  13    2.37    1.91
   9  -9  13    2.91    3.29
 -10  -8  13    3.66    2.87
  -9  -8  13    2.65    2.63
   9   8 -13   -1.22    2.87
  -8  -8  13    0.57    1.93
   8   8 -13    2.85    2.90
   7   8 -13    3.21    3.01
  -7  -8  13    3.41    2.62
  -6  -8  13    3.05    2.36
   6   8 -13   -0.05    2.98
   5   8 -13   17.49    4.60
  -4  -8  13   -0.53    1.82
   4   8 -13   -1.01    2.44
   3   8 -13   50.97    6.21
  -3  -8  13   58.94    5.34
  -2  -8  13   47.12    5.02
   2   8 -13   40.51    5.32
   1   8 -13   60.84    5.81
  -1  -8  13   53.70    4.96
   0  -8  13    1.84    2.01
   1  -8  13    2.03    1.70
   2  -8  13    0.72    1.49
   3  -8  13   29.32    4.04
   4  -8  13   26.23    3.85
   5  -8  13    3.11    2.04
   6  -8  13   22.16    3.67
   7  -8  13    0.86    1.55
   8  -8  13    1.40    1.86
   8  -8  13    4.09    2.28
   9  -8  13    1.26    1.89
   9  -8  13   -0.32    1.46
 -10  -7  13    8.94    3.78
  10   7 -13    1.48    3.53
   9   7 -13    1.24    3.74
  -9  -7  13    2.14    2.27
   8   7 -13   10.69    4.08
  -8  -7  13    6.57    2.68
   7   7 -13   -0.81    2.57
  -7  -7  13    1.96    2.27
  -6  -7  13   -0.30    2.04
   6   7 -13   -1.13    2.08
   5   7 -13    7.83    3.23
  -5  -7  13    8.80    2.87
   4   7 -13   32.50    5.26
  -4  -7  13   27.41    3.91
  -3  -7  13   15.41    3.24
   3   7 -13   14.65    3.78
   2   7 -13   42.03    5.24
  -2  -7  13   41.34    4.51
  -1  -7  13   34.32    4.20
   1   7 -13   29.98    4.44
   0   7 -13   -1.05    2.13
   0  -7  13    0.50    1.70
   1  -7  13    4.52    2.27
   2  -7  13    8.87    2.66
   3  -7  13   16.14    3.37
   4  -7  13    7.70    2.62
   5  -7  13   22.78    3.65
   6  -7  13   -1.96    1.61
   6  -7  13    0.01    1.55
   7  -7  13   -0.23    1.75
   7  -7  13    2.54    1.88
   8  -7  13   -1.43    1.27
   8  -7  13    4.16    1.97
   9  -7  13   23.90    3.99
   9  -7  13   15.72    3.54
  10  -7  13    6.29    2.35
  10  -7  13    3.07    2.46
  10   6 -13   -0.43    2.00
   9   6 -13   14.35    4.83
  -9  -6  13   11.63    3.34
  -8  -6  13    0.84    2.01
   8   6 -13    3.23    3.07
   7   6 -13    1.40    2.63
  -7  -6  13   -0.28    1.88
   6   6 -13   -5.16    1.95
  -6  -6  13   -0.30    1.69
  -5  -6  13    8.34    2.67
   5   6 -13    7.07    3.42
   4   6 -13    3.50    2.85
  -4  -6  13   -1.17    1.86
   3   6 -13   55.90    6.20
  -3  -6  13   52.30    4.64
  -2  -6  13   14.21    2.88
   2   6 -13   14.34    3.68
   1   6 -13    7.58    2.94
  -1  -6  13    7.51    2.42
   0  -6  13    9.48    2.61
   0   6 -13    9.61    2.97
   1  -6  13   81.47    5.70
  -1   6 -13   84.72    6.04
   2  -6  13    2.03    1.69
   3  -6  13   14.12    2.95
   4  -6  13    6.72    2.38
   5  -6  13    9.68    2.27
   5  -6  13    9.16    2.82
   6  -6  13    0.80    1.81
   6  -6  13    3.02    1.74
   7  -6  13    7.37    2.39
   7  -6  13    3.60    2.61
   8  -6  13   33.60    4.51
   8  -6  13   50.24    5.06
   9  -6  13    3.46    1.99
   9  -6  13    1.95    1.82
  10  -6  13   17.08    3.66
 -11   6 -13   -2.02    4.02
 -11   6 -13    0.85    3.32
  11   5 -13    1.61    3.21
  10   5 -13    0.11    3.03
   9   5 -13    1.45    3.28
   8   5 -13   12.16    4.27
  -8  -5  13    9.00    2.86
  -7  -5  13    0.99    1.85
   7   5 -13    0.49    2.96
   6   5 -13   38.24    5.81
  -6  -5  13   39.90    4.39
   5   5 -13    4.78    3.16
  -5  -5  13    2.50    1.99
   4   5 -13    7.39    3.20
  -4  -5  13    7.66    2.30
   3   5 -13    3.16    2.44
  -3  -5  13    2.98    1.73
  -2  -5  13   -0.22    1.52
   2   5 -13    1.55    2.16
   1   5 -13   10.74    3.09
  -1  -5  13   12.74    2.63
   0   5 -13  110.55    7.04
   0  -5  13  102.67    6.06
  -1   5 -13   97.81    6.27
   1  -5  13   93.05    5.79
   2  -5  13   64.15    4.81
   3  -5  13    8.73    1.86
   3  -5  13    5.64    2.04
   4  -5  13   13.07    2.88
   4  -5  13   13.64    2.19
   5  -5  13   27.77    3.78
   5  -5  13   32.36    3.54
   6  -5  13   14.51    3.23
   6  -5  13   20.11    3.09
   7  -5  13   74.30    5.73
   7  -5  13   64.17    5.25
   8  -5  13   -2.30    1.56
   8  -5  13    1.58    1.77
   9  -5  13    4.72    2.39
   9  -5  13   11.12    3.03
 -10   5 -13    4.19    2.99
  10  -5  13    3.14    2.06
 -10   5 -13   -0.44    3.50
 -11   5 -13    8.80    3.21
 -11   5 -13    3.34    2.56
  11  -5  13    1.39    2.28
  11   4 -13    7.53    3.73
  10   4 -13    4.06    3.71
   9   4 -13   29.37    5.95
   8   4 -13   -1.29    2.82
  -8  -4  13    0.30    1.73
   7   4 -13    5.19    3.41
  -7  -4  13    6.38    2.29
  -6  -4  13   33.13    3.95
   6   4 -13   41.06    5.83
  -5  -4  13   45.20    4.29
   5   4 -13   40.93    5.57
  -4  -4  13   -0.70    1.28
   4   4 -13    0.38    2.36
  -3  -4  13   12.36    2.47
   3   4 -13   16.74    3.66
   2   4 -13    4.22    2.44
  -2  -4  13    4.30    1.94
   1   4 -13   69.71    5.65
  -1  -4  13   70.02    4.73
   0   4 -13   32.45    3.95
   0  -4  13   32.75    3.47
  -1   4 -13   22.19    3.21
   1  -4  13   27.57    3.21
  -2   4 -13    8.67    2.24
   2  -4  13    6.12    2.06
   3  -4  13   89.99    5.58
   3  -4  13   78.46    4.61
   4  -4  13    1.84    1.63
   4  -4  13    4.89    1.75
   5  -4  13   27.69    3.71
   5  -4  13   29.04    3.34
   6  -4  13   14.33    2.82
   6  -4  13   18.74    3.29
   7  -4  13   -1.65    1.57
   7  -4  13   -0.40    1.38
   8  -4  13   20.89    3.70
   8  -4  13   23.20    3.64
   9  -4  13   11.49    3.00
   9  -4  13   11.35    3.04
 -10   4 -13   22.39    4.82
  10  -4  13   23.73    4.02
 -10   4 -13   15.72    4.41
 -11   4 -13   -3.09    3.08
 -11   4 -13    6.51    2.96
  11  -4  13   -0.79    2.29
 -12   4 -13   35.29    5.98
 -12   4 -13   39.43    6.28
  12   3 -13    5.03    4.49
  11   3 -13   -2.81    2.86
  10   3 -13   21.80    5.37
   9   3 -13    7.59    3.73
   8   3 -13   53.67    6.93
   7   3 -13    3.26    3.06
  -7  -3  13    2.06    1.76
  -6  -3  13    2.22    1.60
   6   3 -13    2.69    2.71
   5   3 -13    3.33    2.67
  -5  -3  13    7.84    2.26
   4   3 -13   23.90    4.13
  -4  -3  13   23.49    2.96
  -3  -3  13    0.45    1.38
   3   3 -13   -0.19    1.95
   2   3 -13   92.53    6.43
  -2  -3  13  101.28    5.38
   1   3 -13    4.87    2.13
  -1  -3  13    1.67    1.60
   0  -3  13    7.58    2.01
   0   3 -13   11.07    2.44
   1  -3  13    0.60    1.39
  -1   3 -13    0.39    1.35
   2  -3  13   79.78    4.88
  -2   3 -13   79.42    4.80
  -3   3 -13   97.42    4.85
   3  -3  13   87.06    5.35
   4  -3  13  153.82    7.55
   4  -3  13  163.48    7.10
   5  -3  13   12.01    2.46
   5  -3  13   16.93    2.98
   6  -3  13   23.51    3.44
   6  -3  13   22.15    3.30
   7  -3  13   39.98    4.30
   7  -3  13   41.85    4.48
   8  -3  13   14.29    3.18
   8  -3  13   15.09    3.17
  -9   3 -13   36.82    5.65
   9  -3  13   37.58    4.64
  -9   3 -13   31.88    5.22
 -10   3 -13    1.08    3.01
  10  -3  13    3.90    2.21
 -10   3 -13    5.58    2.99
  11  -3  13   17.73    3.72
 -11   3 -13   22.11    4.78
 -11   3 -13   10.14    4.12
 -12   3 -13   -2.20    2.47
  12  -3  13   -0.65    1.71
  12   2 -13    6.59    4.12
  11   2 -13   -2.77    2.24
  10   2 -13    5.49    3.09
   9   2 -13   72.14    7.82
   8   2 -13   23.95    4.89
   7   2 -13    1.58    2.56
   6   2 -13    9.35    3.31
  -5  -2  13    9.63    1.93
   5   2 -13   20.45    3.99
   4   2 -13   -0.52    1.77
  -4  -2  13    0.52    1.21
   3   2 -13   73.52    5.79
  -3  -2  13   69.96    4.33
  -2  -2  13    1.45    1.41
   2   2 -13   -0.57    1.72
   1   2 -13   -0.02    1.60
   1   2 -13    0.06    0.44
  -1  -2  13    1.21    1.36
   0  -2  13   16.80    2.43
   0   2 -13   11.36    2.55
  -1   2 -13    6.38    1.92
   1  -2  13    6.15    1.78
   2  -2  13   31.94    3.19
  -2   2 -13   25.96    2.74
  -3   2 -13  108.72    5.05
   3  -2  13   92.17    5.30
   4  -2  13   50.97    4.11
   5  -2  13    6.15    2.23
   6  -2  13    0.21    1.59
   6  -2  13   -0.35    1.54
   7  -2  13    0.67    1.87
   7  -2  13    2.68    1.92
   8  -2  13   11.77    2.90
   9  -2  13    1.78    1.84
  -9   2 -13   -0.45    2.63
  -9   2 -13   -1.26    2.18
  10  -2  13   20.86    3.80
 -10   2 -13   17.26    4.12
 -10   2 -13   14.00    4.18
  11  -2  13    2.54    2.42
 -11   2 -13    3.25    2.73
 -11   2 -13    2.15    3.08
  12  -2  13   -0.74    1.14
 -12   2 -13   -1.51    2.62
  12   1 -13    2.97    3.46
  11   1 -13    5.71    3.50
  10   1 -13    3.57    2.92
   9   1 -13    2.45    2.41
   8   1 -13    5.81    3.18
   7   1 -13   -2.21    2.11
   6   1 -13   59.07    6.10
  -5  -1  13   12.75    2.19
   5   1 -13   14.99    3.61
  -4  -1  13   56.21    3.60
   4   1 -13   55.73    5.28
  -3  -1  13    0.33    0.82
   3   1 -13    1.23    0.85
   3   1 -13   -0.42    1.75
  -2  -1  13   -0.78    0.67
   2   1 -13    0.13    1.59
   2   1 -13    0.29    0.68
   1   1 -13    1.83    1.66
  -1  -1  13    2.84    1.32
   1   1 -13    0.66    0.71
   0   1 -13  161.00    7.72
   0  -1  13  173.00    6.76
  -1   1 -13    0.88    1.31
   1  -1  13    1.03    1.21
   2  -1  13   19.72    2.51
  -2   1 -13   15.74    2.26
  -3   1 -13    6.28    1.56
   3  -1  13    4.29    1.69
  -4   1 -13   16.30    1.96
   4  -1  13   22.35    2.91
   5  -1  13    1.32    1.71
   6  -1  13   73.39    5.14
  -8   1 -13   41.38    5.38
  -8   1 -13   37.68    5.08
  -9   1 -13    0.48    2.44
  -9   1 -13    1.10    2.06
 -10   1 -13   -0.23    1.82
 -10   1 -13    2.47    2.92
 -11   1 -13    1.21    2.67
 -12   1 -13    3.38    3.02
 -13   1 -13   19.00    4.68
  11   0 -13    6.16    3.56
  10   0 -13   -1.25    1.78
   9   0 -13    0.07    2.23
   8   0 -13    1.01    2.66
   7   0 -13  183.25   10.59
   6   0 -13   12.04    3.40
   5   0 -13   54.46    5.69
   5   0 -13   55.81    3.57
   4   0 -13    0.68    1.77
  -4   0  13    0.13    1.02
   4   0 -13    2.80    1.22
  -3   0  13   27.86    2.48
   3   0 -13   30.92    2.41
   3   0 -13   25.58    3.64
   2   0 -13   86.01    5.96
   2   0 -13   81.57    3.88
  -2   0  13   89.20    4.14
  -1   0  13   48.09    3.12
   1   0 -13   77.32    5.26
   1   0 -13   73.66    3.42
   0   0  13    4.11    1.27
   0   0 -13    4.70    1.94
   0   0 -13    2.16    1.15
   1   0  13   63.19    3.77
   2   0  13   44.55    3.31
   3   0  13    9.90    2.04
   4   0  13   15.21    2.46
   5   0  13   55.24    4.21
  -7   0 -13   66.46    5.49
  -7   0 -13   66.79    5.48
  -8   0 -13   33.55    4.87
  -8   0 -13   22.06    4.18
  -9   0 -13   31.55    4.90
  -9   0 -13   46.48    5.59
 -10   0 -13   22.46    4.75
 -11   0 -13    2.54    2.69
 -12   0 -13   10.31    3.64
 -13   0 -13   -0.38    2.27
  11  -1 -13    6.80    3.13
  10  -1 -13    5.09    2.81
   9  -1 -13    7.58    3.22
   8  -1 -13    3.02    2.48
   7  -1 -13    5.15    2.73
   6  -1 -13   41.53    3.81
   6  -1 -13   34.38    4.85
   5  -1 -13   14.07    2.22
   5  -1 -13    7.13    2.58
   4  -1 -13   21.33    3.61
   4  -1 -13   23.79    2.53
   3  -1 -13   13.23    1.87
   3  -1 -13   10.67    2.75
  -3   1  13   13.32    1.69
   2  -1 -13   31.35    2.66
   2  -1 -13   33.50    4.02
  -2   1  13   34.47    2.40
   1  -1 -13    2.37    1.04
  -1   1  13    2.47    1.07
   0   1  13   58.81    3.21
   0  -1 -13   51.91    3.36
   1   1  13   -0.40    0.84
   2   1  13   20.81    2.44
   3   1  13    1.31    1.20
   4   1  13  146.24    6.61
  -6  -1 -13    1.27    1.72
  -6  -1 -13    1.23    1.54
  -7  -1 -13   45.94    4.79
  -7  -1 -13   46.61    5.14
  -8  -1 -13   17.07    3.69
  -8  -1 -13   13.07    3.35
  -9  -1 -13   46.26    5.67
 -10  -1 -13    8.68    3.44
 -11  -1 -13   28.98    5.10
 -12  -1 -13    0.61    2.73
 -13  -1 -13   -0.13    2.71
  10  -2 -13   14.51    3.57
   9  -2 -13   16.71    4.09
   8  -2 -13    8.07    3.04
   8  -2 -13   12.13    2.62
   7  -2 -13   11.91    2.47
   7  -2 -13    7.45    2.98
   6  -2 -13    9.13    2.12
   6  -2 -13    1.07    1.88
   5  -2 -13  107.51    5.69
   5  -2 -13  107.53    7.38
   4  -2 -13    9.00    1.96
   4  -2 -13    8.19    2.88
   3  -2 -13  141.74    6.16
   3  -2 -13  143.07    8.20
   2  -2 -13    9.92    1.82
  -1   2  13    2.33    0.91
   1  -2 -13    3.90    1.28
   0  -2 -13   24.92    2.59
   0   2  13   23.68    2.05
   1   2  13   48.73    2.95
   2   2  13    9.15    1.72
  -4  -2 -13   15.86    2.74
  -4  -2 -13   14.82    2.91
  -5  -2 -13   49.98    4.40
  -5  -2 -13   59.30    4.66
  -6  -2 -13    2.68    1.84
  -6  -2 -13    0.34    1.81
  -7  -2 -13   18.25    3.44
  -7  -2 -13   23.20    3.96
  -8  -2 -13   39.15    4.89
  -9  -2 -13   86.84    6.70
 -10  -2 -13   42.95    5.67
 -11  -2 -13   26.96    5.02
 -12  -2 -13    6.07    3.37
 -13  -2 -13   -2.31    2.11
   9  -3 -13   29.29    4.84
   9  -3 -13   27.24    3.90
   8  -3 -13    5.43    2.77
   8  -3 -13    2.01    1.88
   7  -3 -13   32.38    3.81
   7  -3 -13   31.00    4.47
   6  -3 -13    4.69    1.85
   6  -3 -13    2.80    2.34
   5  -3 -13    1.20    1.47
   5  -3 -13    4.53    2.52
   4  -3 -13  256.01    9.79
   4  -3 -13  274.10   12.42
   3  -3 -13   22.88    2.72
   2  -3 -13    3.46    1.47
   1  -3 -13    0.07    1.05
   0  -3 -13    0.89    1.03
  -1  -3 -13    3.18    1.57
  -1  -3 -13    4.49    1.47
  -1  -3 -13    2.56    1.30
  -2  -3 -13  226.10    8.72
  -2  -3 -13  242.76    8.74
  -3  -3 -13    2.00    1.54
  -3  -3 -13    2.41    1.65
  -4  -3 -13    5.33    2.04
  -4  -3 -13    2.95    1.78
  -5  -3 -13   -0.51    1.51
  -5  -3 -13   -0.17    1.55
  -6  -3 -13   57.51    4.76
  -7  -3 -13   35.81    4.32
  -8  -3 -13   24.22    4.07
  -9  -3 -13   10.27    3.10
 -10  -3 -13    1.74    2.40
 -11  -3 -13   -0.44    2.68
 -12  -3 -13    2.28    3.55
 -13  -3 -13    0.89    3.03
  10  -4 -13    4.37    2.12
   9  -4 -13    0.00    1.87
   9  -4 -13    1.34    2.07
   8  -4 -13    4.62    2.66
   8  -4 -13    5.44    2.40
   7  -4 -13   11.38    3.36
   7  -4 -13   14.50    2.97
   6  -4 -13   20.58    4.00
   6  -4 -13   16.14    2.80
   5  -4 -13    2.21    1.58
   5  -4 -13    0.62    2.06
   4  -4 -13   10.13    2.21
   3  -4 -13    4.14    1.55
   2  -4 -13    1.39    1.21
   1  -4 -13  156.50    6.88
   0  -4 -13    1.87    1.29
  -1  -4 -13  119.55    6.09
  -1  -4 -13  122.71    5.09
  -2  -4 -13   -0.48    1.02
  -2  -4 -13    0.49    1.30
  -3  -4 -13    2.75    1.59
  -4  -4 -13    0.42    1.49
  -5  -4 -13  146.75    7.53
  -6  -4 -13   53.82    4.60
  -7  -4 -13   95.30    6.41
  -8  -4 -13    6.46    2.48
  -9  -4 -13    6.84    2.43
 -10  -4 -13   -1.71    1.68
 -11  -4 -13   18.19    4.64
 -12  -4 -13    2.81    3.51
 -13  -4 -13    0.81    3.13
  11  -5 -13    1.42    3.43
  10  -5 -13    4.69    2.42
   9  -5 -13   -1.92    1.53
   8  -5 -13   13.78    3.18
   8  -5 -13   15.95    3.73
   7  -5 -13   32.89    4.11
   7  -5 -13   38.71    5.23
   6  -5 -13    1.99    1.66
   6  -5 -13    5.47    2.58
   5  -5 -13   23.17    3.23
   4  -5 -13    3.64    1.81
   3  -5 -13   -0.50    1.19
   2  -5 -13  208.12    8.68
   1  -5 -13   11.61    2.27
   0  -5 -13   73.96    4.76
  -1  -5 -13    1.24    1.24
  -1  -5 -13    1.46    1.14
  -2  -5 -13    7.29    1.63
  -2  -5 -13    7.59    2.18
  -3  -5 -13   16.22    2.42
  -4  -5 -13   95.48    5.48
  -5  -5 -13    1.24    1.67
  -6  -5 -13   44.05    4.10
  -7  -5 -13    9.39    2.69
  -8  -5 -13   -0.88    1.38
  -9  -5 -13   -3.92    1.41
 -10  -5 -13   23.07    3.86
 -11  -5 -13   11.82    3.31
 -12  -5 -13   -0.75    3.27
 -13  -5 -13   -0.01    3.21
  10  -6 -13   13.63    3.53
   9  -6 -13    2.83    2.35
   8  -6 -13   18.95    3.62
   7  -6 -13   -1.29    1.55
   7  -6 -13   -3.62    1.82
   6  -6 -13   29.53    3.82
   6  -6 -13   25.84    4.57
   5  -6 -13   -0.22    1.33
   4  -6 -13   24.71    3.41
   3  -6 -13   26.77    3.40
   2  -6 -13    9.23    2.25
   1  -6 -13   39.94    3.78
   0  -6 -13   87.05    5.45
  -1  -6 -13   27.72    3.35
  -2  -6 -13    0.14    1.36
  -2  -6 -13    0.88    1.24
  -3  -6 -13  174.78    7.53
  -3  -6 -13  184.08    8.82
  -4  -6 -13    1.85    1.75
  -5  -6 -13   39.31    4.05
  -6  -6 -13    2.46    1.70
  -7  -6 -13   12.13    2.78
  -8  -6 -13   27.14    3.68
 -10  -6 -13   15.27    3.00
 -11  -6 -13    3.54    2.39
 -12  -6 -13    4.73    2.41
   9  -7 -13    9.32    3.14
   8  -7 -13    8.57    2.90
   7  -7 -13    4.40    2.15
   7  -7 -13    3.95    2.15
   6  -7 -13    8.61    2.66
   5  -7 -13    2.29    1.60
   4  -7 -13   27.76    3.73
   3  -7 -13    0.10    1.24
   2  -7 -13   18.84    3.09
   1  -7 -13    0.75    1.46
   0  -7 -13   30.74    3.60
  -1  -7 -13    2.53    1.58
  -2  -7 -13   73.15    5.29
  -2  -7 -13   81.70    4.31
  -3  -7 -13    1.25    1.37
  -3  -7 -13    2.01    1.79
  -4  -7 -13   11.57    2.51
  -4  -7 -13   11.20    2.92
  -5  -7 -13    3.74    1.78
  -6  -7 -13   10.85    2.74
  -7  -7 -13    0.59    1.85
  -8  -7 -13   58.95    5.46
  -9  -7 -13   15.14    3.39
 -10  -7 -13   21.01    3.96
 -11  -7 -13   15.43    3.78
 -12  -7 -13    3.57    2.37
   9  -8 -13    1.50    2.43
   8  -8 -13    1.23    1.68
   7  -8 -13    0.07    1.53
   6  -8 -13   27.66    4.03
   5  -8 -13   14.12    3.01
   4  -8 -13   48.01    4.89
   3  -8 -13    4.17    2.04
   2  -8 -13   42.08    4.35
   1  -8 -13   -0.47    1.39
   0  -8 -13   22.60    3.31
  -1  -8 -13  163.66    8.35
  -2  -8 -13   35.67    4.13
  -3  -8 -13   12.25    2.97
  -3  -8 -13   15.13    2.28
  -4  -8 -13    1.72    1.54
  -4  -8 -13    3.62    2.21
  -5  -8 -13   52.99    5.41
  -5  -8 -13   50.79    4.26
  -6  -8 -13    2.14    1.47
  -7  -8 -13   52.25    4.75
  -8  -8 -13    0.43    1.73
  -9  -8 -13   15.94    3.72
 -10  -8 -13    2.63    2.17
 -11  -8 -13    9.70    3.15
 -12  -8 -13   23.47    4.65
   8  -9 -13   30.75    4.76
   7  -9 -13   20.69    3.91
   6  -9 -13   19.51    3.61
   5  -9 -13    5.79    2.21
   4  -9 -13    4.38    2.17
   3  -9 -13    6.37    2.33
   2  -9 -13   39.06    4.44
   1  -9 -13    0.44    1.51
   0  -9 -13   19.98    3.28
  -1  -9 -13   10.18    2.65
  -2  -9 -13    0.57    1.53
  -3  -9 -13    7.60    2.61
  -4  -9 -13   27.85    4.13
  -4  -9 -13   35.52    3.62
  -5  -9 -13    3.53    2.39
  -5  -9 -13    4.39    1.76
  -6  -9 -13   91.02    6.06
  -6  -9 -13   82.05    6.71
  -7  -9 -13    8.83    2.64
  -8  -9 -13    0.76    1.52
  -9  -9 -13    6.21    2.49
 -10  -9 -13   32.41    4.89
 -11  -9 -13   19.57    4.31
   7 -10 -13   -2.58    1.46
   6 -10 -13    1.97    1.76
   5 -10 -13   -2.23    1.58
   4 -10 -13    3.54    1.88
   3 -10 -13   28.83    4.08
   2 -10 -13   42.62    4.77
   1 -10 -13    3.24    1.89
   0 -10 -13   26.68    4.07
  -1 -10 -13    4.69    2.30
  -2 -10 -13   16.03    3.35
  -3 -10 -13   83.02    6.07
  -4 -10 -13   -0.79    1.65
  -5 -10 -13   50.80    4.45
  -5 -10 -13   40.29    5.05
  -6 -10 -13    2.42    2.24
  -6 -10 -13    3.43    1.87
  -7 -10 -13    0.34    2.14
  -7 -10 -13    1.28    1.45
  -8 -10 -13    3.65    2.14
  -9 -10 -13   46.82    5.41
 -10 -10 -13    2.71    1.62
 -11 -10 -13   29.81    4.76
   6 -11 -13   -1.23    1.30
   5 -11 -13   16.38    3.62
   4 -11 -13   13.07    3.13
   3 -11 -13   12.94    3.30
   2 -11 -13    2.06    2.05
   1 -11 -13    9.39    2.91
   0 -11 -13    0.75    1.89
  -1 -11 -13    8.81    2.76
  -2 -11 -13   12.36    3.09
  -3 -11 -13   16.49    3.50
  -4 -11 -13   17.89    3.60
  -5 -11 -13    1.97    2.15
  -6 -11 -13    3.89    2.61
  -6 -11 -13    2.45    1.77
  -7 -11 -13    8.40    3.09
  -7 -11 -13    7.71    2.46
  -8 -11 -13   33.03    4.57
  -8 -11 -13   28.17    5.18
  -9 -11 -13    2.22    2.87
  -9 -11 -13    2.03    1.71
 -10 -11 -13   17.42    3.85
   4 -12 -13   -0.80    1.09
   3 -12 -13   -0.96    1.76
   2 -12 -13    1.67    1.94
   1 -12 -13   18.48    3.67
   0 -12 -13    3.20    2.31
  -1 -12 -13   26.57    4.24
  -2 -12 -13    2.17    2.04
  -3 -12 -13    7.14    2.91
  -4 -12 -13    0.93    2.07
  -5 -12 -13    4.34    2.57
  -6 -12 -13    0.49    2.29
  -7 -12 -13   27.38    4.82
  -7 -12 -13   35.62    4.74
  -8 -12 -13   -1.02    1.93
  -8 -12 -13   -0.11    1.60
  -9 -12 -13   12.31    3.15
  -9 -12 -13    9.37    3.70
 -10 -12 -13   -0.41    2.85
 -10 -12 -13    2.35    1.97
   3 -13 -13   -0.50    1.53
   2 -13 -13   -0.52    1.02
   1 -13 -13    1.33    1.99
   0 -13 -13   25.82    4.30
  -1 -13 -13   19.30    3.89
  -2 -13 -13    9.31    3.18
  -3 -13 -13   10.54    3.13
  -4 -13 -13    3.58    2.44
  -5 -13 -13    4.73    2.85
  -6 -13 -13   32.46    4.79
  -7 -13 -13    0.01    2.32
  -8 -13 -13   14.08    3.64
  -8 -13 -13   15.27    3.48
  -9 -13 -13   -0.09    1.71
  -9 -13 -13    2.52    3.39
   1 -14 -13    0.35    1.52
   0 -14 -13    0.14    1.61
  -1 -14 -13    0.10    1.38
  -2 -14 -13    3.09    2.91
  -3 -14 -13    7.76    3.16
  -4 -14 -13   -2.30    1.73
  -5 -14 -13   15.92    3.90
  -6 -14 -13    2.00    1.82
  -7 -14 -13   -3.28    2.25
  -8 -14 -13    0.01    3.32
  -3 -15 -13   10.00    3.75
  -4 -15 -13   21.93    4.69
  -5 -15 -13    0.05    2.70
  -3 -12  14   -0.89    1.81
  -2 -12  14    6.08    2.65
  -1 -12  14   19.58    4.12
   0 -12  14    1.98    2.15
   1 -12  14   -0.48    1.73
   2 -12  14    6.16    2.43
   3 -12  14    4.80    2.42
  -6 -11  14    0.70    2.14
  -5 -11  14    0.27    1.72
  -4 -11  14    2.29    1.46
  -3 -11  14    0.47    2.46
  -2 -11  14    0.54    1.61
  -1 -11  14   13.24    3.34
   0 -11  14   -0.50    1.47
   1 -11  14   20.08    3.97
   2 -11  14    4.45    2.41
   3 -11  14    3.13    1.91
   4 -11  14   21.45    3.77
   5 -11  14   -0.01    1.93
  -7 -10  14   -1.59    1.57
  -6 -10  14    0.98    2.29
  -5 -10  14    0.87    2.34
  -4 -10  14   41.72    5.55
  -3 -10  14   72.00    6.43
  -2 -10  14    6.03    2.80
  -1 -10  14    2.68    1.70
   0 -10  14   -0.85    1.38
   1 -10  14    2.39    1.79
   2 -10  14    2.74    1.98
   3 -10  14    9.77    2.85
   4 -10  14   -0.13    1.73
   5 -10  14    3.88    1.94
   6 -10  14   11.87    3.18
  -9  -9  14    4.21    3.48
  -8  -9  14   -2.40    1.61
   8   9 -14    6.25    3.66
   7   9 -14    5.94    3.49
  -7  -9  14   10.10    3.55
  -6  -9  14    4.92    2.63
   6   9 -14    6.63    3.40
  -5  -9  14   34.20    4.90
   5   9 -14   33.00    5.88
  -4  -9  14    0.00    1.87
   4   9 -14    2.38    2.80
  -3  -9  14    1.11    2.17
   3   9 -14   -1.29    2.35
  -2  -9  14   16.68    3.69
  -1  -9  14   44.55    5.28
   0  -9  14   12.26    3.19
   1  -9  14   14.13    3.28
   2  -9  14    3.68    2.46
   3  -9  14    2.10    1.87
   4  -9  14    0.22    1.70
   5  -9  14    1.74    1.93
   6  -9  14    7.43    2.68
   7  -9  14   -1.68    1.62
   8  -9  14   30.78    4.35
 -10  -8  14    3.31    3.23
   9   8 -14    3.44    3.38
  -9  -8  14   -2.52    1.98
  -8  -8  14   22.58    4.52
   8   8 -14   22.45    5.61
  -7  -8  14    3.59    2.62
   7   8 -14    2.68    3.20
  -6  -8  14   14.46    3.55
   6   8 -14   10.01    4.03
   5   8 -14    5.31    3.30
  -5  -8  14    2.19    2.09
  -4  -8  14    5.19    2.39
   4   8 -14    8.84    3.85
  -3  -8  14    1.46    1.82
   3   8 -14    2.89    2.73
  -2  -8  14   60.57    5.85
   2   8 -14   76.33    6.99
   1   8 -14   78.06    6.73
  -1  -8  14   69.36    5.79
   0  -8  14   30.48    4.28
   1  -8  14   19.49    3.58
   2  -8  14   11.77    3.18
   3  -8  14    1.21    1.76
   4  -8  14   15.33    3.32
   5  -8  14   37.23    4.55
   6  -8  14    3.79    2.14
   7  -8  14    6.04    2.37
   8  -8  14    4.08    2.25
   9  -8  14    7.72    2.72
  -9  -7  14    6.57    2.90
   9   7 -14   -0.41    2.13
  -8  -7  14   -0.98    2.09
   8   7 -14    2.38    2.90
  -7  -7  14   40.73    5.10
   7   7 -14   42.08    6.55
  -6  -7  14    0.94    2.27
   6   7 -14    2.25    2.59
   5   7 -14    2.76    2.70
  -5  -7  14    4.21    2.27
   4   7 -14   11.06    3.82
  -4  -7  14    7.61    2.45
   3   7 -14   73.58    6.97
  -3  -7  14   85.47    6.09
  -2  -7  14    7.00    2.64
   2   7 -14    6.50    2.96
  -1  -7  14   32.44    4.19
   1   7 -14   39.61    4.95
   0   7 -14  100.44    7.09
   0  -7  14   91.29    6.30
   1  -7  14   55.48    5.32
   2  -7  14    5.95    2.45
   3  -7  14    9.89    2.88
   4  -7  14   24.87    3.89
   5  -7  14    1.93    1.91
   6  -7  14    4.29    2.35
   7  -7  14   -1.26    1.70
   7  -7  14    2.56    1.54
   8  -7  14    0.22    1.54
   8  -7  14    3.40    2.12
   9  -7  14    0.46    1.58
   9  -7  14    2.62    2.47
  10  -7  14   72.27    7.04
  10  -7  14   68.09    6.06
  10   6 -14    0.24    2.79
  -9  -6  14    0.77    2.18
   9   6 -14    4.41    3.68
  -8  -6  14    1.16    2.39
   8   6 -14    4.53    3.59
  -7  -6  14    2.08    1.96
   7   6 -14    6.23    3.45
  -6  -6  14   11.42    2.94
   6   6 -14    9.59    3.92
   5   6 -14   -2.06    2.22
  -5  -6  14    2.75    2.04
   4   6 -14   18.75    4.42
  -4  -6  14   16.72    3.10
   3   6 -14    2.58    2.59
  -3  -6  14   -0.60    1.49
  -2  -6  14   63.87    5.09
   2   6 -14   68.45    6.61
  -1  -6  14    0.78    1.65
   1   6 -14    0.09    2.28
   0   6 -14   66.78    5.87
   0  -6  14   62.49    5.02
   1  -6  14   20.84    3.39
   2  -6  14   30.60    3.92
   3  -6  14   19.89    3.33
   4  -6  14   20.53    3.49
   5  -6  14    0.71    1.64
   5  -6  14    1.34    1.99
   6  -6  14   22.78    3.78
   6  -6  14   15.38    3.03
   7  -6  14    5.29    2.37
   7  -6  14   10.01    3.00
   8  -6  14   16.28    3.32
   8  -6  14   13.41    3.20
   9  -6  14    8.05    2.88
   9  -6  14    3.82    2.24
  10  -6  14    0.67    1.74
  10   5 -14   -0.31    1.79
   9   5 -14    6.63    4.25
   8   5 -14    1.44    2.91
  -8  -5  14    4.81    2.40
  -7  -5  14    6.87    2.67
   7   5 -14   10.44    3.90
   6   5 -14    2.17    2.54
  -6  -5  14    9.50    2.46
  -5  -5  14   68.47    5.26
   5   5 -14   74.49    7.45
  -4  -5  14    9.36    2.48
   4   5 -14    5.00    3.04
  -3  -5  14    3.11    2.00
   3   5 -14    3.24    2.76
  -2  -5  14   17.92    3.02
   2   5 -14   19.29    3.97
   1   5 -14   10.83    3.16
  -1  -5  14   16.53    2.91
   0  -5  14    1.80    1.72
   0   5 -14   -0.86    1.96
  -1   5 -14  157.62    8.31
   1  -5  14  163.54    7.95
   2  -5  14  129.06    7.06
   3  -5  14    5.44    2.30
   4  -5  14    0.31    0.48
   4  -5  14    0.58    1.54
   5  -5  14    2.46    1.74
   5  -5  14    1.73    1.89
   6  -5  14    8.35    2.37
   6  -5  14   17.32    3.38
   7  -5  14    2.27    2.00
   7  -5  14    2.59    1.94
   8  -5  14    6.98    2.45
   8  -5  14   12.30    3.26
   9  -5  14    3.10    1.97
   9  -5  14   -0.08    1.88
  10  -5  14   -0.71    2.00
 -11   5 -14   -1.40    3.07
 -11   5 -14   -0.38    2.71
  11  -5  14    0.44    2.22
  11   4 -14    6.34    3.99
  10   4 -14    3.03    3.48
   9   4 -14    3.45    3.20
   8   4 -14   13.10    4.26
   7   4 -14    1.16    2.73
  -7  -4  14   -2.05    1.53
  -6  -4  14   22.78    3.35
   6   4 -14   18.77    4.61
  -5  -4  14   10.09    2.40
   5   4 -14    7.75    3.38
  -4  -4  14    7.90    2.25
   4   4 -14    5.04    3.04
   3   4 -14   16.75    3.81
  -3  -4  14   20.81    3.23
   2   4 -14    6.73    2.87
  -2  -4  14    6.02    2.09
  -1  -4  14   13.82    2.61
   1   4 -14   10.45    2.97
   0   4 -14  147.19    8.00
   0  -4  14  140.80    6.95
   1  -4  14    0.80    1.73
  -1   4 -14    3.20    1.99
  -2   4 -14   -0.65    1.42
   2  -4  14    2.76    1.79
   3  -4  14   54.81    4.51
   4  -4  14   33.85    3.35
   4  -4  14   33.96    3.90
   5  -4  14    6.65    2.09
   5  -4  14    4.28    2.32
   6  -4  14   15.27    3.16
   6  -4  14   12.45    2.76
   7  -4  14   29.44    3.87
   7  -4  14   33.71    4.36
   8  -4  14    2.89    1.96
   8  -4  14    3.05    2.03
   9  -4  14   17.54    3.52
   9  -4  14   13.80    3.27
 -10   4 -14    2.23    3.43
  10  -4  14    2.30    2.21
 -10   4 -14    7.99    3.76
 -11   4 -14    8.02    2.77
  11  -4  14    1.25    1.66
 -11   4 -14    3.30    3.37
  11   3 -14    9.13    4.44
  10   3 -14    5.56    3.38
   9   3 -14   35.52    6.10
   8   3 -14    6.58    3.71
   7   3 -14   87.11    8.07
   6   3 -14    7.49    3.38
  -6  -3  14    4.44    1.91
  -5  -3  14    7.80    2.14
   5   3 -14    3.39    2.76
  -4  -3  14   26.40    3.13
   4   3 -14   23.72    4.18
   3   3 -14   38.53    4.69
  -3  -3  14   37.69    3.67
  -2  -3  14    0.18    1.40
   2   3 -14    2.01    2.06
   1   3 -14   12.28    2.77
  -1  -3  14   16.58    2.69
   0  -3  14   -0.70    1.48
   0   3 -14   -1.08    1.29
  -1   3 -14   22.40    2.96
   1  -3  14   21.47    2.96
  -2   3 -14   16.61    2.52
   2  -3  14   15.47    2.61
   3  -3  14  152.28    7.38
   4  -3  14  143.41    7.30
   5  -3  14    5.05    1.95
   5  -3  14    4.64    2.24
   6  -3  14    1.52    1.76
   6  -3  14    2.36    1.89
   7  -3  14    4.58    2.22
   7  -3  14    4.44    2.14
   8  -3  14    0.63    1.54
   8  -3  14    1.13    1.97
   9  -3  14   12.09    3.08
 -10   3 -14   38.48    5.81
 -10   3 -14   27.11    4.89
  10  -3  14   24.24    4.17
  11  -3  14   -0.22    1.90
 -11   3 -14   -3.35    2.70
 -11   3 -14   -0.18    1.95
 -12   3 -14   10.45    4.54
 -12   3 -14    7.73    4.11
  12  -3  14    0.14    2.20
  10   2 -14   68.19    8.06
   9   2 -14   31.52    5.83
   8   2 -14    3.38    2.90
   7   2 -14   -2.06    2.17
   6   2 -14    2.01    2.54
   5   2 -14    4.25    2.55
  -4  -2  14   12.84    2.20
   4   2 -14    8.88    2.98
   3   2 -14   -1.45    1.58
  -3  -2  14    0.75    1.37
   2   2 -14   22.81    3.61
  -2  -2  14   20.36    2.66
   1   2 -14   44.14    4.44
  -1  -2  14   39.59    3.33
   0   2 -14   -0.44    1.51
   0  -2  14    0.73    1.27
  -1   2 -14   49.93    4.05
   1  -2  14   52.06    3.86
   2  -2  14  127.40    6.32
  -2   2 -14  127.94    6.32
  -3   2 -14   35.21    3.10
   3  -2  14   36.44    3.59
   4  -2  14  117.68    6.40
   5  -2  14  190.16    8.71
   6  -2  14   66.36    5.17
   7  -2  14   10.25    2.77
   8  -2  14   -1.63    1.45
   9  -2  14   35.84    4.50
  -9   2 -14   35.72    5.45
  -9   2 -14   31.92    5.29
 -10   2 -14    3.07    2.34
 -10   2 -14    3.04    3.10
  10  -2  14   -0.46    1.82
 -11   2 -14   26.29    5.17
 -11   2 -14   31.56    5.37
 -12   2 -14   -0.64    2.21
  12   1 -14   -3.01    3.40
  11   1 -14   15.53    4.28
  10   1 -14    6.95    3.85
   9   1 -14    0.72    2.37
   8   1 -14  106.25    8.55
   7   1 -14   41.72    5.64
   6   1 -14    0.74    2.47
   5   1 -14  106.43    7.65
   4   1 -14    5.86    2.67
  -4  -1  14    6.56    1.77
  -3  -1  14   11.83    2.01
   3   1 -14   11.89    3.06
   2   1 -14   50.01    4.65
   2   1 -14   49.41    2.74
  -1  -1  14    1.95    1.39
   1   1 -14    2.13    0.81
   1   1 -14    4.56    2.07
   0   1 -14   35.17    3.69
   0  -1  14   33.49    3.10
  -1   1 -14   50.18    4.09
   1  -1  14   52.69    3.76
   2  -1  14    6.62    1.82
  -2   1 -14   15.85    2.32
  -3   1 -14   78.94    4.51
   3  -1  14   77.33    4.79
  -4   1 -14   10.22    1.81
   4  -1  14   14.85    2.68
   5  -1  14    3.33    2.04
   6  -1  14   20.52    3.27
   7  -1  14   42.63    4.44
  -8   1 -14    9.98    3.46
  -8   1 -14    6.28    3.09
  -9   1 -14    5.71    3.09
  -9   1 -14    8.01    3.54
 -10   1 -14    4.02    2.82
 -10   1 -14    5.51    3.60
 -11   1 -14   30.55    5.69
 -12   1 -14    0.35    1.68
  11   0 -14    7.71    3.38
  10   0 -14    3.11    2.83
   9   0 -14    0.43    2.32
   8   0 -14   41.96    5.79
   7   0 -14   18.57    4.13
   6   0 -14  105.17    7.80
   5   0 -14    1.81    2.35
   4   0 -14   42.10    4.90
   3   0 -14   20.56    2.09
   3   0 -14   20.53    3.46
  -3   0  14   24.00    2.42
   2   0 -14    0.55    0.98
   2   0 -14    1.70    1.84
  -2   0  14    0.12    1.10
   1   0 -14   23.93    3.40
   1   0 -14   23.39    2.05
   0   0 -14    6.49    2.12
   0   0  14    5.04    1.53
  -1   0 -14   34.69    3.53
   1   0  14   32.40    2.81
   2   0  14    1.85    1.34
   3   0  14   12.90    2.37
   4   0  14   33.76    3.49
   5   0  14   42.13    3.87
   6   0  14  119.89    6.63
  -7   0 -14   62.80    5.49
  -7   0 -14   76.22    5.93
  -8   0 -14   -0.99    2.19
  -8   0 -14    2.75    2.47
  -9   0 -14    4.23    2.60
  -9   0 -14    5.55    2.85
 -10   0 -14    1.03    2.33
 -10   0 -14    4.16    2.96
 -11   0 -14    1.67    2.97
 -12   0 -14    0.91    1.78
  11  -1 -14    6.59    3.61
  10  -1 -14    1.59    2.32
   9  -1 -14   -0.96    2.19
   8  -1 -14    1.52    2.31
   7  -1 -14   36.23    5.14
   6  -1 -14   90.13    7.28
   5  -1 -14    5.67    1.95
   5  -1 -14    4.62    2.61
   4  -1 -14    0.24    1.77
   4  -1 -14    1.76    1.31
   3  -1 -14   89.20    4.40
   3  -1 -14   76.62    5.92
  -2   1  14   19.48    1.99
   2  -1 -14   16.53    3.18
   2  -1 -14   19.12    2.19
  -1   1  14   54.17    3.20
   1  -1 -14   55.40    4.80
   1  -1 -14   55.24    3.36
   0   1  14   17.99    2.00
   0  -1 -14   17.94    2.17
   1   1  14    0.60    1.00
   2   1  14   65.31    3.96
   3   1  14    5.84    1.77
   4   1  14    5.08    1.82
  -6  -1 -14   50.68    5.18
  -6  -1 -14   44.73    4.60
  -7  -1 -14   35.02    4.28
  -7  -1 -14   27.32    4.39
  -8  -1 -14   11.29    3.40
  -8  -1 -14   12.46    3.44
  -9  -1 -14   27.29    4.90
 -10  -1 -14   29.44    5.12
 -11  -1 -14    6.52    3.41
 -12  -1 -14   -0.89    2.58
 -13  -1 -14   -0.54    2.52
  10  -2 -14   22.09    4.71
   9  -2 -14    6.80    3.10
   8  -2 -14   32.59    5.14
   7  -2 -14    6.82    2.13
   7  -2 -14    9.72    3.18
   6  -2 -14   10.03    2.13
   6  -2 -14    6.83    2.71
   5  -2 -14    5.48    1.94
   5  -2 -14    7.18    2.92
   4  -2 -14   80.69    6.48
   4  -2 -14   92.02    5.01
   3  -2 -14    1.94    1.19
   3  -2 -14    0.39    2.05
   2  -2 -14  273.93    9.55
  -1   2  14    9.21    1.41
   1  -2 -14    8.64    1.71
   0   2  14    8.11    1.44
   0  -2 -14    3.85    1.40
  -1  -2 -14   65.55    4.37
   1   2  14   62.47    3.49
   2   2  14   15.21    2.04
  -4  -2 -14   12.24    2.82
  -4  -2 -14   12.24    2.59
  -5  -2 -14    9.07    2.63
  -5  -2 -14    6.44    2.21
  -6  -2 -14    1.66    1.74
  -6  -2 -14    4.94    2.27
  -7  -2 -14    2.80    2.11
  -7  -2 -14    3.76    2.27
  -8  -2 -14   45.85    5.22
  -9  -2 -14   45.50    5.43
 -10  -2 -14   26.88    5.04
 -11  -2 -14    2.18    2.92
 -12  -2 -14   -2.45    2.33
 -13  -2 -14    0.10    2.73
  10  -3 -14    8.52    3.32
   9  -3 -14   -0.75    1.81
   8  -3 -14    2.19    2.40
   8  -3 -14   -2.40    1.49
   7  -3 -14    4.84    1.97
   7  -3 -14    2.97    2.54
   6  -3 -14   -1.56    2.17
   6  -3 -14    0.61    1.54
   5  -3 -14   42.89    3.78
   5  -3 -14   51.41    5.61
   4  -3 -14    8.27    2.05
   4  -3 -14    9.20    3.13
   3  -3 -14   56.01    4.01
   2  -3 -14   19.86    2.63
   1  -3 -14   10.49    2.01
   0  -3 -14    3.11    1.45
  -1  -3 -14   13.47    2.12
  -1  -3 -14   18.22    2.39
  -1  -3 -14   20.49    2.77
  -2  -3 -14    5.25    1.83
  -2  -3 -14    6.14    1.88
  -3  -3 -14   26.41    3.27
  -3  -3 -14   21.46    2.92
  -4  -3 -14   49.30    4.05
  -4  -3 -14   44.71    4.05
  -5  -3 -14    8.83    2.56
  -5  -3 -14    9.23    2.70
  -6  -3 -14    6.17    2.48
  -7  -3 -14   57.47    5.44
  -8  -3 -14   57.71    5.32
  -9  -3 -14   46.71    4.98
 -10  -3 -14   39.64    4.82
 -11  -3 -14    5.10    3.44
 -12  -3 -14   -1.17    2.80
 -13  -3 -14    3.59    3.29
   9  -4 -14   10.60    3.10
   9  -4 -14    9.19    3.09
   8  -4 -14   13.36    3.48
   8  -4 -14    5.37    2.43
   7  -4 -14    4.84    2.13
   7  -4 -14    5.55    2.59
   6  -4 -14   24.47    3.29
   6  -4 -14   30.61    4.75
   5  -4 -14   11.48    2.37
   5  -4 -14    2.88    2.65
   4  -4 -14    0.83    1.42
   3  -4 -14  114.81    6.14
   2  -4 -14    3.78    1.70
   1  -4 -14    0.73    1.15
   0  -4 -14  199.92    6.72
   0  -4 -14  194.41    8.16
  -1  -4 -14    8.94    2.18
  -1  -4 -14   11.48    1.87
  -2  -4 -14   27.98    3.45
  -2  -4 -14   31.91    3.00
  -3  -4 -14   43.67    3.66
  -4  -4 -14    0.25    1.53
  -5  -4 -14    1.95    1.86
  -6  -4 -14   29.56    3.92
  -7  -4 -14   -1.00    1.54
  -8  -4 -14   13.42    3.09
  -9  -4 -14   20.78    3.43
 -10  -4 -14    7.19    2.52
 -11  -4 -14    8.92    2.84
 -12  -4 -14    3.26    3.63
 -13  -4 -14   -0.06    3.29
  10  -5 -14    5.67    2.76
   9  -5 -14    0.90    2.18
   8  -5 -14    4.20    2.38
   8  -5 -14    2.08    2.11
   7  -5 -14   21.67    3.54
   7  -5 -14   35.46    5.16
   6  -5 -14   10.36    2.46
   6  -5 -14    9.73    3.30
   5  -5 -14   17.51    2.84
   5  -5 -14   19.54    4.07
   4  -5 -14    1.61    1.46
   3  -5 -14   27.07    3.29
   2  -5 -14    1.33    1.46
   1  -5 -14  228.33    9.19
   0  -5 -14   29.77    3.31
  -1  -5 -14   62.09    3.52
  -1  -5 -14   70.65    4.79
  -2  -5 -14   28.21    2.74
  -2  -5 -14   28.30    3.53
  -3  -5 -14   16.66    2.46
  -4  -5 -14   13.72    2.62
  -5  -5 -14    5.66    2.16
  -6  -5 -14    7.02    2.35
  -7  -5 -14   -0.60    1.43
  -8  -5 -14    2.21    1.82
  -9  -5 -14    8.22    2.64
 -10  -5 -14    9.15    2.74
  10  -6 -14    6.76    3.36
   9  -6 -14   11.24    3.28
   8  -6 -14   16.15    3.47
   8  -6 -14   11.76    3.55
   7  -6 -14   24.24    4.44
   7  -6 -14   35.79    4.54
   6  -6 -14    2.43    1.76
   6  -6 -14    1.48    1.98
   5  -6 -14    1.01    1.54
   4  -6 -14    4.23    2.04
   3  -6 -14    1.41    1.45
   2  -6 -14   45.09    4.13
   1  -6 -14   77.86    5.13
   0  -6 -14   31.55    3.61
  -1  -6 -14   19.17    3.01
  -2  -6 -14   33.45    2.89
  -2  -6 -14   31.11    3.77
  -3  -6 -14    1.36    1.52
  -3  -6 -14    1.59    1.70
  -4  -6 -14   81.20    5.32
  -5  -6 -14   -2.17    0.99
  -6  -6 -14   22.24    3.48
  -7  -6 -14   20.04    3.33
  -8  -6 -14   12.55    2.91
  -9  -6 -14    2.15    2.08
 -11  -6 -14   10.51    2.63
 -12  -6 -14    5.66    2.40
   9  -7 -14   -0.52    1.94
   8  -7 -14   11.03    3.20
   7  -7 -14    2.79    2.15
   7  -7 -14    0.68    1.84
   6  -7 -14    1.01    1.72
   6  -7 -14    1.86    1.82
   5  -7 -14   39.89    4.46
   4  -7 -14   10.70    2.65
   3  -7 -14   22.20    3.32
   2  -7 -14    0.70    1.40
   1  -7 -14    1.52    1.46
   0  -7 -14   -0.56    1.37
  -1  -7 -14  101.82    6.10
  -2  -7 -14   -0.24    1.32
  -3  -7 -14  103.01    5.61
  -3  -7 -14  121.77    7.07
  -4  -7 -14   41.05    4.73
  -4  -7 -14   37.19    3.89
  -5  -7 -14    2.73    1.44
  -6  -7 -14   38.47    4.16
  -7  -7 -14    3.59    1.83
  -8  -7 -14    2.14    1.97
  -9  -7 -14   19.74    3.48
 -10  -7 -14    4.21    2.25
 -11  -7 -14    0.00    2.00
 -12  -7 -14    2.75    2.22
   8  -8 -14    5.19    2.33
   7  -8 -14    3.26    2.17
   6  -8 -14   12.22    3.05
   5  -8 -14   26.37    3.91
   4  -8 -14   -1.66    1.56
   3  -8 -14   23.44    3.55
   2  -8 -14   -0.05    1.28
   1  -8 -14   -0.69    1.26
   0  -8 -14   26.76    3.67
  -1  -8 -14    7.63    2.42
  -2  -8 -14  103.81    6.66
  -3  -8 -14   46.97    4.93
  -4  -8 -14    0.41    1.97
  -4  -8 -14    2.11    1.66
  -5  -8 -14    3.33    1.71
  -5  -8 -14    3.10    2.46
  -6  -8 -14   30.83    3.94
  -7  -8 -14    3.49    2.08
  -8  -8 -14   33.96    4.50
  -9  -8 -14    9.80    3.10
 -10  -8 -14    1.77    1.76
 -11  -8 -14    0.41    1.72
 -12  -8 -14   34.39    5.51
   8  -9 -14   18.28    3.91
   7  -9 -14    1.75    1.94
   6  -9 -14    7.56    2.55
   5  -9 -14    5.74    2.23
   4  -9 -14   -0.42    1.46
   3  -9 -14    7.48    2.48
   2  -9 -14    1.15    1.53
   1  -9 -14   11.13    2.75
   0  -9 -14   -0.14    1.51
  -1  -9 -14    4.56    2.40
  -2  -9 -14   14.56    3.13
  -3  -9 -14   -0.19    1.70
  -4  -9 -14    3.80    2.37
  -5  -9 -14   34.66    3.76
  -5  -9 -14   32.46    4.58
  -6  -9 -14    7.21    2.82
  -6  -9 -14    9.14    2.45
  -7  -9 -14   22.58    3.78
  -8  -9 -14    0.58    1.64
  -9  -9 -14    3.60    2.16
 -10  -9 -14    3.81    2.52
 -11  -9 -14   13.44    3.53
   7 -10 -14   20.98    4.17
   6 -10 -14    2.14    1.89
   5 -10 -14   -0.97    1.25
   4 -10 -14    1.17    1.67
   3 -10 -14   -1.55    1.20
   2 -10 -14   29.39    4.17
   1 -10 -14   19.96    3.57
   0 -10 -14    5.81    2.51
  -1 -10 -14   18.42    3.64
  -2 -10 -14   -0.40    1.67
  -3 -10 -14    1.78    1.92
  -4 -10 -14  121.74    8.02
  -5 -10 -14    2.44    2.41
  -6 -10 -14   16.32    2.99
  -6 -10 -14    6.17    3.01
  -7 -10 -14    7.45    3.25
  -7 -10 -14    4.94    2.16
  -8 -10 -14    1.25    1.79
  -9 -10 -14    1.25    1.47
 -10 -10 -14   12.78    3.38
 -11 -10 -14   11.62    2.98
   5 -11 -14   10.72    3.12
   4 -11 -14    6.31    2.42
   3 -11 -14   11.71    3.06
   2 -11 -14   12.03    3.17
   1 -11 -14   -0.46    1.78
   0 -11 -14    0.06    1.73
  -1 -11 -14    0.45    1.79
  -2 -11 -14   -0.68    1.67
  -3 -11 -14   20.18    3.78
  -4 -11 -14   20.93    3.88
  -5 -11 -14   28.89    4.57
  -6 -11 -14    4.93    2.95
  -7 -11 -14    5.27    2.36
  -7 -11 -14    7.39    3.31
  -8 -11 -14    1.95    2.53
  -8 -11 -14   15.73    3.17
  -9 -11 -14   31.37    4.60
  -9 -11 -14   32.96    5.37
 -10 -11 -14   -0.02    1.70
   4 -12 -14    2.91    2.08
   3 -12 -14   -0.94    1.25
   2 -12 -14   -0.55    1.73
   1 -12 -14    2.41    2.11
   0 -12 -14   61.07    6.09
  -1 -12 -14   -0.04    1.96
  -2 -12 -14   21.99    3.95
  -3 -12 -14    5.77    2.79
  -4 -12 -14    5.01    2.77
  -5 -12 -14   10.05    3.14
  -6 -12 -14   36.81    5.27
  -7 -12 -14    1.96    2.45
  -8 -12 -14   31.49    5.05
  -8 -12 -14   23.44    3.92
  -9 -12 -14    7.24    2.45
  -9 -12 -14    8.80    3.52
 -10 -12 -14    0.63    1.46
 -10 -12 -14    1.81    3.37
   2 -13 -14    0.21    1.48
   1 -13 -14   -0.94    1.14
   0 -13 -14    2.44    2.09
  -1 -13 -14    3.50    2.70
  -2 -13 -14    6.44    2.75
  -3 -13 -14   -2.52    1.66
  -4 -13 -14   10.89    3.58
  -5 -13 -14    0.43    2.24
  -6 -13 -14    5.29    2.67
  -8 -13 -14    4.49    3.35
  -9 -13 -14    0.82    3.43
  -9 -13 -14    0.90    1.95
   0 -14 -14    1.02    1.78
  -1 -14 -14   -0.14    1.32
  -2 -14 -14    0.75    1.66
  -3 -14 -14    4.49    2.59
  -4 -14 -14    5.46    2.81
  -5 -14 -14    0.94    2.20
  -6 -14 -14    5.97    3.00
  -7 -14 -14   15.68    4.24
  -1 -12  15   12.55    3.52
   0 -12  15   20.20    4.27
   1 -12  15    6.47    2.52
  -5 -11  15    1.00    2.25
  -4 -11  15   -0.53    1.64
  -3 -11  15    1.34    1.59
  -2 -11  15    0.17    1.52
  -1 -11  15   15.23    3.68
   0 -11  15    2.09    1.76
   1 -11  15    1.13    1.81
   2 -11  15    4.40    2.03
   3 -11  15   39.00    4.93
   4 -11  15    2.89    2.38
  -7 -10  15    1.84    2.92
  -6 -10  15    0.48    1.40
  -5 -10  15    0.62    2.01
  -4 -10  15    6.39    2.77
  -3 -10  15   43.81    5.70
  -2 -10  15   11.24    3.41
  -1 -10  15    2.64    2.60
   0 -10  15    1.24    1.42
   1 -10  15   15.09    3.56
   2 -10  15   13.90    3.55
   3 -10  15    7.90    2.73
   4 -10  15    6.22    2.32
   5 -10  15    3.14    2.06
   6 -10  15    0.57    1.78
  -8  -9  15    1.45    2.67
  -7  -9  15   16.41    4.02
   7   9 -15   13.04    4.62
  -6  -9  15   80.67    6.97
   6   9 -15   76.55    8.74
  -5  -9  15   -1.80    1.84
   5   9 -15    4.29    3.00
  -4  -9  15   -1.14    2.16
   4   9 -15    1.87    2.70
   3   9 -15    8.78    3.42
  -3  -9  15   14.27    3.63
  -2  -9  15    3.70    2.42
   2   9 -15    1.91    2.49
  -1  -9  15    4.25    2.47
   0  -9  15   12.12    3.42
   1  -9  15   50.38    5.43
   2  -9  15    4.60    2.28
   3  -9  15    0.09    1.72
   4  -9  15    5.08    2.44
   5  -9  15   26.71    4.01
   6  -9  15    5.03    2.50
   7  -9  15   35.05    4.47
  -9  -8  15    6.81    2.49
   8   8 -15   -0.36    2.92
  -8  -8  15    1.01    2.14
   7   8 -15   53.45    7.52
  -7  -8  15   42.07    5.44
   6   8 -15    0.02    2.63
  -6  -8  15    0.71    2.13
  -5  -8  15   46.24    5.27
   5   8 -15   35.74    6.09
  -4  -8  15    1.36    2.04
   4   8 -15    3.10    2.76
   3   8 -15   11.58    3.82
  -3  -8  15   13.00    3.35
   2   8 -15    2.24    2.39
  -2  -8  15   -1.43    1.70
  -1  -8  15   37.73    4.82
   1   8 -15   50.35    5.71
   0  -8  15    3.85    2.38
   1  -8  15   14.25    3.33
   2  -8  15   10.60    2.92
   3  -8  15   14.92    3.44
   4  -8  15    0.31    1.87
   5  -8  15    1.28    1.72
   6  -8  15   12.57    3.18
   7  -8  15    1.52    1.68
   8  -8  15    7.35    2.51
  -9  -7  15   12.95    3.48
   9   7 -15    0.02    2.99
   8   7 -15   41.83    6.98
  -8  -7  15   43.82    5.41
   7   7 -15   -0.47    2.45
  -7  -7  15    1.14    2.14
   6   7 -15   34.69    6.02
  -6  -7  15   31.25    4.48
  -5  -7  15   31.69    4.36
   5   7 -15   24.12    5.21
  -4  -7  15    7.99    2.69
   4   7 -15   11.65    3.78
  -3  -7  15    0.92    1.73
   3   7 -15    5.30    2.52
  -2  -7  15   27.87    3.95
   2   7 -15   24.04    4.48
  -1  -7  15   30.75    4.20
   1   7 -15   21.18    3.95
   0   7 -15    0.43    1.98
   0  -7  15    5.95    2.49
   1  -7  15   13.28    3.21
   2  -7  15   36.71    4.56
   3  -7  15   17.68    3.41
   4  -7  15    2.92    2.32
   5  -7  15   16.35    3.47
   6  -7  15    7.18    2.67
   7  -7  15    0.62    1.76
   8  -7  15    6.58    2.29
   9  -7  15   17.22    4.14
   9  -7  15   24.43    4.30
  10  -7  15   -0.29    2.43
   9   6 -15    0.84    1.88
   8   6 -15   -1.07    2.43
  -8  -6  15    1.25    1.94
  -7  -6  15    7.64    2.82
   7   6 -15    7.52    3.67
  -6  -6  15   -0.66    1.44
   6   6 -15   -1.52    2.23
   5   6 -15   41.71    6.16
  -5  -6  15   38.48    4.41
  -4  -6  15   11.12    2.90
   4   6 -15    8.27    3.32
  -3  -6  15   94.65    6.31
   3   6 -15  103.96    8.26
   2   6 -15   13.78    3.67
  -2  -6  15   10.35    2.75
   1   6 -15    3.79    2.46
  -1  -6  15    0.39    1.65
   0  -6  15   25.25    3.60
   0   6 -15   16.20    3.44
   1  -6  15   59.21    5.00
   2  -6  15    4.85    2.28
   3  -6  15   22.10    3.56
   4  -6  15   25.58    3.85
   5  -6  15    0.73    1.62
   6  -6  15    2.66    2.22
   7  -6  15   -0.26    1.39
   7  -6  15    3.57    2.16
   8  -6  15    7.60    2.63
   8  -6  15    9.12    3.23
   9  -6  15   -0.81    1.68
   9  -6  15    1.27    1.60
  10  -6  15   33.78    4.74
  10  -6  15   29.29    4.45
  10   5 -15   -0.17    2.72
   9   5 -15   -3.26    2.77
   8   5 -15    3.49    3.45
  -7  -5  15    1.45    2.00
   7   5 -15    8.37    3.65
  -6  -5  15   44.84    4.63
   6   5 -15   41.26    6.13
   5   5 -15   -2.75    1.94
  -5  -5  15    1.18    1.54
  -4  -5  15  152.47    7.92
   4   5 -15  159.87   10.40
   3   5 -15    2.99    2.56
  -3  -5  15    1.52    1.72
   2   5 -15    3.74    2.77
  -2  -5  15    1.94    1.88
   1   5 -15    4.81    2.60
  -1  -5  15    0.34    1.66
   0  -5  15   25.04    3.56
   0   5 -15   23.56    3.97
  -1   5 -15   34.50    4.29
   1  -5  15   36.00    4.02
   2  -5  15  132.20    7.24
   3  -5  15   88.05    5.99
   4  -5  15    3.65    2.13
   5  -5  15   -0.44    1.24
   5  -5  15    1.73    1.86
   6  -5  15   11.02    3.02
   6  -5  15    7.33    2.43
   7  -5  15   32.04    4.55
   7  -5  15   45.97    4.81
   8  -5  15   -1.41    1.51
   8  -5  15    7.29    2.46
   9  -5  15   12.81    3.28
   9  -5  15   13.93    3.25
  10  -5  15    1.34    1.85
 -11   5 -15   -2.56    3.21
  11  -5  15    0.15    2.48
 -11   5 -15   -2.80    3.80
  10   4 -15   -2.47    1.69
   9   4 -15    4.31    3.50
   8   4 -15    5.41    3.57
   7   4 -15   93.41    8.71
  -7  -4  15   82.47    5.86
  -6  -4  15    0.14    1.64
   6   4 -15    2.75    2.54
  -5  -4  15   55.06    4.50
   4   4 -15    2.33    2.52
  -4  -4  15    3.25    1.81
  -3  -4  15    2.72    1.64
   3   4 -15    0.30    1.96
  -2  -4  15   -0.51    1.45
   2   4 -15    3.88    2.42
  -1  -4  15   74.23    5.14
   1   4 -15   78.27    6.21
   0  -4  15   32.20    3.78
   0   4 -15   41.01    4.42
  -1   4 -15    0.51    1.73
   1  -4  15    1.54    1.66
  -2   4 -15   44.01    4.15
   2  -4  15   46.00    4.32
   3  -4  15   47.90    4.58
   4  -4  15    3.42    2.06
   5  -4  15   -0.35    1.57
   5  -4  15    3.67    1.73
   6  -4  15   30.65    3.79
   6  -4  15   30.81    4.12
   7  -4  15   16.80    3.19
   7  -4  15   17.19    3.45
   8  -4  15    8.07    2.78
   8  -4  15    6.63    2.59
   9  -4  15    5.23    2.18
   9  -4  15    5.47    2.34
 -10   4 -15    1.25    2.59
  10  -4  15    3.97    2.48
 -10   4 -15    1.09    3.66
 -11   4 -15   -0.31    2.70
 -11   4 -15    1.55    3.26
  11  -4  15    0.15    1.99
  11   3 -15   20.15    6.41
  10   3 -15   -1.42    3.56
   9   3 -15    2.22    3.97
   8   3 -15   12.98    4.34
   7   3 -15    0.59    2.53
  -6  -3  15   10.97    2.42
   6   3 -15    3.05    3.03
   5   3 -15   -1.32    1.92
  -5  -3  15   -0.50    1.27
  -4  -3  15    1.23    1.60
   4   3 -15    2.80    2.30
  -3  -3  15    1.36    1.53
   3   3 -15    1.01    2.09
  -2  -3  15  136.23    6.68
   2   3 -15  129.26    7.94
   1   3 -15   -1.47    1.74
  -1  -3  15    1.91    1.66
   0  -3  15   63.91    4.53
   0   3 -15   71.51    5.33
   1  -3  15   -0.38    1.35
  -1   3 -15    0.86    1.53
   2  -3  15    4.70    1.94
  -2   3 -15    4.88    2.00
   3  -3  15    0.14    1.44
   4  -3  15  234.61    9.98
   5  -3  15   60.42    4.96
   6  -3  15   25.56    3.78
   7  -3  15    0.77    1.85
   7  -3  15    1.57    1.73
   8  -3  15    2.28    1.96
   8  -3  15   -0.35    1.45
   9  -3  15    9.59    2.91
 -10   3 -15    4.28    3.96
  10  -3  15    1.76    1.93
 -10   3 -15    5.58    4.27
 -11   3 -15    2.14    2.56
 -11   3 -15    0.34    2.60
  11  -3  15    2.48    2.41
  11   2 -15   21.58    5.44
  10   2 -15   11.18    4.40
   9   2 -15   64.46    7.66
   8   2 -15    2.98    3.02
   7   2 -15    2.54    2.80
   6   2 -15    7.78    3.47
  -4  -2  15   -1.41    1.17
   4   2 -15    1.79    2.21
   3   2 -15  120.57    7.84
  -3  -2  15  126.03    6.07
   2   2 -15    0.57    1.82
  -2  -2  15    0.59    1.28
  -1  -2  15   88.81    5.01
   1   2 -15   82.26    6.09
   0  -2  15    1.10    1.41
   0   2 -15   -0.27    1.51
   1  -2  15    1.68    1.48
  -1   2 -15   -1.00    1.47
   2  -2  15   40.79    3.82
  -2   2 -15   36.19    3.50
  -3   2 -15    2.27    1.43
   3  -2  15    2.36    1.66
   4  -2  15   24.50    3.37
   5  -2  15   18.47    3.23
   6  -2  15  119.35    7.08
   7  -2  15    5.99    2.51
   8  -2  15   48.95    5.01
  -9   2 -15    1.54    2.52
  -9   2 -15   -1.31    2.81
 -10   2 -15   19.92    4.77
 -10   2 -15   22.26    4.77
 -11   2 -15   -1.43    2.43
 -11   2 -15    0.19    3.37
 -12   2 -15    1.19    2.60
  11   1 -15    5.11    3.63
  10   1 -15    8.07    3.96
   9   1 -15   31.18    5.63
   8   1 -15    1.91    2.86
   7   1 -15    4.95    3.21
   6   1 -15    8.08    3.37
   5   1 -15   -1.15    1.92
   4   1 -15   37.57    4.89
  -4  -1  15   40.24    3.38
  -3  -1  15   -0.35    1.19
   3   1 -15    1.63    2.05
  -1  -1  15   -0.13    1.24
   1   1 -15    0.36    1.69
   1   1 -15    0.88    0.72
   0   1 -15   51.58    3.22
   0   1 -15   49.65    4.57
   0  -1  15   51.60    3.68
  -1   1 -15    3.67    1.85
   1  -1  15    4.04    1.73
  -2   1 -15  205.59    8.71
   2  -1  15  204.87    8.23
   3  -1  15   52.36    4.13
  -3   1 -15   62.81    4.04
  -4   1 -15    0.42    1.13
   4  -1  15    0.23    1.59
   5  -1  15    8.43    2.47
   6  -1  15  125.44    7.07
   7  -1  15    6.84    2.58
  -8   1 -15   63.14    6.66
  -8   1 -15   62.90    6.75
  -9   1 -15   30.30    5.44
  -9   1 -15   19.68    4.80
 -10   1 -15    0.96    2.31
 -10   1 -15   -2.56    2.33
 -11   1 -15   -2.88    2.69
 -11   1 -15   -2.15    2.19
 -12   1 -15    1.73    2.57
  11   0 -15   -1.82    2.32
  10   0 -15    4.60    2.59
   9   0 -15   17.11    4.53
   8   0 -15    2.57    2.94
   7   0 -15   33.37    5.33
   6   0 -15    1.33    2.41
   5   0 -15   38.49    5.24
   4   0 -15    6.58    2.74
  -3   0  15    1.57    1.33
   3   0 -15   -0.46    1.48
  -2   0  15    0.04    1.11
   2   0 -15   -1.22    1.40
   2   0 -15   -0.58    0.84
   1   0 -15   71.17    5.42
  -1   0  15   47.90    3.25
   1   0 -15   64.31    3.41
   0   0 -15    0.95    0.98
   0   0  15    1.70    1.24
   0   0 -15   -1.25    1.36
  -1   0 -15  154.76    7.67
   1   0  15  149.80    6.41
   2   0  15   19.49    2.57
   3   0  15   28.10    3.22
   4   0  15   13.31    2.58
   5   0  15   16.18    2.81
   6   0  15   31.85    3.80
  -7   0 -15  112.88    7.39
  -7   0 -15  100.70    7.07
  -8   0 -15  159.25    9.23
  -8   0 -15  133.67    8.51
  -9   0 -15    3.15    3.14
  -9   0 -15    5.55    3.09
 -10   0 -15   15.23    4.54
 -10   0 -15   31.30    5.46
 -11   0 -15   -0.27    2.79
 -12   0 -15    1.38    2.01
  11  -1 -15    2.50    2.14
  10  -1 -15   -1.45    2.46
   9  -1 -15    0.05    2.17
   8  -1 -15   40.03    5.72
   7  -1 -15   12.98    3.76
   6  -1 -15  131.44    9.04
   5  -1 -15   58.75    5.86
   4  -1 -15    4.24    1.55
   4  -1 -15    6.04    2.88
   3  -1 -15   10.78    2.92
   3  -1 -15   10.84    1.84
  -2   1  15   41.80    2.84
   2  -1 -15   37.28    3.01
   2  -1 -15   41.12    4.53
  -1   1  15    3.12    1.29
   1  -1 -15    3.27    1.24
   1  -1 -15    2.38    2.00
   0   1  15  166.53    6.46
   0  -1 -15  169.38    6.82
   1   1  15    3.35    1.35
   2   1  15   10.32    2.07
   3   1  15    5.61    1.82
   4   1  15   35.35    3.56
  -6  -1 -15   18.49    3.32
  -6  -1 -15   20.49    3.79
  -7  -1 -15   12.81    3.15
  -7  -1 -15   22.49    4.10
  -8  -1 -15   59.54    6.13
  -8  -1 -15   60.00    6.03
  -9  -1 -15   46.11    5.85
  -9  -1 -15   50.72    5.77
 -10  -1 -15   16.58    4.50
 -11  -1 -15   24.32    4.87
 -12  -1 -15   -0.72    1.69
  10  -2 -15    2.09    2.70
   9  -2 -15   11.50    3.65
   8  -2 -15    5.85    2.87
   7  -2 -15    3.25    2.68
   6  -2 -15   76.84    4.90
   6  -2 -15   65.53    6.14
   5  -2 -15    2.76    1.60
   5  -2 -15   -3.26    1.49
   4  -2 -15   -0.22    1.96
   4  -2 -15   -0.20    1.27
   3  -2 -15   36.96    3.23
   3  -2 -15   37.80    4.69
   2  -2 -15    1.57    1.18
  -1   2  15  114.72    4.68
   1  -2 -15  121.90    5.69
   0   2  15    7.10    1.49
   0  -2 -15    8.30    1.79
   1   2  15   -0.30    1.00
  -1  -2 -15   -1.25    1.10
   2   2  15    0.26    0.95
   3   2  15   72.90    4.31
  -4  -2 -15   26.12    3.81
  -4  -2 -15   32.36    3.91
  -5  -2 -15   49.89    4.69
  -5  -2 -15   49.63    4.53
  -6  -2 -15    0.84    1.88
  -6  -2 -15    2.06    1.66
  -7  -2 -15    0.42    2.08
  -7  -2 -15    1.39    1.88
  -9  -2 -15   85.00    6.63
 -10  -2 -15   46.86    5.76
 -11  -2 -15   11.42    4.15
 -12  -2 -15    0.19    2.38
  10  -3 -15    4.46    2.87
   9  -3 -15   15.51    4.17
   8  -3 -15   13.78    4.01
   7  -3 -15   -0.43    1.49
   7  -3 -15    0.53    1.89
   6  -3 -15   42.08    4.08
   6  -3 -15   31.59    4.91
   5  -3 -15    6.68    2.94
   5  -3 -15    1.49    1.45
   4  -3 -15  365.85   15.64
   4  -3 -15  376.37   12.80
   3  -3 -15   21.28    2.80
   2  -3 -15    7.47    1.93
   1  -3 -15    3.13    1.37
   0  -3 -15   31.93    3.25
  -1  -3 -15    5.68    1.97
  -2  -3 -15   65.49    4.32
  -2  -3 -15   70.15    4.41
  -3  -3 -15    6.02    2.16
  -3  -3 -15    6.81    2.08
  -4  -3 -15    6.66    2.34
  -4  -3 -15   10.47    2.68
  -5  -3 -15    8.99    2.65
  -5  -3 -15    9.67    2.58
  -6  -3 -15   11.26    2.79
  -6  -3 -15    6.66    2.84
  -7  -3 -15   47.55    5.09
  -8  -3 -15   19.79    3.90
  -9  -3 -15   17.82    3.77
 -10  -3 -15    0.23    2.10
 -11  -3 -15   20.32    4.00
 -12  -3 -15    0.58    2.63
   9  -4 -15    2.88    2.11
   8  -4 -15    2.30    2.06
   8  -4 -15    5.07    2.49
   7  -4 -15   12.14    3.65
   7  -4 -15   18.45    3.24
   6  -4 -15    3.64    1.78
   6  -4 -15   -0.37    2.36
   5  -4 -15   31.81    3.48
   5  -4 -15   25.02    4.34
   4  -4 -15   99.29    5.76
   4  -4 -15   95.64    7.48
   3  -4 -15   40.76    3.72
   2  -4 -15   35.27    3.59
   1  -4 -15   18.41    2.62
   0  -4 -15    7.64    1.95
  -1  -4 -15  135.88    6.91
  -1  -4 -15  137.61    5.91
  -2  -4 -15    3.97    1.82
  -2  -4 -15    3.82    1.66
  -3  -4 -15   29.35    3.34
  -4  -4 -15    0.74    1.61
  -5  -4 -15   16.87    2.98
  -6  -4 -15    2.41    2.00
  -7  -4 -15   67.63    5.52
  -8  -4 -15   27.47    3.70
  -9  -4 -15    1.38    1.96
 -10  -4 -15   15.62    3.30
 -11  -4 -15   20.74    3.58
 -12  -4 -15    9.91    3.44
   9  -5 -15   14.32    3.28
   9  -5 -15   13.80    3.67
   8  -5 -15    7.55    2.80
   8  -5 -15    5.55    2.57
   7  -5 -15    8.36    3.01
   7  -5 -15    3.08    2.27
   6  -5 -15   15.61    3.86
   6  -5 -15   10.76    2.61
   5  -5 -15    7.07    2.21
   5  -5 -15    7.16    3.11
   4  -5 -15    4.57    1.87
   3  -5 -15   74.82    5.12
   2  -5 -15  213.91    9.09
   1  -5 -15   -0.74    1.06
   0  -5 -15   67.80    4.78
  -1  -5 -15    1.59    1.55
  -2  -5 -15    5.05    2.06
  -2  -5 -15    2.37    1.37
  -3  -5 -15    3.27    1.77
  -4  -5 -15   24.13    3.30
  -5  -5 -15    0.91    1.36
  -6  -5 -15   11.91    2.79
  -7  -5 -15   22.89    3.31
  -8  -5 -15   13.25    2.60
  -9  -5 -15    6.16    2.41
 -10  -5 -15    1.99    1.81
 -11  -5 -15    3.91    2.11
  10  -6 -15    2.83    3.23
   9  -6 -15    5.98    3.04
   8  -6 -15   17.63    3.52
   8  -6 -15   22.25    4.35
   7  -6 -15    3.54    2.28
   7  -6 -15    1.29    1.82
   6  -6 -15    9.20    2.58
   6  -6 -15   10.22    3.36
   5  -6 -15   -0.18    1.24
   4  -6 -15   17.41    3.07
   3  -6 -15    4.61    1.90
   2  -6 -15    5.45    2.08
   1  -6 -15  139.43    7.15
   0  -6 -15   26.11    3.54
  -1  -6 -15    0.35    1.34
  -2  -6 -15    4.75    2.19
  -2  -6 -15    6.72    1.83
  -3  -6 -15    6.42    2.02
  -3  -6 -15    7.78    2.56
  -4  -6 -15   -0.27    1.54
  -5  -6 -15   25.71    3.49
  -6  -6 -15    1.69    1.74
  -7  -6 -15   12.47    2.95
  -8  -6 -15    0.51    1.58
 -11  -6 -15    0.57    1.90
 -12  -6 -15    3.96    2.04
   9  -7 -15   16.60    3.66
   8  -7 -15    5.68    2.46
   7  -7 -15    6.78    2.58
   7  -7 -15    3.44    2.20
   6  -7 -15    4.16    2.05
   6  -7 -15    4.86    2.29
   5  -7 -15    1.34    1.69
   4  -7 -15    2.40    1.92
   3  -7 -15   23.16    3.52
   2  -7 -15   12.08    2.69
   1  -7 -15  124.67    7.00
   0  -7 -15   23.63    3.36
  -1  -7 -15    1.70    1.53
  -2  -7 -15   66.41    5.26
  -3  -7 -15   -0.21    1.31
  -3  -7 -15    1.59    1.61
  -4  -7 -15   82.40    6.27
  -4  -7 -15   91.09    5.63
  -5  -7 -15    2.01    1.60
  -6  -7 -15    0.20    1.48
  -7  -7 -15   -0.84    1.26
  -8  -7 -15    5.01    2.22
  -9  -7 -15    9.01    2.67
 -10  -7 -15   16.51    3.15
 -11  -7 -15    1.42    1.85
 -12  -7 -15   -1.41    1.77
   8  -8 -15    3.00    1.92
   6  -8 -15    7.89    2.46
   5  -8 -15   25.38    3.85
   4  -8 -15    9.69    2.74
   3  -8 -15   15.55    3.06
   2  -8 -15    8.34    2.51
   1  -8 -15    4.13    2.02
   0  -8 -15   29.88    3.83
  -1  -8 -15  279.57   11.93
  -2  -8 -15    5.73    2.33
  -3  -8 -15   37.06    4.50
  -4  -8 -15    1.44    2.18
  -4  -8 -15    1.28    1.44
  -5  -8 -15   15.70    2.72
  -5  -8 -15   12.25    3.44
  -6  -8 -15    2.51    1.67
  -7  -8 -15   23.25    3.78
  -8  -8 -15   11.72    3.06
  -9  -8 -15    6.05    2.57
 -10  -8 -15    1.97    1.85
 -11  -8 -15    1.04    1.87
   7  -9 -15    7.27    2.79
   6  -9 -15   -0.31    1.63
   5  -9 -15    7.19    2.51
   4  -9 -15    1.53    1.58
   3  -9 -15    0.50    1.83
   2  -9 -15   11.71    2.93
   1  -9 -15    1.32    1.69
   0  -9 -15   33.05    4.18
  -1  -9 -15   74.56    5.77
  -2  -9 -15   12.02    2.94
  -3  -9 -15    9.09    2.95
  -4  -9 -15    3.59    2.33
  -5  -9 -15    2.00    1.34
  -5  -9 -15    0.93    1.91
  -6  -9 -15   57.56    6.13
  -6  -9 -15   57.75    4.89
  -7  -9 -15    2.96    1.77
  -8  -9 -15   12.74    3.26
  -9  -9 -15    2.10    1.88
 -11  -9 -15    3.59    2.48
   6 -10 -15    6.77    2.76
   5 -10 -15    1.05    1.67
   4 -10 -15   -1.36    1.38
   3 -10 -15   18.06    3.39
   2 -10 -15   14.55    3.18
   1 -10 -15   19.55    3.56
   0 -10 -15    1.11    1.77
  -1 -10 -15    2.44    2.19
  -2 -10 -15   49.65    5.44
  -3 -10 -15   89.88    6.55
  -4 -10 -15   13.78    3.43
  -5 -10 -15   33.72    4.83
  -6 -10 -15    0.47    1.38
  -6 -10 -15    2.11    2.46
  -7 -10 -15   15.71    4.02
  -7 -10 -15   12.75    2.92
  -8 -10 -15    0.43    1.77
  -9 -10 -15    6.77    2.43
 -10 -10 -15    4.03    2.18
 -11 -10 -15    2.64    1.79
   5 -11 -15   -0.33    1.39
   4 -11 -15    2.19    1.71
   3 -11 -15    5.73    2.17
   2 -11 -15    9.12    2.79
   1 -11 -15   13.05    3.27
   0 -11 -15    2.36    2.12
  -1 -11 -15    0.31    1.79
  -2 -11 -15    5.33    2.65
  -3 -11 -15   13.46    3.33
  -4 -11 -15   58.68    5.93
  -5 -11 -15    8.81    3.17
  -6 -11 -15    2.97    2.65
  -7 -11 -15    3.65    2.18
  -7 -11 -15    0.99    2.48
  -8 -11 -15    6.55    3.50
  -8 -11 -15    4.83    1.98
  -9 -11 -15    4.07    2.96
  -9 -11 -15    1.47    1.79
 -10 -11 -15    6.46    2.49
   4 -12 -15    6.28    2.55
   3 -12 -15    4.21    2.55
   2 -12 -15   -0.60    1.58
   1 -12 -15    0.36    1.85
   0 -12 -15   -0.58    1.90
  -1 -12 -15   10.31    3.32
  -2 -12 -15    2.15    2.11
  -3 -12 -15    2.39    2.08
  -4 -12 -15   35.77    5.00
  -5 -12 -15    1.27    2.02
  -6 -12 -15    0.06    2.31
  -7 -12 -15   13.61    3.88
  -8 -12 -15    2.26    2.74
  -8 -12 -15    1.07    1.69
  -9 -12 -15   13.25    3.15
  -9 -12 -15   11.57    3.85
 -10 -12 -15    3.75    2.03
   2 -13 -15   -0.27    1.35
   1 -13 -15    0.98    1.44
   0 -13 -15   -0.83    1.22
  -1 -13 -15    2.77    2.30
  -2 -13 -15    0.72    2.12
  -3 -13 -15    4.81    2.77
  -4 -13 -15    0.06    2.06
  -5 -13 -15   -0.86    1.98
  -7 -13 -15    2.93    2.73
  -8 -13 -15   15.02    4.64
  -1 -14 -15   -0.34    1.62
  -2 -14 -15    1.12    1.57
  -3 -14 -15    1.91    1.60
  -4 -14 -15    0.14    2.19
  -5 -14 -15    6.62    3.36
  -6 -14 -15   14.16    4.42
  -4 -11  16   -0.14    2.20
  -3 -11  16    1.08    1.83
  -2 -11  16    1.48    1.92
  -1 -11  16    0.93    1.72
   0 -11  16    3.35    2.40
   1 -11  16   11.96    2.98
   2 -11  16   11.11    3.19
   3 -11  16    7.24    2.72
   6  10 -16    5.53    3.26
  -6 -10  16   -0.45    1.87
  -5 -10  16    0.92    1.36
   5  10 -16    5.58    3.37
  -4 -10  16   -0.46    1.63
  -3 -10  16    3.26    2.82
  -2 -10  16    5.63    2.97
  -1 -10  16    2.52    2.47
   0 -10  16    2.65    2.46
   1 -10  16   12.52    3.14
   2 -10  16   18.51    3.86
   3 -10  16   24.38    4.19
   4 -10  16    8.17    3.10
   5 -10  16    9.32    2.88
  -8  -9  16    9.67    3.93
  -7  -9  16   22.45    4.18
   7   9 -16   27.21    5.87
   6   9 -16    4.04    3.01
  -6  -9  16    5.41    2.60
  -5  -9  16    7.21    3.40
   5   9 -16    6.06    3.34
   4   9 -16    0.41    2.40
  -4  -9  16    0.61    2.13
  -3  -9  16    7.30    2.71
   3   9 -16    7.45    3.73
   2   9 -16    1.27    2.43
  -2  -9  16    8.93    3.23
  -1  -9  16   -0.64    2.00
   0  -9  16   15.31    3.63
   1  -9  16    5.59    2.22
   2  -9  16   36.96    4.89
   3  -9  16    3.19    2.33
   4  -9  16    2.23    1.96
   5  -9  16    2.26    1.89
   6  -9  16   16.20    3.74
   7  -9  16   -1.98    1.64
  -9  -8  16   19.26    4.47
   8   8 -16   24.26    5.58
  -8  -8  16   24.92    4.43
  -7  -8  16    5.14    2.61
   7   8 -16   10.84    4.07
   6   8 -16   42.04    6.58
  -6  -8  16   30.60    4.66
  -5  -8  16   -2.02    1.77
   5   8 -16    2.98    2.86
   4   8 -16    5.45    3.42
  -4  -8  16    3.89    2.64
   3   8 -16    3.20    2.70
  -3  -8  16   -0.21    1.94
   2   8 -16   17.25    4.21
  -2  -8  16   16.64    3.62
  -1  -8  16   26.31    4.37
   1   8 -16   18.19    3.97
   0  -8  16   12.42    3.36
   1  -8  16    2.63    1.99
   2  -8  16    6.94    2.79
   3  -8  16    1.07    1.82
   4  -8  16   18.71    3.69
   5  -8  16   16.14    3.47
   6  -8  16    9.24    2.83
   7  -8  16   27.06    4.18
   8  -8  16    2.33    2.05
  -8  -7  16    1.15    2.14
   8   7 -16    0.84    2.63
   7   7 -16  111.40    9.99
  -7  -7  16  111.53    7.84
  -6  -7  16    4.39    2.35
   6   7 -16    6.36    3.04
  -5  -7  16    0.95    2.05
   5   7 -16    3.66    3.03
  -4  -7  16   32.32    4.30
   4   7 -16   22.99    5.09
  -3  -7  16    6.22    2.54
   3   7 -16   12.23    3.67
   2   7 -16    7.22    2.88
  -2  -7  16    7.86    2.89
  -1  -7  16   22.78    3.89
   1   7 -16   31.23    4.73
   0  -7  16   59.00    5.29
   1  -7  16    1.69    1.91
   2  -7  16   12.06    3.17
   3  -7  16   -0.82    1.34
   4  -7  16   21.22    3.77
   5  -7  16   11.43    3.15
   6  -7  16   27.72    4.28
   7  -7  16    9.21    2.90
   8  -7  16    2.87    2.00
   9  -7  16    9.98    2.98
   9   6 -16    2.05    2.64
   8   6 -16    1.42    3.18
  -7  -6  16   15.49    3.48
   7   6 -16   18.55    5.24
   6   6 -16    4.57    3.02
  -6  -6  16    2.74    2.02
  -5  -6  16   17.57    3.29
   5   6 -16   21.84    4.90
   4   6 -16   68.85    7.28
  -4  -6  16   59.84    5.19
  -3  -6  16   16.42    3.19
   3   6 -16   14.42    3.92
   2   6 -16   30.40    4.94
  -2  -6  16   30.95    4.05
  -1  -6  16    1.66    1.89
   1   6 -16    2.47    2.41
   0  -6  16    2.42    2.11
   0   6 -16    4.19    2.51
   1  -6  16    2.31    1.97
   2  -6  16    9.61    2.79
   3  -6  16    7.56    2.72
   4  -6  16   20.09    3.56
   5  -6  16   22.94    3.88
   6  -6  16    7.57    2.67
   7  -6  16    8.72    2.99
   8  -6  16    2.62    2.00
   8  -6  16    4.55    2.13
   9  -6  16   27.46    4.34
   9  -6  16   37.08    5.00
  10  -6  16    5.67    2.66
  10  -6  16    1.43    2.21
   9   5 -16   -1.03    2.12
   8   5 -16   -1.67    2.45
  -7  -5  16    6.19    2.50
   7   5 -16    6.51    3.33
  -6  -5  16   16.97    3.15
   6   5 -16   15.80    4.34
   5   5 -16  145.99   10.40
  -5  -5  16  143.57    7.81
   4   5 -16   -1.40    2.18
  -4  -5  16   -1.80    1.50
  -3  -5  16   59.34    4.90
   3   5 -16   58.45    6.26
   2   5 -16    5.73    2.89
  -2  -5  16    7.45    2.49
   1   5 -16    5.52    2.77
  -1  -5  16    7.16    2.53
   0  -5  16   16.08    3.16
   0   5 -16   13.10    3.24
   1  -5  16    8.31    2.54
  -1   5 -16    8.21    2.83
   2  -5  16   79.49    5.71
   3  -5  16   15.06    3.14
   4  -5  16    6.36    2.58
   5  -5  16    0.35    1.79
   6  -5  16   -1.17    1.57
   6  -5  16   -1.56    1.40
   7  -5  16   16.61    3.23
   7  -5  16    8.74    2.86
   8  -5  16   71.69    6.08
   8  -5  16   70.89    5.87
   9  -5  16    7.79    2.74
   9  -5  16    6.02    2.57
  10  -5  16    2.08    1.98
  10   4 -16   -2.07    2.86
   9   4 -16   -5.77    2.41
   8   4 -16    6.41    3.39
   7   4 -16    2.41    3.44
   6   4 -16   25.72    5.18
  -6  -4  16   27.64    3.67
  -5  -4  16    4.04    2.10
   5   4 -16    5.42    3.12
   4   4 -16  124.40    9.04
  -4  -4  16  129.29    7.01
   3   4 -16   -0.49    2.00
  -3  -4  16    0.03    1.48
   2   4 -16    4.71    2.64
  -2  -4  16   13.37    2.66
   1   4 -16   34.96    4.63
  -1  -4  16   33.65    3.76
   0  -4  16  158.06    7.67
   0   4 -16  136.56    8.19
   1  -4  16   -0.31    1.46
  -1   4 -16    1.24    1.84
   2  -4  16    1.92    1.82
   3  -4  16   16.12    3.06
   4  -4  16   18.62    3.34
   5  -4  16    2.69    2.18
   6  -4  16   10.30    3.02
   7  -4  16    8.76    2.92
   7  -4  16   14.35    2.95
   8  -4  16   -0.31    1.51
   8  -4  16   -1.12    1.86
   9  -4  16    0.77    1.68
   9  -4  16    2.37    1.78
  10  -4  16    9.06    2.88
 -10   4 -16    3.01    3.47
 -10   4 -16    2.19    2.43
 -11   4 -16    0.05    3.09
  11  -4  16   14.86    3.74
 -11   4 -16    0.27    3.67
  10   3 -16    0.99    2.55
   9   3 -16    3.82    3.41
   8   3 -16    3.75    3.27
   7   3 -16   64.35    7.48
   6   3 -16    5.72    2.95
   5   3 -16   12.80    3.56
  -5  -3  16   17.59    2.88
  -4  -3  16    6.57    2.00
   4   3 -16    2.08    2.50
   3   3 -16   72.02    6.30
  -3  -3  16   71.80    4.80
   2   3 -16   11.97    3.08
  -2  -3  16    7.49    2.19
   1   3 -16  145.73    8.29
  -1  -3  16  134.05    6.75
   0   3 -16    6.06    2.39
   0  -3  16   12.95    2.50
  -1   3 -16   40.92    4.16
   1  -3  16   42.76    3.83
  -2   3 -16   -0.06    1.25
   2  -3  16    0.34    1.60
   3  -3  16    1.37    1.51
   4  -3  16   41.23    4.34
   5  -3  16   49.74    4.81
   6  -3  16   59.00    5.11
   7  -3  16    6.88    2.51
   8  -3  16    2.66    2.36
 -10   3 -16   16.17    4.86
 -10   3 -16    9.83    4.61
 -11   3 -16   -0.03    2.27
 -11   3 -16    1.19    2.23
  10   2 -16   -1.26    2.81
   9   2 -16    5.40    3.23
   8   2 -16   -0.06    2.43
   7   2 -16    4.49    3.24
   6   2 -16   16.93    4.31
   5   2 -16   34.23    4.99
   4   2 -16   61.07    6.06
  -4  -2  16   47.56    3.67
   3   2 -16    2.17    2.22
  -3  -2  16    1.46    1.53
  -2  -2  16  216.22    8.55
   2   2 -16  195.94   10.21
  -1  -2  16   23.62    3.07
   1   2 -16   28.52    3.96
   0   2 -16   14.51    3.11
   0  -2  16   21.46    2.83
   1  -2  16   48.65    3.85
  -1   2 -16   46.04    4.14
   2  -2  16   62.12    4.53
  -2   2 -16   64.83    4.74
  -3   2 -16    0.15    1.24
   3  -2  16    1.73    1.59
   4  -2  16   13.85    2.77
   5  -2  16   73.24    5.39
   6  -2  16   10.87    2.86
   7  -2  16    1.27    1.92
   8  -2  16   13.18    3.09
  -9   2 -16    5.08    3.84
  -9   2 -16    4.97    3.41
 -10   2 -16    3.86    3.41
 -10   2 -16    4.79    2.96
 -11   2 -16    0.21    2.37
 -11   2 -16    3.47    2.28
  11   1 -16    6.25    4.37
  10   1 -16    0.39    3.03
   9   1 -16   16.52    4.55
   8   1 -16    0.16    2.27
   7   1 -16    0.78    2.32
   6   1 -16    0.30    2.34
   5   1 -16   45.21    5.57
   4   1 -16   -1.56    1.79
   3   1 -16  178.93    9.70
  -3  -1  16  149.60    6.71
  -2  -1  16    0.00    0.60
   2   1 -16    1.40    1.96
   1   1 -16    3.77    1.98
  -1  -1  16    2.19    1.58
   0  -1  16    9.26    2.04
   0   1 -16    8.36    1.51
   0   1 -16   10.25    2.69
  -1   1 -16   71.95    5.29
   1  -1  16   73.18    4.65
  -2   1 -16   38.03    3.77
   2  -1  16   35.58    3.49
   3  -1  16   84.35    5.19
  -3   1 -16   79.85    4.99
   4  -1  16    4.99    2.17
   5  -1  16    2.86    1.86
   6  -1  16    2.67    1.91
   7  -1  16   25.38    3.76
  -8   1 -16   11.41    3.45
  -8   1 -16   14.03    3.98
  -9   1 -16   30.38    5.64
  -9   1 -16   23.97    5.06
 -10   1 -16   16.60    4.78
 -10   1 -16   13.88    3.97
 -11   1 -16   -0.31    3.26
 -11   1 -16    2.09    2.75
 -12   1 -16   -0.02    2.89
  11   0 -16   10.73    4.96
  10   0 -16   13.86    3.99
   9   0 -16   -0.06    2.55
   8   0 -16    3.19    2.63
   7   0 -16   -1.66    2.09
   6   0 -16   -0.70    2.18
   5   0 -16   -0.73    1.99
   4   0 -16  163.15    9.48
   3   0 -16    9.67    2.88
  -2   0  16   12.19    2.03
   2   0 -16    6.43    2.45
  -1   0  16    0.69    1.06
   1   0 -16    0.08    0.80
   1   0 -16   -1.35    1.32
   0   0 -16  216.62    7.92
   0   0 -16  224.70   10.16
   0   0  16  217.85    8.24
   1   0  16   40.93    3.29
  -1   0 -16   35.66    4.05
   2   0  16  158.00    6.99
   3   0  16    5.81    2.08
   4   0  16    3.78    1.90
   5   0  16   16.43    2.97
   6   0  16   13.98    2.94
  -7   0 -16  102.22    7.27
  -7   0 -16   88.35    6.77
  -8   0 -16    0.70    1.79
  -8   0 -16    2.16    2.40
  -9   0 -16   22.71    4.86
  -9   0 -16   23.67    4.97
 -10   0 -16   -1.76    2.89
 -10   0 -16    1.85    2.40
 -11   0 -16   -2.53    2.77
 -12   0 -16    1.30    2.25
  11  -1 -16   14.67    4.60
  10  -1 -16   -4.42    1.95
   9  -1 -16   22.72    4.96
   8  -1 -16    3.96    2.76
   7  -1 -16   46.16    5.95
   6  -1 -16   15.25    4.08
   5  -1 -16    0.22    2.07
   4  -1 -16   10.84    3.31
   3  -1 -16    6.11    2.62
   3  -1 -16    9.28    1.79
   2  -1 -16   18.83    3.61
   2  -1 -16   16.71    2.26
   1  -1 -16  274.26   12.34
   1  -1 -16  285.94    9.74
  -1   1  16  295.45    9.56
   0   1  16   12.11    1.92
   0  -1 -16    9.46    1.88
   1   1  16  173.85    7.00
   2   1  16    1.44    1.28
   3   1  16    0.42    1.53
   4   1  16   27.45    3.28
   5   1  16  100.23    5.90
  -6  -1 -16   49.82    5.31
  -6  -1 -16   46.67    5.07
  -7  -1 -16    5.00    2.30
  -7  -1 -16    3.28    2.63
  -8  -1 -16   39.87    5.29
  -8  -1 -16   47.56    5.48
  -9  -1 -16   17.25    4.17
  -9  -1 -16   14.43    4.04
 -10  -1 -16    1.35    3.02
 -11  -1 -16    3.09    3.32
 -12  -1 -16   -2.46    2.06
  11  -2 -16   -1.43    3.03
  10  -2 -16    5.56    3.00
   9  -2 -16   13.85    3.96
   8  -2 -16   18.33    4.30
   7  -2 -16    1.91    2.41
   6  -2 -16    1.08    1.90
   5  -2 -16   18.23    2.70
   5  -2 -16   19.76    4.21
   4  -2 -16    1.63    1.42
   4  -2 -16    1.85    2.11
   3  -2 -16    0.40    1.78
   3  -2 -16   -0.63    1.10
   2  -2 -16  183.01    7.49
   2  -2 -16  179.43    9.79
   1  -2 -16    3.21    1.52
   0  -2 -16   76.56    4.65
   0   2  16   77.36    4.00
  -1  -2 -16   -0.61    1.25
   1   2  16   -0.26    1.03
   2   2  16   81.23    4.48
   3   2  16    2.24    1.44
  -5  -2 -16    9.61    2.84
  -5  -2 -16   13.76    2.86
  -6  -2 -16   21.71    3.85
  -6  -2 -16   18.70    3.33
  -7  -2 -16    9.93    3.11
  -7  -2 -16   12.91    3.52
  -8  -2 -16    5.28    2.48
  -8  -2 -16    6.16    2.81
  -9  -2 -16   16.81    4.04
 -10  -2 -16   17.86    4.33
 -11  -2 -16   12.32    4.31
 -12  -2 -16   -0.30    2.13
  10  -3 -16    7.53    3.49
   9  -3 -16   10.65    3.58
   8  -3 -16   33.22    5.43
   7  -3 -16   -1.63    1.79
   6  -3 -16    6.03    2.00
   6  -3 -16    3.11    2.57
   5  -3 -16   46.78    5.80
   5  -3 -16   40.70    3.71
   4  -3 -16   24.37    3.03
   4  -3 -16   16.41    3.90
   3  -3 -16   -0.59    2.23
   3  -3 -16    2.12    1.52
   2  -3 -16    7.10    1.95
   1  -3 -16   18.64    2.65
   0  -3 -16   38.85    3.66
  -1  -3 -16  101.61    5.78
  -2  -3 -16   29.62    3.29
  -2  -3 -16   30.65    3.40
  -3  -3 -16  155.97    7.54
  -3  -3 -16  166.49    7.81
  -4  -3 -16   34.59    3.93
  -4  -3 -16   31.64    3.99
  -5  -3 -16   27.00    3.81
  -5  -3 -16   29.22    3.93
  -6  -3 -16   13.98    3.46
  -6  -3 -16   14.17    3.27
  -7  -3 -16   43.90    4.92
  -8  -3 -16   34.15    4.66
  -9  -3 -16    9.53    3.12
 -10  -3 -16   29.57    4.26
 -11  -3 -16    3.59    2.21
 -12  -3 -16   -1.83    1.89
   9  -4 -16    3.17    2.34
   8  -4 -16    5.37    2.57
   7  -4 -16    0.20    1.73
   7  -4 -16    1.37    2.29
   6  -4 -16   19.11    3.03
   6  -4 -16   13.72    3.95
   5  -4 -16   -0.63    1.24
   5  -4 -16   -0.53    1.78
   4  -4 -16   33.11    3.57
   4  -4 -16   31.93    4.95
   3  -4 -16   29.96    3.37
   2  -4 -16    1.16    1.17
   1  -4 -16   -0.51    1.15
   0  -4 -16   74.08    4.75
  -1  -4 -16    0.99    1.09
  -1  -4 -16    2.53    1.44
  -1  -4 -16   -0.78    1.26
  -2  -4 -16  178.17    7.49
  -2  -4 -16  178.87    8.54
  -2  -4 -16  161.93    7.33
  -3  -4 -16    0.71    1.47
  -4  -4 -16   12.34    2.84
  -5  -4 -16    1.96    1.72
  -6  -4 -16   12.99    3.06
  -7  -4 -16   17.28    3.51
  -8  -4 -16   11.06    2.88
  -9  -4 -16   11.98    2.68
 -10  -4 -16    2.03    2.20
 -12  -4 -16   17.03    3.42
   9  -5 -16    7.06    2.66
   8  -5 -16   11.06    3.19
   8  -5 -16    5.72    2.82
   7  -5 -16   18.43    3.43
   7  -5 -16   15.76    4.24
   6  -5 -16   25.61    3.66
   6  -5 -16   28.30    4.87
   5  -5 -16   48.04    4.38
   5  -5 -16   57.39    6.42
   4  -5 -16    3.83    1.78
   3  -5 -16    4.45    1.84
   2  -5 -16    0.85    1.25
   1  -5 -16    1.44    1.35
   0  -5 -16   -0.75    1.18
  -1  -5 -16  139.21    7.38
  -2  -5 -16   25.75    2.94
  -2  -5 -16   24.22    3.56
  -3  -5 -16    4.23    1.97
  -3  -5 -16    1.00    1.66
  -4  -5 -16   12.36    2.53
  -5  -5 -16   61.52    4.83
  -6  -5 -16   32.85    3.83
  -8  -5 -16    1.22    1.73
  -9  -5 -16    1.90    1.86
 -10  -5 -16   -0.47    1.43
 -11  -5 -16    6.42    2.20
 -12  -5 -16    3.32    2.24
   9  -6 -16   25.53    3.87
   8  -6 -16   15.48    3.39
   8  -6 -16   13.51    3.89
   7  -6 -16    7.22    2.67
   7  -6 -16    9.77    2.82
   6  -6 -16    3.80    2.18
   6  -6 -16    6.74    2.44
   5  -6 -16   -1.48    1.04
   4  -6 -16    3.57    1.91
   3  -6 -16    1.50    1.52
   2  -6 -16  162.54    8.08
   1  -6 -16    1.54    1.53
   0  -6 -16    6.48    2.30
  -1  -6 -16   39.55    4.18
  -2  -6 -16    5.07    2.18
  -3  -6 -16   11.05    3.03
  -3  -6 -16   11.44    2.49
  -4  -6 -16  125.27    6.75
  -5  -6 -16   13.54    2.74
  -6  -6 -16   70.79    5.39
  -7  -6 -16    8.11    2.56
  -8  -6 -16    4.43    2.11
  -9  -6 -16    6.06    2.13
 -10  -6 -16    6.59    2.21
 -12  -6 -16   -0.26    1.53
   9  -7 -16    6.37    3.22
   8  -7 -16   15.56    3.41
   7  -7 -16   20.32    4.37
   7  -7 -16   21.25    3.76
   6  -7 -16    2.14    1.80
   6  -7 -16    4.69    2.52
   5  -7 -16   18.16    3.26
   4  -7 -16    2.07    1.56
   3  -7 -16   36.95    4.29
   2  -7 -16   37.97    4.16
   1  -7 -16   25.18    3.48
   0  -7 -16   35.11    4.00
  -1  -7 -16    1.76    1.56
  -2  -7 -16    1.79    2.01
  -3  -7 -16  117.85    7.35
  -4  -7 -16    5.15    2.62
  -4  -7 -16    6.90    2.13
  -5  -7 -16  109.20    6.51
  -6  -7 -16    3.47    1.80
  -7  -7 -16   22.69    3.41
  -8  -7 -16   10.56    2.60
  -9  -7 -16   11.06    2.59
 -10  -7 -16    2.95    1.91
 -11  -7 -16   10.86    2.98
 -12  -7 -16   10.29    2.76
   8  -8 -16    0.46    1.64
   7  -8 -16    0.69    1.93
   7  -8 -16    3.22    2.07
   6  -8 -16    0.90    1.49
   6  -8 -16    6.29    2.68
   5  -8 -16   20.49    3.64
   4  -8 -16    9.41    2.80
   3  -8 -16    2.78    1.77
   2  -8 -16    7.28    2.42
   1  -8 -16   10.45    2.78
   0  -8 -16   46.28    4.64
  -1  -8 -16   -0.59    1.52
  -2  -8 -16   49.54    4.99
  -3  -8 -16   40.75    4.79
  -4  -8 -16    8.52    2.92
  -5  -8 -16   16.28    3.74
  -5  -8 -16   17.27    2.94
  -6  -8 -16   32.96    4.07
  -7  -8 -16    7.79    2.58
  -8  -8 -16   13.49    3.34
  -9  -8 -16   18.27    3.77
 -10  -8 -16    1.49    2.03
 -11  -8 -16    1.13    2.12
   7  -9 -16    3.83    2.08
   6  -9 -16   25.03    4.10
   5  -9 -16   24.02    3.96
   4  -9 -16   14.18    3.30
   3  -9 -16    1.45    1.52
   2  -9 -16    3.90    2.05
   1  -9 -16   34.22    4.42
   0  -9 -16    0.04    1.47
  -1  -9 -16   38.69    4.56
  -2  -9 -16   56.77    5.12
  -3  -9 -16    1.66    1.93
  -4  -9 -16    1.28    2.09
  -5  -9 -16   17.19    3.88
  -6  -9 -16    0.79    2.16
  -6  -9 -16    1.81    1.73
  -7  -9 -16  102.52    6.84
  -8  -9 -16   -1.33    1.51
  -9  -9 -16   -0.73    1.45
 -10  -9 -16    2.94    2.24
 -11  -9 -16    7.07    2.30
   6 -10 -16   14.15    3.30
   5 -10 -16    7.14    2.63
   4 -10 -16    5.74    2.50
   3 -10 -16    7.22    2.43
   2 -10 -16   10.77    2.89
   1 -10 -16    0.76    1.70
   0 -10 -16   36.25    4.62
  -1 -10 -16    3.73    2.27
  -2 -10 -16   -1.38    1.92
  -3 -10 -16    8.02    2.75
  -4 -10 -16   36.63    5.02
  -5 -10 -16    1.24    2.05
  -6 -10 -16   19.89    4.19
  -7 -10 -16    8.14    2.47
  -7 -10 -16    6.88    3.14
  -8 -10 -16    6.09    3.02
  -8 -10 -16    3.04    2.18
  -9 -10 -16    1.11    1.77
 -10 -10 -16    7.78    2.22
   5 -11 -16    4.38    2.68
   4 -11 -16    9.88    2.96
   3 -11 -16   21.82    3.81
   2 -11 -16   12.84    3.17
   1 -11 -16    5.26    2.28
   0 -11 -16   -0.54    1.69
  -1 -11 -16    7.14    2.64
  -2 -11 -16    8.72    2.97
  -3 -11 -16   21.20    3.97
  -4 -11 -16    4.08    2.45
  -5 -11 -16   30.19    4.78
  -6 -11 -16    4.91    2.84
  -7 -11 -16    0.46    1.93
  -8 -11 -16    1.33    2.51
  -8 -11 -16   -2.01    1.29
  -9 -11 -16   18.50    3.72
  -9 -11 -16    8.04    2.84
 -10 -11 -16   -0.34    1.37
   3 -12 -16   13.53    3.45
   2 -12 -16   14.68    3.44
   1 -12 -16   -0.41    1.86
   0 -12 -16    0.74    2.00
  -1 -12 -16    2.56    2.34
  -2 -12 -16   12.51    3.42
  -3 -12 -16    3.54    2.53
  -4 -12 -16   21.35    4.29
  -5 -12 -16   12.46    3.58
  -6 -12 -16    4.13    2.82
  -7 -12 -16    1.46    2.28
  -8 -12 -16   16.18    4.34
  -9 -12 -16    9.57    3.93
  -9 -12 -16    4.95    2.34
   1 -13 -16   -0.31    1.64
   0 -13 -16    1.23    1.50
  -1 -13 -16   -0.14    1.29
  -2 -13 -16    0.64    1.61
  -3 -13 -16   -1.76    1.22
  -4 -13 -16   -2.81    1.46
  -5 -13 -16    1.20    1.59
  -6 -13 -16    1.00    2.02
  -7 -13 -16   32.12    5.86
  -2 -14 -16    1.57    2.04
  -3 -14 -16    2.48    1.94
  -4 -14 -16   -1.39    1.47
  -2 -11  17    0.93    2.40
  -1 -11  17   -0.11    1.94
   0 -11  17    6.35    2.64
   1 -11  17   16.84    3.89
   6  10 -17    4.40    3.42
  -5 -10  17    1.16    2.10
   5  10 -17    2.87    2.57
  -4 -10  17    1.05    1.53
   4  10 -17   -2.89    2.38
  -3 -10  17    0.45    1.44
  -2 -10  17    0.73    2.23
  -1 -10  17   -0.52    2.12
   0 -10  17   -0.95    2.09
   1 -10  17    2.68    1.98
   2 -10  17   20.65    4.01
   3 -10  17   14.55    3.52
   4 -10  17   83.69    6.99
  -7  -9  17   15.28    4.12
   6   9 -17   -1.64    2.56
  -6  -9  17    0.39    1.81
  -5  -9  17    3.89    2.53
   5   9 -17    2.35    3.45
   4   9 -17    4.64    3.19
  -4  -9  17    1.64    2.26
   3   9 -17    6.49    3.52
  -3  -9  17    3.24    2.47
  -2  -9  17   28.08    4.82
  -1  -9  17   37.48    5.07
   0  -9  17   -1.96    1.95
   1  -9  17    6.93    2.93
   2  -9  17   11.81    3.27
   3  -9  17   48.87    5.41
   4  -9  17    6.24    2.54
   5  -9  17    2.04    2.02
   6  -9  17   23.88    4.39
  -8  -8  17    2.66    2.05
   7   8 -17   30.88    6.41
  -7  -8  17   26.06    4.42
  -6  -8  17    7.82    2.87
   6   8 -17   14.97    4.83
  -5  -8  17   16.48    3.85
   5   8 -17   11.42    3.80
  -4  -8  17    1.11    1.98
   4   8 -17   -0.16    2.13
  -3  -8  17    0.28    1.93
   3   8 -17    3.28    2.64
   2   8 -17    0.63    2.18
  -2  -8  17    4.62    2.67
  -1  -8  17   30.68    4.49
   0  -8  17   56.92    5.93
   1  -8  17   18.65    3.69
   2  -8  17    0.91    2.27
   3  -8  17    4.46    2.35
   4  -8  17    2.15    1.93
   5  -8  17   19.21    3.92
   6  -8  17   78.47    6.54
   7  -8  17   -0.57    1.74
  -8  -7  17    7.23    2.88
   8   7 -17   11.15    3.77
   7   7 -17   -2.21    2.33
  -7  -7  17   -0.01    1.95
   6   7 -17    9.64    3.95
  -6  -7  17    9.20    3.11
  -5  -7  17    6.02    2.95
   5   7 -17    6.36    3.48
  -4  -7  17    6.72    2.57
   4   7 -17    2.55    3.02
   3   7 -17    3.00    2.56
  -3  -7  17    4.29    2.25
   2   7 -17    2.58    2.46
  -2  -7  17    0.26    1.70
  -1  -7  17    6.78    2.84
   1   7 -17    7.32    2.91
   0  -7  17   96.44    6.93
   1  -7  17    3.36    2.07
   2  -7  17    9.09    2.95
   3  -7  17    0.14    1.95
   4  -7  17    3.60    2.15
   5  -7  17   39.22    4.89
   6  -7  17    3.01    2.11
   7  -7  17   23.54    4.08
   8  -7  17    7.76    2.87
   8   6 -17    2.29    3.36
  -7  -6  17   16.37    3.44
   7   6 -17   10.51    4.00
   6   6 -17    8.46    3.65
  -6  -6  17    1.12    2.00
  -5  -6  17   23.00    3.84
   5   6 -17   22.07    4.96
  -4  -6  17   27.11    3.97
   4   6 -17   29.75    5.21
  -3  -6  17   22.38    3.64
   3   6 -17   13.00    3.93
  -2  -6  17    0.76    2.03
   2   6 -17    2.67    2.38
   1   6 -17   26.48    4.41
  -1  -6  17   28.56    4.01
   0   6 -17    4.73    2.18
   0  -6  17    1.60    1.91
   1  -6  17    2.70    2.06
   2  -6  17   61.38    5.29
   3  -6  17   10.81    3.11
   4  -6  17   25.96    4.12
   5  -6  17   12.31    3.33
   6  -6  17    9.13    3.03
   7  -6  17   11.12    3.27
   8  -6  17   18.72    3.99
   9  -6  17    7.10    2.96
  10  -6  17    2.50    2.62
   9   5 -17   -0.54    2.69
   8   5 -17   -1.65    2.70
   7   5 -17    7.77    3.47
  -6  -5  17    9.23    2.82
   6   5 -17   12.55    4.06
  -5  -5  17    2.51    1.92
   5   5 -17    3.83    2.73
   4   5 -17   70.04    7.40
  -4  -5  17   81.71    5.80
   3   5 -17    7.56    3.07
  -3  -5  17    7.65    2.40
   2   5 -17    6.49    2.77
  -2  -5  17   10.03    2.74
  -1  -5  17   -1.10    1.57
   1   5 -17   -1.06    1.72
   0  -5  17    2.81    1.87
   0   5 -17    1.61    2.21
   1  -5  17    0.80    1.69
   2  -5  17  109.74    6.73
   3  -5  17   14.58    3.11
   4  -5  17   25.98    3.91
   5  -5  17    1.23    2.15
   6  -5  17    2.92    2.17
   7  -5  17    8.97    2.65
   7  -5  17    9.21    2.96
   8  -5  17   17.43    3.38
   8  -5  17   16.70    3.72
   9  -5  17   68.43    6.23
   9  -5  17   76.77    6.36
  10  -5  17   13.22    3.25
   9   4 -17   -4.47    1.54
   8   4 -17    0.98    3.32
   7   4 -17    6.75    3.29
   6   4 -17    4.33    2.91
   5   4 -17   36.17    5.65
  -5  -4  17   37.66    4.19
   4   4 -17    0.35    2.16
  -4  -4  17    0.60    1.56
  -3  -4  17   46.39    4.28
   3   4 -17   45.28    5.59
  -2  -4  17   87.80    5.71
   2   4 -17   88.93    7.16
   1   4 -17    8.39    3.01
  -1  -4  17   11.86    2.70
   0   4 -17   -1.50    1.60
   0  -4  17    0.89    1.47
   1  -4  17   16.60    3.07
  -1   4 -17   21.49    3.48
   2  -4  17    2.69    1.85
   3  -4  17   34.07    4.06
   4  -4  17   11.37    2.91
   5  -4  17    0.06    1.73
   6  -4  17   44.26    5.04
   7  -4  17   10.89    3.24
   8  -4  17   57.77    5.91
   9  -4  17    0.81    1.82
 -10   4 -17   -5.52    2.28
 -10   4 -17   -1.59    2.30
  10   3 -17    2.09    3.38
   9   3 -17   -1.13    3.19
   8   3 -17    4.24    3.51
   7   3 -17   -1.78    2.35
   6   3 -17   21.90    4.59
   5   3 -17   18.48    4.32
  -5  -3  17   21.95    3.15
   4   3 -17    6.58    3.15
  -4  -3  17    8.18    2.24
   3   3 -17   -0.03    1.95
  -3  -3  17    1.68    1.69
  -2  -3  17   81.07    5.22
   2   3 -17   80.89    6.47
   1   3 -17   45.36    4.86
  -1  -3  17   46.25    4.11
   0   3 -17   31.56    3.96
   0  -3  17   34.63    3.72
   1  -3  17    5.64    2.00
  -1   3 -17    7.91    2.51
   2  -3  17    2.58    1.79
  -2   3 -17    2.10    1.85
   3  -3  17    1.52    1.60
   4  -3  17   21.40    3.46
   5  -3  17   29.09    3.97
   6  -3  17    2.86    2.28
   7  -3  17   15.03    3.41
   8  -3  17    0.65    1.80
 -10   3 -17    0.19    3.34
 -10   3 -17   -1.50    3.35
 -11   3 -17    0.05    2.90
 -11   3 -17   -0.10    3.07
  10   2 -17   -0.81    3.12
   9   2 -17   14.86    4.81
   8   2 -17    8.73    3.48
   7   2 -17    0.33    2.47
   6   2 -17    0.44    2.51
   5   2 -17    1.21    2.22
   3   2 -17  119.93    8.04
  -3  -2  17  106.16    5.86
   2   2 -17    4.66    2.46
  -2  -2  17    2.16    1.59
   1   2 -17  236.08   11.18
  -1  -2  17  234.98    9.34
   0   2 -17   73.33    5.74
   0  -2  17   71.39    4.80
   1  -2  17    2.59    1.73
  -1   2 -17   -0.03    1.87
   2  -2  17   -0.49    1.31
  -2   2 -17    0.72    1.52
   3  -2  17    2.82    1.86
   4  -2  17    4.76    2.27
   5  -2  17   56.26    4.85
   6  -2  17   18.49    3.48
   7  -2  17    7.88    2.83
   8  -2  17    3.23    2.08
  -9   2 -17    2.52    3.21
  -9   2 -17    1.80    3.33
 -10   2 -17   27.48    5.81
 -10   2 -17   26.52    5.46
 -11   2 -17    0.65    2.20
 -11   2 -17   -0.60    2.29
  10   1 -17    8.79    3.93
   9   1 -17   12.99    4.17
   8   1 -17   59.44    7.42
   7   1 -17    1.00    2.51
   6   1 -17    6.52    3.20
   5   1 -17    0.85    1.98
   4   1 -17   45.05    5.53
   3   1 -17    6.33    2.82
  -3  -1  17    3.45    1.73
  -1  -1  17    2.15    1.56
   1   1 -17    3.31    2.08
   0   1 -17    4.26    2.09
   0  -1  17    3.00    1.61
   1  -1  17   96.85    5.39
  -1   1 -17   93.91    6.20
  -2   1 -17   56.65    4.60
   2  -1  17   59.82    4.30
   3  -1  17   28.81    3.45
  -3   1 -17   30.91    3.43
   4  -1  17    3.14    1.98
   5  -1  17    7.62    2.50
   6  -1  17    0.29    1.76
   7  -1  17   15.25    3.24
  -8   1 -17   -0.56    1.92
  -8   1 -17   -0.50    2.07
  -9   1 -17   29.90    5.58
  -9   1 -17   29.35    5.55
 -10   1 -17   17.66    4.99
 -10   1 -17   13.02    4.36
 -11   1 -17    0.85    2.15
 -11   1 -17    0.75    1.92
  10   0 -17    0.39    2.06
   9   0 -17   -6.11    2.54
   8   0 -17   21.86    4.90
   7   0 -17    1.26    2.91
   6   0 -17   17.75    4.28
   5   0 -17    4.66    3.14
   4   0 -17    3.12    2.43
   3   0 -17    0.51    2.02
  -2   0  17   97.29    4.87
   2   0 -17   82.41    6.45
   1   0 -17   51.98    5.03
  -1   0  17   62.14    3.82
   0   0 -17    4.33    2.33
   0   0 -17    5.38    1.48
   0   0  17    7.12    1.80
   1   0  17  177.18    7.40
  -1   0 -17  169.36    8.67
  -2   0 -17    1.73    1.62
   2   0  17    0.58    1.31
   3   0  17   80.05    5.09
   4   0  17    3.97    2.05
   5   0  17    6.14    2.39
   6   0  17    0.57    1.72
  -7   0 -17   46.62    5.44
  -7   0 -17   49.85    5.63
  -8   0 -17   31.76    5.06
  -8   0 -17   32.60    4.89
  -9   0 -17   25.84    4.94
  -9   0 -17   21.76    4.73
 -10   0 -17    2.75    3.39
 -10   0 -17    5.61    3.32
 -11   0 -17   -2.51    2.52
 -12   0 -17   -0.24    2.60
  10  -1 -17    1.83    2.69
   9  -1 -17   10.42    3.87
   8  -1 -17    7.74    3.38
   7  -1 -17   28.98    5.08
   6  -1 -17   75.29    7.41
   5  -1 -17    1.53    2.50
   4  -1 -17    1.17    1.92
   3  -1 -17    1.50    2.01
   2  -1 -17   34.22    3.05
   2  -1 -17   31.85    4.39
   1  -1 -17   25.99    4.09
  -1   1  17   30.93    2.72
   1  -1 -17   25.92    2.74
   0   1  17  216.48    8.08
   0  -1 -17  212.88    8.33
   0  -1 -17  228.17   10.62
  -1  -1 -17   22.36    2.92
   1   1  17   18.42    2.30
   2   1  17   83.75    4.90
   3   1  17   40.89    3.62
   4   1  17   -0.47    1.53
   5   1  17   16.43    2.85
  -6  -1 -17    1.33    1.99
  -6  -1 -17    3.12    2.31
  -7  -1 -17    0.62    2.25
  -7  -1 -17   -0.51    1.69
  -8  -1 -17    0.88    2.23
  -8  -1 -17    2.64    2.16
  -9  -1 -17    4.16    2.65
  -9  -1 -17    2.40    2.28
 -10  -1 -17    3.14    2.59
 -11  -1 -17   -1.51    3.07
 -12  -1 -17   -0.32    2.99
  10  -2 -17   -1.40    2.19
   9  -2 -17   11.33    3.67
   8  -2 -17    9.02    3.21
   7  -2 -17   10.31    3.59
   6  -2 -17    1.19    2.22
   5  -2 -17   26.89    4.72
   4  -2 -17    3.73    2.75
   4  -2 -17    4.59    1.75
   3  -2 -17    2.72    1.97
   3  -2 -17    2.47    1.52
   2  -2 -17    3.71    1.65
   2  -2 -17    5.64    2.83
   1  -2 -17   35.74    3.31
   0   2  17   26.34    2.62
   0  -2 -17   31.00    3.21
   1   2  17   44.33    3.34
  -1  -2 -17   42.77    4.07
   2   2  17    0.23    1.15
   3   2  17  109.63    5.64
  -5  -2 -17  101.00    6.57
  -5  -2 -17  105.87    6.59
  -6  -2 -17   17.26    3.67
  -6  -2 -17   15.34    3.20
  -7  -2 -17    4.29    2.52
  -7  -2 -17    3.50    2.49
  -8  -2 -17    2.69    2.19
  -8  -2 -17   -0.58    1.98
  -9  -2 -17   17.19    4.00
 -10  -2 -17    8.85    2.99
 -11  -2 -17   16.26    3.89
 -12  -2 -17    2.32    2.74
  10  -3 -17   29.62    5.52
   9  -3 -17    7.22    3.29
   8  -3 -17    9.33    4.06
   7  -3 -17   -2.60    1.99
   6  -3 -17    2.04    2.21
   5  -3 -17   26.21    4.85
   5  -3 -17   22.12    2.99
   4  -3 -17   85.60    7.25
   4  -3 -17   81.58    5.15
   3  -3 -17   -1.12    2.30
   3  -3 -17   -0.91    1.00
   2  -3 -17    6.60    1.99
   1  -3 -17    0.58    1.26
   0  -3 -17    1.36    1.33
  -1  -3 -17   45.66    4.08
  -2  -3 -17  186.47    8.72
  -2  -3 -17  180.81    8.06
  -2  -3 -17  188.58    8.15
  -3  -3 -17   36.22    4.10
  -3  -3 -17   28.92    3.61
  -4  -3 -17  270.56   11.28
  -4  -3 -17  282.63   11.21
  -5  -3 -17    4.17    1.95
  -5  -3 -17   -0.19    1.63
  -6  -3 -17   62.19    5.30
  -6  -3 -17   78.70    5.85
  -7  -3 -17    5.39    2.59
  -8  -3 -17    1.25    1.94
  -9  -3 -17    5.37    2.77
 -10  -3 -17    2.34    1.90
 -12  -3 -17    3.58    2.09
   9  -4 -17    6.47    3.37
   8  -4 -17   10.65    3.20
   7  -4 -17    4.68    2.48
   6  -4 -17    5.45    2.14
   6  -4 -17    3.60    2.65
   5  -4 -17    7.15    3.07
   5  -4 -17    9.23    2.28
   4  -4 -17   10.99    3.55
   4  -4 -17    6.12    1.95
   3  -4 -17   76.09    5.04
   2  -4 -17    1.57    1.49
   1  -4 -17   -0.10    1.21
   0  -4 -17    0.58    1.19
  -1  -4 -17   68.17    4.97
  -2  -4 -17    9.73    2.71
  -2  -4 -17    7.65    2.20
  -2  -4 -17   11.66    2.38
  -3  -4 -17  251.24   10.04
  -3  -4 -17  254.88   10.25
  -4  -4 -17   11.80    2.75
  -5  -4 -17   32.06    4.06
  -6  -4 -17   56.22    5.33
  -7  -4 -17   39.75    4.50
  -8  -4 -17   14.02    2.92
  -9  -4 -17    0.63    1.50
 -10  -4 -17   -2.84    1.08
 -11  -4 -17    4.25    2.10
 -12  -4 -17    1.26    1.57
   9  -5 -17    4.48    2.87
   8  -5 -17   42.47    5.91
   7  -5 -17    0.49    1.83
   7  -5 -17    3.90    2.65
   6  -5 -17   12.93    3.57
   6  -5 -17   13.81    2.80
   5  -5 -17   15.48    3.96
   5  -5 -17   13.70    2.71
   4  -5 -17   22.26    3.20
   3  -5 -17   10.40    2.52
   2  -5 -17   31.41    3.60
   1  -5 -17    2.58    1.53
   0  -5 -17    0.71    1.41
  -1  -5 -17    5.98    2.27
  -2  -5 -17  116.81    6.94
  -3  -5 -17   23.88    3.91
  -3  -5 -17   24.38    3.17
  -4  -5 -17   76.68    5.32
  -5  -5 -17   26.17    3.62
  -6  -5 -17  120.80    7.27
  -7  -5 -17   17.18    2.82
  -9  -5 -17   -2.51    1.24
 -10  -5 -17    0.28    1.40
 -11  -5 -17   -1.39    1.33
 -12  -5 -17    0.48    1.66
   8  -6 -17   36.45    4.22
   8  -6 -17   43.51    6.07
   7  -6 -17   34.36    4.50
   7  -6 -17   24.53    4.92
   6  -6 -17   23.90    3.71
   6  -6 -17   15.05    3.79
   5  -6 -17   15.69    3.02
   5  -6 -17   15.53    3.95
   4  -6 -17   -1.14    1.32
   3  -6 -17   -0.04    1.28
   2  -6 -17   23.10    3.36
   1  -6 -17  123.08    6.90
   0  -6 -17   12.48    2.91
  -1  -6 -17   10.64    2.67
  -2  -6 -17    2.42    1.94
  -3  -6 -17    7.76    2.88
  -4  -6 -17   -0.04    1.56
  -5  -6 -17  206.26    9.34
  -6  -6 -17   18.28    3.07
  -7  -6 -17   11.50    2.67
  -8  -6 -17   -0.39    1.40
  -9  -6 -17    0.63    1.61
 -10  -6 -17    1.07    1.61
 -11  -6 -17   -1.52    1.21
 -12  -6 -17   -0.79    1.35
   9  -7 -17    3.89    3.60
   8  -7 -17   24.94    4.95
   8  -7 -17   22.60    3.75
   7  -7 -17    6.63    2.61
   6  -7 -17   -0.35    1.93
   6  -7 -17    1.65    1.62
   5  -7 -17   -0.04    1.41
   4  -7 -17   30.44    4.04
   3  -7 -17    3.84    2.06
   2  -7 -17   16.58    3.14
   1  -7 -17    5.18    2.29
   0  -7 -17    9.49    2.70
  -1  -7 -17    4.94    2.22
  -2  -7 -17   -1.72    1.25
  -3  -7 -17    1.77    2.24
  -4  -7 -17  122.75    6.73
  -4  -7 -17  127.50    8.20
  -5  -7 -17    5.54    1.94
  -6  -7 -17    4.13    2.24
  -7  -7 -17    0.97    1.53
  -9  -7 -17    6.70    2.15
   8  -8 -17    0.29    2.20
   7  -8 -17    1.22    2.29
   7  -8 -17    3.31    2.23
   6  -8 -17    8.91    2.73
   6  -8 -17   13.04    3.30
   5  -8 -17   14.40    3.11
   4  -8 -17   17.35    3.48
   3  -8 -17   59.66    5.27
   2  -8 -17    1.85    1.83
   1  -8 -17    0.85    1.81
   0  -8 -17   -2.35    1.09
  -1  -8 -17   85.84    6.35
  -2  -8 -17    7.90    2.67
  -3  -8 -17    1.97    1.91
  -4  -8 -17   -0.30    1.42
  -5  -8 -17   27.70    4.55
  -5  -8 -17   28.64    3.65
  -6  -8 -17   18.52    3.47
  -7  -8 -17   90.38    6.56
  -8  -8 -17   35.51    4.53
  -9  -8 -17   29.35    4.04
 -10  -8 -17    9.51    2.91
 -11  -8 -17   27.07    4.60
   7  -9 -17   -0.27    1.69
   6  -9 -17   33.59    4.60
   5  -9 -17   16.35    3.44
   4  -9 -17    8.75    2.72
   3  -9 -17   20.17    3.64
   2  -9 -17    4.41    2.06
   1  -9 -17    2.64    1.97
   0  -9 -17    8.62    2.73
  -1  -9 -17    3.49    2.32
  -2  -9 -17   35.86    4.59
  -3  -9 -17    3.84    2.14
  -4  -9 -17    5.85    2.81
  -5  -9 -17    3.85    2.61
  -6  -9 -17   25.73    3.63
  -6  -9 -17   20.97    4.39
  -7  -9 -17    3.22    1.93
  -8  -9 -17  104.60    7.41
  -9  -9 -17   24.33    4.34
 -10  -9 -17    7.18    2.76
 -11  -9 -17   19.05    4.33
   6 -10 -17    4.12    2.37
   5 -10 -17    1.44    1.71
   4 -10 -17    0.82    1.78
   3 -10 -17    2.38    1.80
   2 -10 -17    0.47    1.42
   1 -10 -17   14.07    3.24
   0 -10 -17   11.36    3.14
  -1 -10 -17   40.12    4.83
  -2 -10 -17    2.75    2.35
  -3 -10 -17   22.51    4.01
  -4 -10 -17   -0.36    1.93
  -5 -10 -17    6.14    3.02
  -6 -10 -17   -2.14    1.52
  -7 -10 -17   76.96    6.01
  -7 -10 -17   58.28    6.86
  -8 -10 -17    2.96    2.51
  -8 -10 -17    6.23    2.28
  -9 -10 -17    4.93    2.32
 -10 -10 -17    9.68    2.72
   4 -11 -17    5.37    2.58
   3 -11 -17   44.79    5.21
   2 -11 -17   19.10    3.63
   1 -11 -17   18.39    3.59
   0 -11 -17   11.93    3.10
  -1 -11 -17   -0.11    1.80
  -2 -11 -17   -1.20    1.47
  -3 -11 -17   -0.75    1.71
  -4 -11 -17   37.46    4.99
  -5 -11 -17    8.02    3.09
  -6 -11 -17    1.51    2.16
  -7 -11 -17    5.48    3.35
  -8 -11 -17    1.62    2.12
  -9 -11 -17    0.74    1.71
  -9 -11 -17    1.43    2.04
 -10 -11 -17   59.48    6.65
   3 -12 -17    7.57    2.87
   2 -12 -17    0.21    1.66
   1 -12 -17    1.00    1.48
   0 -12 -17   -0.14    1.88
  -1 -12 -17    1.52    2.04
  -2 -12 -17    2.17    2.16
  -3 -12 -17   33.00    4.97
  -4 -12 -17    5.52    2.79
  -5 -12 -17    0.59    2.22
  -6 -12 -17   -1.94    1.81
  -7 -12 -17    1.07    1.68
  -8 -12 -17    0.78    2.08
   0 -13 -17    0.60    1.68
  -1 -13 -17    1.08    1.58
  -2 -13 -17    0.66    1.29
  -3 -13 -17   -0.68    1.23
  -4 -13 -17   -1.51    1.21
  -5 -13 -17   -1.20    1.31
  -6 -13 -17   -2.72    1.58
   5  10 -18    7.44    3.44
   4  10 -18   10.22    3.85
  -3 -10  18    1.55    1.80
  -2 -10  18   -1.05    1.46
  -1 -10  18    0.83    1.33
   0 -10  18    0.54    1.50
   1 -10  18    1.54    1.93
   2 -10  18    9.02    2.72
   3 -10  18   22.99    4.02
  -6  -9  18    0.01    2.05
   6   9 -18    6.25    3.39
   5   9 -18    8.92    3.84
  -5  -9  18   14.95    3.83
  -4  -9  18    7.42    2.97
   4   9 -18    5.99    3.56
   3   9 -18    8.44    3.44
  -3  -9  18   10.96    3.46
  -2  -9  18   -0.58    2.17
  -1  -9  18   10.80    3.37
   0  -9  18    4.90    3.05
   1  -9  18    6.90    2.94
   2  -9  18   12.25    3.31
   3  -9  18   29.28    4.66
   4  -9  18   14.24    3.44
   5  -9  18    2.77    2.23
  -8  -8  18    2.79    2.94
  -7  -8  18    8.61    2.70
   7   8 -18   12.18    3.79
  -6  -8  18    2.95    2.83
   6   8 -18    6.25    3.28
   5   8 -18   17.58    4.77
  -5  -8  18   13.76    3.59
   4   8 -18    8.71    3.22
  -4  -8  18    1.62    2.23
  -3  -8  18    1.10    1.91
   3   8 -18   -0.79    2.17
  -2  -8  18    2.91    2.54
   2   8 -18    4.50    2.67
  -1  -8  18   33.98    4.81
   0  -8  18   11.37    3.35
   1  -8  18   11.50    3.33
   2  -8  18   19.82    3.88
   3  -8  18    5.70    2.57
   4  -8  18    3.56    2.21
   5  -8  18   11.88    3.18
   6  -8  18    7.72    2.85
   7  -8  18   22.72    4.20
   7   7 -18    4.89    3.52
  -7  -7  18    6.74    3.05
  -6  -7  18    4.76    2.69
   6   7 -18    8.94    4.13
  -5  -7  18    8.00    2.96
   5   7 -18   -0.49    2.27
   4   7 -18   -2.97    2.11
  -4  -7  18    1.45    1.89
   3   7 -18   -3.84    1.96
  -3  -7  18    2.74    2.09
  -2  -7  18    9.73    3.02
   2   7 -18    4.83    3.08
  -1  -7  18   20.66    3.77
   1   7 -18   23.26    4.48
   0  -7  18   47.83    5.32
   1  -7  18   16.91    3.62
   2  -7  18    3.56    2.52
   3  -7  18   -0.43    1.92
   4  -7  18   25.53    4.16
   5  -7  18   18.65    3.76
   6  -7  18   34.18    4.71
   7  -7  18    4.93    2.68
   8  -7  18    3.63    2.42
   8   6 -18   -1.49    2.63
   7   6 -18   10.59    3.61
   6   6 -18    7.43    3.19
  -6  -6  18   16.55    3.49
   5   6 -18    5.87    3.21
  -5  -6  18    8.88    2.78
  -4  -6  18   17.60    3.41
   4   6 -18   16.03    4.33
  -3  -6  18    6.56    2.59
   3   6 -18   12.87    3.77
   2   6 -18   10.06    3.31
  -2  -6  18    3.50    2.29
   1   6 -18   -0.12    1.97
  -1  -6  18    3.02    2.10
   0  -6  18   58.38    5.59
   1  -6  18    7.46    2.65
   2  -6  18    0.15    1.81
   3  -6  18   32.46    4.58
   4  -6  18    9.21    2.93
   5  -6  18   21.59    3.90
   6  -6  18    1.23    1.86
   7  -6  18    2.59    2.25
   8  -6  18   15.07    3.57
   9  -6  18   12.11    3.50
   8   5 -18    1.55    2.93
   7   5 -18   -0.67    2.10
   6   5 -18    7.71    3.52
  -6  -5  18   14.21    3.22
  -5  -5  18    1.57    1.90
   5   5 -18   -1.41    2.29
  -4  -5  18   18.95    3.34
   4   5 -18   15.24    4.16
  -3  -5  18   -0.68    1.63
   3   5 -18    3.11    2.39
  -2  -5  18   13.61    3.06
   2   5 -18   13.55    3.69
  -1  -5  18    1.69    1.71
   1   5 -18    2.72    2.30
   0  -5  18    2.60    1.84
   0   5 -18    3.03    2.14
   1  -5  18    9.74    2.73
   2  -5  18   82.15    5.85
   3  -5  18   32.47    4.24
   4  -5  18    3.24    2.10
   5  -5  18   19.13    3.85
   6  -5  18   -1.26    1.63
   7  -5  18    2.99    1.90
   8  -5  18   21.12    4.07
   9  -5  18    8.27    3.10
   9   4 -18   -1.19    2.76
   8   4 -18    1.24    3.35
   7   4 -18    1.87    2.95
   6   4 -18   15.25    4.43
   5   4 -18    0.59    2.21
  -5  -4  18    3.64    2.02
  -4  -4  18   10.77    2.63
   4   4 -18    9.14    3.55
   3   4 -18    3.95    2.61
  -3  -4  18   12.86    2.84
  -2  -4  18    0.51    1.66
   2   4 -18   -1.55    1.82
  -1  -4  18    0.44    1.68
   1   4 -18   -0.64    2.01
   0  -4  18   19.78    3.28
   0   4 -18   17.91    3.49
  -1   4 -18    4.94    2.13
   1  -4  18    9.17    2.57
   2  -4  18   50.11    4.57
   3  -4  18   16.27    3.20
   4  -4  18   45.98    4.89
   5  -4  18   28.32    4.24
   6  -4  18    4.75    2.64
   7  -4  18   26.27    4.26
   8  -4  18    4.37    2.49
   9  -4  18   47.18    5.59
 -10   4 -18    1.91    3.43
 -10   4 -18   -5.43    3.27
   9   3 -18   -0.48    2.49
   8   3 -18    0.83    3.09
   7   3 -18   25.85    5.60
   6   3 -18    3.74    2.52
   5   3 -18   -1.55    1.98
   4   3 -18   12.98    3.70
  -4  -3  18   12.45    2.66
   3   3 -18    9.70    3.16
  -3  -3  18    4.63    2.10
   2   3 -18   17.25    3.68
  -2  -3  18   19.83    3.02
   1   3 -18   -1.81    1.41
  -1  -3  18   -0.09    1.44
   0  -3  18    3.33    1.84
   0   3 -18    7.46    2.38
   1  -3  18    0.76    1.45
  -1   3 -18    2.64    1.83
   2  -3  18    0.21    1.65
   3  -3  18   -0.14    1.55
   4  -3  18   50.29    4.84
   5  -3  18   26.33    3.81
   6  -3  18    7.08    2.80
   7  -3  18   15.12    3.56
   8  -3  18    6.71    2.64
 -10   3 -18   -1.34    2.04
 -10   3 -18    0.18    2.14
   9   2 -18    0.32    2.10
   8   2 -18   -2.65    2.15
   7   2 -18   -0.18    2.26
   6   2 -18   11.87    3.73
   5   2 -18    0.60    2.18
   4   2 -18    3.70    2.64
   3   2 -18    7.49    2.89
  -3  -2  18    6.83    2.08
   2   2 -18   25.22    4.16
  -2  -2  18   21.78    3.07
  -1  -2  18    5.17    1.98
   1   2 -18    4.20    2.33
   0   2 -18    8.85    2.78
   0  -2  18    9.19    2.30
   1  -2  18   -0.24    1.38
  -1   2 -18    1.08    1.78
   2  -2  18    8.44    2.33
  -2   2 -18    5.09    2.16
   3  -2  18    7.23    2.23
   4  -2  18    6.90    2.48
   5  -2  18   89.73    6.14
   6  -2  18   72.61    5.80
   7  -2  18    0.05    2.04
   8  -2  18    2.41    2.12
  -9   2 -18   30.51    6.34
  -9   2 -18   21.71    5.69
 -10   2 -18    0.42    2.91
 -10   2 -18    2.86    3.48
 -11   2 -18    1.90    3.09
 -11   2 -18   -0.56    2.78
  10   1 -18    8.26    4.60
   9   1 -18    1.66    3.10
   8   1 -18   -2.10    2.20
   7   1 -18    4.53    2.83
   6   1 -18    4.18    3.15
   5   1 -18    0.29    2.21
   4   1 -18   -0.02    1.95
   3   1 -18    3.10    2.61
   2   1 -18   13.94    3.48
   1   1 -18   54.32    4.91
  -1  -1  18   47.11    3.83
   0  -1  18    3.28    1.78
   0   1 -18    4.83    2.03
   1  -1  18   -1.36    1.15
  -1   1 -18    3.06    2.11
  -2   1 -18    1.41    1.74
   2  -1  18    3.83    1.82
  -3   1 -18    4.55    1.90
   3  -1  18    2.63    1.87
   4  -1  18    5.58    2.29
   5  -1  18    7.31    2.59
   6  -1  18    2.86    2.24
   7  -1  18   10.51    2.98
  -8   1 -18   11.39    3.86
  -9   1 -18   -0.44    2.05
  -9   1 -18    0.69    2.17
 -10   1 -18   15.84    4.78
 -10   1 -18   12.54    4.46
 -11   1 -18    0.43    2.64
 -11   1 -18    0.71    2.89
  10   0 -18   12.22    4.74
   9   0 -18   -4.01    2.62
   8   0 -18   10.12    4.27
   7   0 -18    7.37    3.43
   6   0 -18    0.86    2.78
   5   0 -18    7.51    3.30
   4   0 -18   67.48    6.71
   3   0 -18    0.49    2.00
   2   0 -18   -1.32    1.67
   1   0 -18   13.42    3.25
  -1   0  18    9.96    2.10
   0   0 -18   49.74    3.66
   0   0 -18   56.17    5.20
   0   0  18   53.05    3.85
  -1   0 -18   10.42    2.60
   1   0  18   12.31    2.32
   2   0  18    5.45    2.04
  -2   0 -18    7.03    2.26
  -3   0 -18    2.57    1.82
   3   0  18    0.00    1.51
   4   0  18    1.00    1.72
   5   0  18    2.74    2.06
   6   0  18    1.12    1.86
  -8   0 -18   36.65    5.05
  -8   0 -18   37.39    5.35
  -9   0 -18    7.14    2.96
  -9   0 -18    8.25    3.17
 -10   0 -18    9.52    3.53
 -10   0 -18   15.74    4.24
 -11   0 -18   -1.93    1.87
  10  -1 -18   -1.72    3.16
   9  -1 -18    4.14    3.22
   8  -1 -18   19.91    5.15
   7  -1 -18   35.00    5.62
   6  -1 -18   10.57    3.73
   5  -1 -18    0.07    2.56
   4  -1 -18    5.73    2.72
   3  -1 -18    2.69    2.17
   2  -1 -18    2.09    1.99
   1  -1 -18    3.52    2.24
   1  -1 -18    0.57    1.20
   0   1  18    4.11    1.57
   0  -1 -18    4.35    2.57
   0  -1 -18    3.14    1.40
  -1  -1 -18  263.10   10.08
   1   1  18  256.10    9.42
   2   1  18    7.93    2.08
   3   1  18   25.96    3.29
   4   1  18   29.48    3.53
   5   1  18   22.02    3.24
  -6  -1 -18    3.98    2.62
  -6  -1 -18    9.09    3.15
  -7  -1 -18   29.53    4.52
  -7  -1 -18   29.80    4.56
  -8  -1 -18   12.89    3.71
  -8  -1 -18   18.35    4.00
  -9  -1 -18   29.84    4.68
  -9  -1 -18   35.58    4.87
 -10  -1 -18    0.30    2.37
 -11  -1 -18   -2.74    2.06
  10  -2 -18   -0.82    3.20
   9  -2 -18   20.07    4.98
   8  -2 -18   14.79    3.89
   7  -2 -18   11.99    3.72
   6  -2 -18   62.59    6.78
   5  -2 -18   10.05    3.42
   4  -2 -18   -0.85    2.05
   3  -2 -18    1.04    1.76
   3  -2 -18    0.98    1.29
   2  -2 -18   24.48    4.28
   2  -2 -18   21.84    2.86
   1  -2 -18    0.66    1.21
   0  -2 -18    4.53    1.78
   1   2  18    7.68    1.85
  -1  -2 -18    5.05    2.05
   2   2  18    1.22    1.45
   3   2  18   38.25    3.59
  -5  -2 -18    0.72    2.13
  -5  -2 -18    1.67    1.68
  -6  -2 -18   -0.46    1.99
  -6  -2 -18    0.20    1.82
  -7  -2 -18    2.22    2.14
  -7  -2 -18    0.67    2.06
  -8  -2 -18   17.30    3.89
  -8  -2 -18   12.24    3.55
  -9  -2 -18   42.05    5.08
 -10  -2 -18    9.94    3.66
 -11  -2 -18    5.63    2.71
 -12  -2 -18    3.19    2.85
  10  -3 -18    9.14    4.79
   9  -3 -18   10.50    3.71
   8  -3 -18   22.76    5.00
   7  -3 -18   14.65    4.25
   6  -3 -18   16.37    4.28
   5  -3 -18   -2.47    2.02
   4  -3 -18   19.89    2.84
   4  -3 -18   19.97    4.41
   3  -3 -18    3.07    1.49
   3  -3 -18    4.07    2.60
   2  -3 -18   10.21    2.18
   1  -3 -18    9.13    2.27
   0  -3 -18   38.96    3.77
  -1  -3 -18    5.41    2.20
  -2  -3 -18    1.17    1.67
  -2  -3 -18    2.93    1.52
  -2  -3 -18    1.03    1.76
  -3  -3 -18   95.67    5.89
  -3  -3 -18   81.17    5.60
  -4  -3 -18    8.36    2.64
  -4  -3 -18    4.72    2.04
  -5  -3 -18   87.03    6.02
  -5  -3 -18   92.67    6.23
  -6  -3 -18   24.23    4.01
  -6  -3 -18   22.09    3.80
  -7  -3 -18   12.76    3.37
  -8  -3 -18   15.13    3.66
  -9  -3 -18   12.88    3.55
 -10  -3 -18   10.57    2.56
 -11  -3 -18   -4.40    1.16
 -12  -3 -18    1.94    2.22
  10  -4 -18   16.01    5.71
   9  -4 -18   10.64    3.47
   8  -4 -18   14.18    4.03
   7  -4 -18    3.41    2.32
   6  -4 -18    8.18    3.21
   5  -4 -18   36.66    3.92
   5  -4 -18   34.11    5.36
   4  -4 -18  106.59    8.17
   4  -4 -18   89.62    5.77
   3  -4 -18    1.78    1.42
   2  -4 -18    8.34    2.02
   1  -4 -18   19.71    2.89
   0  -4 -18   -0.54    1.10
  -1  -4 -18   21.80    3.26
  -2  -4 -18   43.35    3.64
  -2  -4 -18   50.85    4.83
  -2  -4 -18   39.82    4.05
  -3  -4 -18   15.78    3.02
  -3  -4 -18   17.57    2.95
  -4  -4 -18   54.40    4.52
  -5  -4 -18   10.39    2.83
  -6  -4 -18    2.13    2.11
  -7  -4 -18    3.15    2.51
  -8  -4 -18    3.14    2.23
  -9  -4 -18    0.23    1.62
 -10  -4 -18    5.25    1.91
 -11  -4 -18    4.03    1.61
 -12  -4 -18    1.33    1.58
   9  -5 -18    0.60    2.26
   8  -5 -18    1.88    2.52
   7  -5 -18   14.39    3.41
   7  -5 -18   23.46    4.93
   6  -5 -18   16.44    3.08
   6  -5 -18   11.36    3.67
   5  -5 -18   15.81    3.85
   5  -5 -18   24.98    3.46
   4  -5 -18    4.05    1.98
   3  -5 -18   54.36    4.49
   2  -5 -18   12.71    2.63
   1  -5 -18    3.60    1.92
   0  -5 -18    0.78    1.45
  -1  -5 -18   12.84    2.90
  -2  -5 -18   30.07    3.95
  -3  -5 -18   13.64    2.76
  -3  -5 -18   13.81    3.31
  -4  -5 -18   29.47    3.63
  -5  -5 -18   21.04    3.38
  -6  -5 -18   17.34    3.16
  -7  -5 -18   18.29    2.79
  -8  -5 -18   -0.48    1.36
  -9  -5 -18    0.03    1.61
 -10  -5 -18    1.22    1.51
 -11  -5 -18   -1.93    1.40
   8  -6 -18   13.82    3.20
   8  -6 -18   15.45    3.73
   7  -6 -18   17.14    4.37
   7  -6 -18   20.52    3.71
   6  -6 -18   43.18    5.95
   6  -6 -18   51.70    5.14
   5  -6 -18   -1.80    1.99
   5  -6 -18   -0.09    1.32
   4  -6 -18    1.97    1.56
   3  -6 -18   37.35    4.22
   2  -6 -18   44.72    4.44
   1  -6 -18   52.69    4.53
   0  -6 -18   27.91    3.79
  -1  -6 -18   -0.35    1.26
  -2  -6 -18    4.15    2.24
  -3  -6 -18   22.14    3.85
  -4  -6 -18   21.51    4.03
  -4  -6 -18   21.87    3.09
  -5  -6 -18   -1.28    1.29
  -6  -6 -18  122.56    7.27
  -7  -6 -18    7.46    2.33
  -9  -6 -18    1.57    1.58
 -10  -6 -18    4.03    1.75
 -11  -6 -18    3.84    1.94
   8  -7 -18   20.34    4.09
   8  -7 -18   22.41    3.91
   7  -7 -18   16.73    4.22
   7  -7 -18   17.44    3.76
   6  -7 -18   28.71    5.14
   6  -7 -18   32.97    4.33
   5  -7 -18    2.21    2.02
   4  -7 -18    4.99    2.20
   3  -7 -18   18.77    3.33
   2  -7 -18    1.89    1.78
   1  -7 -18   76.24    5.66
   0  -7 -18    2.41    1.99
  -1  -7 -18    1.03    1.66
  -2  -7 -18    3.59    2.37
  -3  -7 -18   16.06    3.66
  -4  -7 -18   12.69    3.50
  -5  -7 -18   45.38    4.21
  -5  -7 -18   50.24    5.55
  -6  -7 -18   14.70    3.05
  -7  -7 -18   -2.32    1.45
  -9  -7 -18    2.27    1.70
 -10  -7 -18    3.05    1.37
 -11  -7 -18    4.25    1.80
   7  -8 -18   22.73    4.93
   7  -8 -18   25.17    4.14
   6  -8 -18   11.11    2.93
   6  -8 -18   13.03    3.78
   5  -8 -18   -0.02    1.50
   4  -8 -18   27.29    4.04
   3  -8 -18    6.59    2.56
   2  -8 -18   17.44    3.32
   1  -8 -18   22.68    3.67
   0  -8 -18   -1.78    1.59
  -1  -8 -18   47.35    5.10
  -2  -8 -18    7.28    2.66
  -3  -8 -18    5.52    2.32
  -4  -8 -18   -0.10    1.47
  -5  -8 -18   12.89    3.66
  -6  -8 -18    5.03    1.98
  -7  -8 -18    5.06    2.10
 -10  -8 -18   30.33    4.36
 -11  -8 -18    0.73    1.76
   6  -9 -18    9.67    3.15
   6  -9 -18   13.27    3.17
   5  -9 -18   38.38    4.81
   4  -9 -18   13.26    3.24
   3  -9 -18    6.14    2.40
   2  -9 -18   -0.42    1.54
   1  -9 -18    2.68    2.04
   0  -9 -18    9.92    2.91
  -1  -9 -18   69.22    5.95
  -2  -9 -18   -0.97    1.40
  -3  -9 -18    8.95    3.00
  -4  -9 -18    1.15    1.85
  -5  -9 -18    0.52    2.09
  -6  -9 -18    5.03    2.96
  -7  -9 -18   35.23    5.42
  -7  -9 -18   31.70    4.40
  -8  -9 -18    1.50    2.05
  -9  -9 -18   52.77    5.70
 -10  -9 -18    4.27    2.49
 -11  -9 -18    1.26    1.90
   5 -10 -18   15.35    3.47
   4 -10 -18   -0.44    1.57
   3 -10 -18    9.02    2.69
   2 -10 -18   10.44    2.89
   1 -10 -18   11.37    3.12
   0 -10 -18   11.68    3.26
  -1 -10 -18   -0.81    1.59
  -2 -10 -18   25.83    4.38
  -3 -10 -18   16.15    3.47
  -4 -10 -18   -0.13    2.08
  -5 -10 -18    3.25    2.46
  -6 -10 -18    8.12    3.30
  -7 -10 -18   12.45    4.01
  -8 -10 -18    2.05    2.68
  -8 -10 -18   20.85    3.89
  -9 -10 -18   -0.05    1.74
 -10 -10 -18   23.62    4.60
   4 -11 -18   -0.96    1.53
   3 -11 -18   13.77    3.30
   2 -11 -18    6.50    2.55
   1 -11 -18   41.85    5.03
   0 -11 -18    1.76    2.00
  -1 -11 -18    5.54    2.51
  -2 -11 -18    2.56    2.51
  -3 -11 -18   18.99    3.88
  -4 -11 -18    4.75    2.63
  -5 -11 -18   20.06    4.31
  -6 -11 -18    2.21    2.76
  -7 -11 -18   -1.34    1.91
  -8 -11 -18    0.63    1.76
  -9 -11 -18   13.12    3.53
  -9 -11 -18    0.97    2.12
 -10 -11 -18    1.87    1.91
   2 -12 -18   39.87    5.21
   1 -12 -18   23.97    4.22
   0 -12 -18    1.05    1.49
  -1 -12 -18    1.80    2.02
  -2 -12 -18    1.43    1.93
  -3 -12 -18   -1.06    1.89
  -4 -12 -18    0.86    2.01
  -5 -12 -18   -1.37    1.57
  -6 -12 -18    0.59    1.70
  -7 -12 -18    0.74    1.96
  -1 -13 -18    1.53    1.81
  -2 -13 -18    2.07    1.62
  -3 -13 -18    0.42    1.42
  -4 -13 -18   -3.38    1.14
  -5 -13 -18    1.36    1.79
   4  10 -19    1.58    3.49
  -3 -10  19    0.04    2.01
  -2 -10  19   -0.04    1.94
  -1 -10  19    0.73    2.03
   0 -10  19    2.17    2.23
   1 -10  19    0.45    1.90
   2 -10  19   13.41    3.60
  -6  -9  19    2.18    3.00
   5   9 -19   -2.66    2.60
  -5  -9  19    3.20    2.76
  -4  -9  19    8.62    3.15
   4   9 -19   11.52    3.93
   3   9 -19    5.85    3.25
  -3  -9  19   -0.02    1.97
  -2  -9  19    1.69    2.43
  -1  -9  19    1.55    2.39
   0  -9  19    1.38    2.24
   1  -9  19    1.24    2.07
   2  -9  19   -0.87    1.34
   3  -9  19   13.59    3.51
   4  -9  19    0.58    1.87
  -7  -8  19    2.17    2.87
  -6  -8  19    8.38    3.02
   6   8 -19   13.23    4.13
  -5  -8  19   27.29    4.66
   5   8 -19   35.41    6.19
   4   8 -19   13.11    3.95
  -4  -8  19   12.41    3.47
   3   8 -19    3.73    2.42
  -3  -8  19    1.92    2.40
   2   8 -19    6.62    3.28
  -2  -8  19    5.11    2.92
  -1  -8  19    4.37    2.59
   0  -8  19   28.97    4.51
   1  -8  19    8.08    3.17
   2  -8  19    6.10    2.79
   3  -8  19    7.86    2.98
   4  -8  19    2.40    1.99
   5  -8  19   -0.25    1.73
   6  -8  19   12.23    3.42
   7   7 -19   -2.20    2.30
   6   7 -19   -3.24    2.43
  -6  -7  19    3.34    2.21
  -5  -7  19    1.27    1.80
   5   7 -19   -4.80    2.04
   4   7 -19   -2.63    2.19
  -4  -7  19    2.88    2.55
   3   7 -19    1.74    2.69
  -3  -7  19    3.45    2.33
  -2  -7  19   10.16    3.06
   2   7 -19    5.50    3.18
  -1  -7  19    2.28    2.24
   0  -7  19   77.92    6.27
   1  -7  19    8.57    3.00
   2  -7  19   15.58    3.63
   3  -7  19    9.66    3.09
   4  -7  19    0.02    2.13
   5  -7  19   26.19    4.37
   6  -7  19   10.52    2.80
   7  -7  19   26.02    4.58
   7   6 -19    6.43    3.62
   6   6 -19    2.72    2.71
  -6  -6  19   -0.25    1.98
   5   6 -19    5.68    3.03
  -5  -6  19    0.16    1.73
  -4  -6  19   11.80    3.01
   4   6 -19    4.10    2.98
  -3  -6  19   46.82    5.15
   3   6 -19   50.42    6.52
  -2  -6  19    2.38    2.11
   2   6 -19    4.55    2.71
  -1  -6  19    2.66    2.29
   1   6 -19    3.27    2.41
   0  -6  19    8.11    2.59
   1  -6  19   13.19    3.25
   2  -6  19    8.36    2.89
   3  -6  19    5.02    2.56
   4  -6  19   16.96    3.70
   5  -6  19   29.09    4.59
   6  -6  19   21.20    4.03
   7  -6  19    2.03    1.98
   8  -6  19    2.53    2.01
   8   5 -19   28.65    6.24
   7   5 -19    2.22    2.60
   6   5 -19    1.08    2.30
   5   5 -19   -0.18    2.72
  -5  -5  19    1.71    1.85
   4   5 -19   -1.75    2.21
  -4  -5  19   -0.97    1.45
  -3  -5  19    1.99    1.86
   3   5 -19    1.43    2.21
   2   5 -19   41.27    5.61
  -2  -5  19   40.98    4.51
   1   5 -19   45.28    5.53
  -1  -5  19   41.30    4.64
   0   5 -19   19.68    3.78
   0  -5  19   14.32    3.25
   1  -5  19    3.00    2.08
   2  -5  19   28.15    4.05
   3  -5  19   34.53    4.46
   4  -5  19    6.21    2.55
   5  -5  19    3.89    2.53
   6  -5  19   13.38    3.48
   7  -5  19    7.38    2.99
   8  -5  19   11.64    3.38
   9  -5  19   43.24    5.68
   8   4 -19    2.45    2.57
   7   4 -19    1.86    3.03
   6   4 -19    2.08    2.92
   5   4 -19    2.41    2.62
  -4  -4  19   -0.55    1.56
   4   4 -19   -0.65    1.92
   3   4 -19   -0.07    1.89
  -3  -4  19    0.74    1.83
   2   4 -19    3.77    2.40
  -2  -4  19    0.47    1.46
   1   4 -19   -0.01    1.77
  -1  -4  19    2.33    1.79
   0  -4  19    4.73    2.17
   0   4 -19    4.93    2.39
  -1   4 -19    6.53    2.46
   1  -4  19    8.28    2.58
   2  -4  19   13.70    3.01
   3  -4  19   38.75    4.35
   4  -4  19    1.99    1.87
   5  -4  19    6.63    2.84
   6  -4  19   14.91    3.60
   7  -4  19    0.18    2.25
   8  -4  19   30.38    4.72
   9  -4  19    3.04    2.18
   9   3 -19   -0.89    3.58
   8   3 -19   -3.29    2.19
   7   3 -19    1.91    2.79
   6   3 -19   51.37    6.75
   5   3 -19    3.37    2.48
   4   3 -19    4.41    2.59
   3   3 -19   -0.59    2.03
  -3  -3  19    2.07    1.97
   2   3 -19    2.31    2.05
  -2  -3  19   -1.11    1.45
   1   3 -19    8.32    2.94
  -1  -3  19   10.49    2.61
   0   3 -19   52.92    5.08
   0  -3  19   48.54    4.56
  -1   3 -19   39.26    4.42
   1  -3  19   47.91    4.46
   2  -3  19   -0.48    1.46
   3  -3  19    1.30    1.74
   4  -3  19    3.27    2.12
   5  -3  19   33.83    4.20
   6  -3  19    7.54    2.97
   7  -3  19   36.90    5.02
   8  -3  19   14.73    3.82
 -10   3 -19   -0.73    3.38
 -10   3 -19   -4.86    2.77
   9   2 -19   -1.08    2.69
   8   2 -19    0.82    2.89
   7   2 -19    7.97    3.64
   6   2 -19    3.84    2.56
   5   2 -19    7.36    2.97
   4   2 -19    1.87    2.05
  -3  -2  19    0.31    1.23
   3   2 -19    2.04    2.04
  -2  -2  19    3.14    1.82
   2   2 -19    5.00    2.57
   1   2 -19   -0.07    1.90
  -1  -2  19    1.59    1.71
   0  -2  19    5.78    1.97
   0   2 -19    3.86    2.27
  -1   2 -19   37.76    4.38
   1  -2  19   40.21    4.02
  -2   2 -19   24.96    3.44
   2  -2  19   20.39    3.14
   3  -2  19    6.61    2.48
   4  -2  19   21.37    3.35
   5  -2  19   70.33    5.59
   6  -2  19   17.58    3.54
   7  -2  19   39.89    4.97
   8  -2  19   -0.75    1.99
  -9   2 -19    4.28    3.76
  -9   2 -19   -0.34    3.98
 -10   2 -19   -0.09    2.23
 -10   2 -19    0.65    2.31
   9   1 -19   -0.97    2.24
   8   1 -19   17.69    4.90
   7   1 -19    2.50    2.52
   6   1 -19    6.19    3.34
   5   1 -19   28.30    4.98
   4   1 -19   22.00    4.49
   3   1 -19   14.61    4.11
   2   1 -19    1.65    2.43
  -2  -1  19   -0.03    0.61
  -1  -1  19   -0.82    1.18
   1   1 -19    1.17    1.90
   0   1 -19    0.00    1.69
   0  -1  19   -1.49    1.25
   1  -1  19   10.67    2.30
  -1   1 -19    8.48    2.63
  -2   1 -19   33.63    3.92
   2  -1  19   33.80    3.70
  -3   1 -19    0.98    1.73
   3  -1  19    0.69    1.57
   4  -1  19    3.43    2.20
   5  -1  19   16.46    3.20
   6  -1  19   24.74    3.88
   7  -1  19   27.63    4.19
  -9   1 -19   25.58    5.11
  -9   1 -19   23.10    4.83
 -10   1 -19    1.04    2.99
 -10   1 -19    1.24    3.17
 -11   1 -19    5.58    3.76
 -11   1 -19   -2.69    2.82
   9   0 -19   -5.22    1.91
   8   0 -19    1.49    2.87
   7   0 -19    0.79    2.70
   6   0 -19    3.67    2.76
   5   0 -19   19.10    4.45
   4   0 -19   -0.46    1.74
   3   0 -19   58.01    5.98
   2   0 -19    2.94    2.10
   1   0 -19    1.85    1.99
  -1   0  19   -1.63    1.08
   0   0  19    1.83    1.43
   0   0 -19    1.74    1.72
   1   0  19    0.61    1.51
  -1   0 -19    0.45    1.31
  -1   0 -19    1.05    1.78
   2   0  19    5.90    2.07
  -2   0 -19    3.01    1.92
  -3   0 -19   30.86    3.76
   3   0  19   29.01    3.58
   4   0  19   27.76    3.65
   5   0  19    0.26    1.93
   6   0  19   13.78    3.09
  -8   0 -19   55.41    6.21
  -8   0 -19   29.87    4.46
  -9   0 -19    6.72    3.15
  -9   0 -19    5.31    2.70
 -10   0 -19    0.97    2.50
 -10   0 -19    2.12    2.50
 -11   0 -19    3.63    2.81
   9  -1 -19    2.59    2.84
   8  -1 -19    5.70    3.29
   7  -1 -19   23.00    5.00
   6  -1 -19   69.75    7.62
   5  -1 -19   -0.51    2.30
   4  -1 -19    0.06    1.77
   3  -1 -19   21.44    4.32
   2  -1 -19    3.11    2.45
   1  -1 -19    7.15    2.82
   0  -1 -19   -0.56    1.63
   0   1  19    0.28    1.26
   0  -1 -19    1.06    1.16
   1   1  19    2.38    1.42
  -1  -1 -19    1.53    1.51
  -1  -1 -19   -1.59    1.72
   2   1  19   11.97    2.50
   3   1  19   -0.21    1.42
   4   1  19    1.50    1.79
   5   1  19   20.03    3.21
  -6  -1 -19    2.88    2.48
  -6  -1 -19   -2.70    2.18
  -7  -1 -19    9.31    3.06
  -7  -1 -19   15.97    3.54
  -8  -1 -19   40.77    5.43
  -8  -1 -19   25.15    4.09
  -9  -1 -19    7.63    3.30
  -9  -1 -19   10.35    3.56
 -10  -1 -19    8.51    3.03
 -11  -1 -19    7.21    3.62
   9  -2 -19   -1.19    2.73
   8  -2 -19   18.39    4.67
   7  -2 -19   34.38    5.95
   6  -2 -19   -1.92    2.09
   5  -2 -19   53.69    6.32
   4  -2 -19   -0.29    1.98
   3  -2 -19    0.42    2.18
   2  -2 -19    3.50    1.65
   2  -2 -19    5.69    2.87
   1  -2 -19  111.53    7.96
   1  -2 -19  105.47    5.75
   0  -2 -19    5.25    1.73
  -1  -2 -19    0.89    1.35
   1   2  19    1.31    1.28
   2   2  19    1.22    1.31
   3   2  19   -2.13    1.19
  -5  -2 -19   16.88    3.39
  -5  -2 -19   18.35    3.66
  -6  -2 -19   31.59    4.46
  -6  -2 -19   23.86    4.04
  -7  -2 -19    2.38    2.19
  -7  -2 -19   -0.64    2.23
  -8  -2 -19    3.39    2.30
  -8  -2 -19    3.28    2.47
  -9  -2 -19    1.52    2.38
 -10  -2 -19   39.44    5.52
 -11  -2 -19   -4.48    1.77
   9  -3 -19   22.71    5.18
   8  -3 -19   22.02    4.91
   7  -3 -19    2.13    2.81
   6  -3 -19   19.63    4.28
   5  -3 -19   14.41    4.05
   4  -3 -19   34.66    5.61
   3  -3 -19    4.49    1.79
   3  -3 -19    2.82    2.69
   2  -3 -19    3.24    2.67
   2  -3 -19    9.51    2.06
   1  -3 -19    6.52    1.98
   0  -3 -19   10.88    2.22
  -1  -3 -19    3.20    1.92
  -2  -3 -19   10.11    2.75
  -3  -3 -19    7.52    2.64
  -3  -3 -19    8.78    2.58
  -4  -3 -19    3.30    1.90
  -4  -3 -19    4.69    1.82
  -5  -3 -19   11.49    2.95
  -5  -3 -19   11.98    3.22
  -6  -3 -19   20.81    3.80
  -6  -3 -19   21.61    3.81
  -7  -3 -19   34.97    4.32
  -7  -3 -19   29.85    4.71
  -8  -3 -19    0.20    2.13
  -9  -3 -19    3.96    2.70
   9  -4 -19    4.09    3.62
   8  -4 -19    3.84    2.74
   7  -4 -19   11.88    3.63
   6  -4 -19   -0.17    2.07
   5  -4 -19   11.01    2.53
   5  -4 -19   13.98    4.13
   4  -4 -19   26.52    4.91
   4  -4 -19   18.41    2.93
   3  -4 -19  126.12    9.14
   3  -4 -19  126.75    6.83
   2  -4 -19    1.57    1.40
   1  -4 -19   -1.74    1.05
   0  -4 -19   43.50    4.15
  -1  -4 -19   14.88    3.02
  -2  -4 -19    5.44    2.47
  -3  -4 -19   18.53    3.21
  -3  -4 -19   19.99    3.14
  -4  -4 -19    5.02    2.20
  -4  -4 -19    5.52    2.23
  -5  -4 -19   18.70    3.44
  -6  -4 -19    2.86    2.25
  -7  -4 -19    7.23    2.70
  -8  -4 -19   -0.29    2.11
  -9  -4 -19   -3.20    1.52
 -10  -4 -19    0.46    1.31
   9  -5 -19   21.03    5.84
   8  -5 -19    8.17    3.21
   7  -5 -19   16.05    4.28
   6  -5 -19   18.41    4.25
   6  -5 -19   19.33    3.34
   5  -5 -19   12.51    3.76
   5  -5 -19    8.94    2.49
   4  -5 -19   25.20    5.06
   4  -5 -19   25.72    3.52
   3  -5 -19    9.11    2.30
   2  -5 -19    6.59    2.11
   1  -5 -19   11.94    2.68
   0  -5 -19    1.26    1.60
  -1  -5 -19    1.36    1.86
  -2  -5 -19    2.75    2.13
  -3  -5 -19   11.30    3.25
  -4  -5 -19    6.07    2.07
  -5  -5 -19    6.32    2.28
  -6  -5 -19   -2.81    1.65
  -7  -5 -19    3.51    1.93
  -8  -5 -19    5.80    2.04
  -9  -5 -19    6.95    2.05
 -10  -5 -19    0.71    1.25
 -11  -5 -19    4.10    1.73
   8  -6 -19    8.92    2.84
   7  -6 -19   10.56    2.95
   7  -6 -19    5.01    2.97
   6  -6 -19   19.23    4.50
   6  -6 -19   18.11    3.40
   5  -6 -19   27.64    3.84
   5  -6 -19   31.20    5.29
   4  -6 -19    2.36    1.66
   3  -6 -19    1.67    1.73
   2  -6 -19   33.76    4.07
   1  -6 -19  125.65    7.16
   0  -6 -19    1.08    1.70
  -1  -6 -19    1.52    1.74
  -2  -6 -19   27.45    3.88
  -3  -6 -19   -0.94    1.83
  -4  -6 -19   11.11    3.39
  -5  -6 -19   10.06    2.56
  -6  -6 -19    8.35    2.30
  -7  -6 -19   18.73    2.89
  -8  -6 -19    3.55    1.76
  -9  -6 -19    0.83    1.46
 -10  -6 -19    4.71    1.92
 -11  -6 -19    2.76    1.88
   8  -7 -19    7.97    3.91
   8  -7 -19   15.06    4.41
   7  -7 -19   20.39    3.81
   7  -7 -19   11.59    3.52
   6  -7 -19    4.62    2.21
   6  -7 -19    5.56    2.36
   5  -7 -19    3.52    2.33
   5  -7 -19   -0.58    1.35
   4  -7 -19   -1.12    1.66
   3  -7 -19   14.70    3.08
   2  -7 -19   17.64    3.29
   1  -7 -19   -1.38    1.45
   0  -7 -19   93.50    6.44
  -1  -7 -19   25.66    3.99
  -2  -7 -19    8.37    2.99
  -3  -7 -19    8.78    2.94
  -4  -7 -19    9.95    3.36
  -5  -7 -19   21.28    4.31
  -6  -7 -19   24.56    3.43
  -7  -7 -19    1.42    1.57
  -8  -7 -19   -0.55    1.52
  -9  -7 -19   -0.38    1.38
 -10  -7 -19    1.17    1.34
 -11  -7 -19    1.72    1.69
   7  -8 -19    3.26    2.70
   7  -8 -19    4.47    2.68
   6  -8 -19    4.34    2.08
   6  -8 -19    5.32    2.77
   5  -8 -19    5.79    2.32
   4  -8 -19   21.15    3.73
   3  -8 -19   31.10    4.17
   2  -8 -19   -0.09    1.68
   1  -8 -19   31.95    4.23
   0  -8 -19   18.72    3.43
  -1  -8 -19   39.82    5.01
  -2  -8 -19    9.68    2.94
  -3  -8 -19    1.99    2.20
  -4  -8 -19    5.00    2.47
  -5  -8 -19   -0.65    1.63
  -6  -8 -19    6.48    2.82
  -7  -8 -19   -1.05    1.58
  -8  -8 -19    6.11    2.19
  -9  -8 -19   14.84    2.93
 -10  -8 -19   -1.20    1.74
 -11  -8 -19   11.26    2.82
   6  -9 -19   12.70    3.08
   6  -9 -19   11.82    3.28
   5  -9 -19    8.57    2.86
   4  -9 -19    8.84    3.05
   3  -9 -19   10.99    3.01
   2  -9 -19   21.24    3.69
   1  -9 -19    8.45    2.93
   0  -9 -19   13.23    3.17
  -1  -9 -19    2.79    2.38
  -2  -9 -19  104.17    7.52
  -3  -9 -19   23.55    4.37
  -4  -9 -19    0.94    1.77
  -5  -9 -19   10.77    3.34
  -6  -9 -19    7.49    3.21
  -7  -9 -19    5.41    3.17
  -8  -9 -19   25.10    4.20
  -9  -9 -19    7.47    2.73
 -10  -9 -19    9.08    2.84
   5 -10 -19    2.09    1.73
   4 -10 -19    8.72    2.92
   3 -10 -19   -2.25    1.24
   2 -10 -19    1.46    1.89
   1 -10 -19   23.60    4.12
   0 -10 -19   -0.46    1.64
  -1 -10 -19   22.79    4.11
  -2 -10 -19    2.38    2.11
  -3 -10 -19    6.04    2.48
  -4 -10 -19    5.30    2.61
  -5 -10 -19   -0.48    2.21
  -6 -10 -19    0.37    1.99
  -7 -10 -19    2.09    2.76
  -8 -10 -19    2.89    1.49
  -9 -10 -19   -1.28    2.00
 -10 -10 -19    9.23    3.07
   3 -11 -19    1.42    1.93
   2 -11 -19   10.51    3.21
   1 -11 -19   13.17    3.18
   0 -11 -19   45.76    5.52
  -1 -11 -19   -0.82    1.24
  -2 -11 -19    0.34    1.78
  -3 -11 -19    4.74    2.93
  -4 -11 -19   28.84    4.59
  -5 -11 -19   -0.31    1.96
  -6 -11 -19   -0.08    2.08
  -7 -11 -19    1.94    1.50
  -8 -11 -19    2.59    2.20
   1 -12 -19    9.06    2.69
   0 -12 -19    5.50    2.46
  -1 -12 -19    9.43    3.17
  -2 -12 -19   -0.36    1.06
  -3 -12 -19   -0.51    1.12
  -4 -12 -19    0.29    1.09
  -5 -12 -19   -0.13    1.43
  -6 -12 -19    0.21    1.90
  -5  -9  20   25.36    5.23
   5   9 -20   36.28    6.56
  -4  -9  20    2.68    2.77
   4   9 -20    2.16    3.13
  -3  -9  20    3.11    2.43
  -2  -9  20   -0.14    1.48
  -1  -9  20   -0.26    1.28
   0  -9  20    0.91    1.39
   1  -9  20   -0.14    1.38
   2  -9  20    1.84    1.81
   3  -9  20    0.95    2.06
   6   8 -20   22.59    5.36
  -6  -8  20   29.92    5.00
   5   8 -20    5.51    3.16
  -5  -8  20    4.20    2.54
   4   8 -20   70.51    8.03
  -4  -8  20   66.65    6.80
   3   8 -20    0.18    2.25
  -3  -8  20    4.92    2.53
  -2  -8  20    2.86    2.52
  -1  -8  20    3.69    2.46
   0  -8  20    2.26    2.52
   1  -8  20    8.54    3.39
   2  -8  20    0.42    2.06
   3  -8  20    0.60    1.82
   4  -8  20    1.63    1.64
   5  -8  20    0.84    1.99
   6   7 -20    0.63    3.06
  -6  -7  20   11.18    3.98
  -5  -7  20   64.97    6.38
   5   7 -20   61.26    8.02
  -4  -7  20   19.52    3.97
   4   7 -20   14.09    4.54
   3   7 -20    0.26    2.71
  -3  -7  20    5.51    2.89
   2   7 -20    0.46    2.73
  -2  -7  20   -0.47    1.73
  -1  -7  20    9.68    3.19
   0  -7  20   28.10    4.53
   1  -7  20   11.78    3.33
   2  -7  20    4.88    2.74
   3  -7  20    0.85    2.23
   4  -7  20    1.40    2.18
   5  -7  20   -1.80    1.81
   6  -7  20   10.94    3.16
   7   6 -20    2.35    2.86
   6   6 -20    9.04    3.90
   5   6 -20   15.56    4.21
  -5  -6  20    9.45    3.07
   4   6 -20    2.22    2.53
  -4  -6  20   -0.53    1.79
   3   6 -20    5.08    3.09
  -3  -6  20    2.44    2.18
   2   6 -20   89.79    7.81
  -2  -6  20   77.52    6.22
  -1  -6  20    7.58    2.87
   1   6 -20   11.67    3.52
   0  -6  20   19.51    3.76
   1  -6  20    0.35    1.92
   2  -6  20   16.88    3.58
   3  -6  20    4.95    2.72
   4  -6  20    6.94    2.77
   5  -6  20   27.89    4.64
   6  -6  20    7.12    3.04
   7  -6  20    6.03    2.71
   7   5 -20    6.51    3.60
   6   5 -20   10.09    3.95
   5   5 -20   -5.27    1.99
   4   5 -20   22.58    4.92
  -4  -5  20   23.47    3.82
  -3  -5  20   74.97    5.87
   3   5 -20   76.56    7.37
  -2  -5  20   43.00    4.69
   2   5 -20   37.37    5.33
   1   5 -20   43.40    5.62
  -1  -5  20   46.46    4.95
   0  -5  20   13.85    3.08
   0   5 -20   16.67    3.61
   1  -5  20    2.28    1.96
   2  -5  20   24.73    3.96
   3  -5  20   21.19    3.82
   4  -5  20    9.74    3.00
   5  -5  20    7.10    2.93
   6  -5  20    2.36    2.32
   7  -5  20    4.00    2.29
   8  -5  20    5.62    2.48
   8   4 -20   25.94    6.23
   7   4 -20    7.67    3.46
   6   4 -20   20.76    5.10
   5   4 -20    5.49    3.02
   4   4 -20   10.62    3.72
  -4  -4  20   14.91    2.99
  -3  -4  20    2.24    1.98
   3   4 -20    4.73    2.70
  -2  -4  20   18.27    3.36
   2   4 -20   19.61    4.25
   1   4 -20    0.10    1.89
  -1  -4  20    2.65    1.86
   0  -4  20   61.70    5.10
   0   4 -20   54.50    5.55
   1  -4  20    0.50    1.60
   2  -4  20   27.48    3.91
   3  -4  20   49.08    4.97
   4  -4  20   49.62    5.15
   5  -4  20    1.19    2.16
   6  -4  20    3.99    2.66
   7  -4  20   67.55    6.23
   8  -4  20   -0.56    1.64
   9  -4  20    2.77    2.40
   8   3 -20   -0.49    2.68
   7   3 -20   53.34    7.35
   6   3 -20   -0.79    2.22
   5   3 -20   44.02    6.11
   4   3 -20    1.76    2.43
  -3  -3  20   14.35    2.93
   3   3 -20   12.18    3.53
   2   3 -20   20.21    3.96
  -2  -3  20   24.88    3.50
  -1  -3  20   31.34    3.79
   1   3 -20   30.09    4.37
   0   3 -20   25.97    3.96
   0  -3  20   30.00    3.78
   1  -3  20   95.08    6.09
  -1   3 -20   88.53    6.44
   2  -3  20   27.62    3.71
   3  -3  20   10.21    2.75
   4  -3  20    6.41    2.64
   5  -3  20    0.87    2.12
   6  -3  20    5.85    2.65
   7  -3  20   12.83    3.44
   8  -3  20   13.62    3.67
   8   2 -20   -0.99    1.73
   7   2 -20   -6.10    1.83
   6   2 -20  123.86    9.71
   5   2 -20   -1.97    1.91
   4   2 -20    1.30    2.05
   3   2 -20   21.24    4.19
   2   2 -20    2.87    2.49
  -2  -2  20    3.96    1.85
  -1  -2  20    8.81    2.33
   1   2 -20    7.92    2.73
   0  -2  20   37.00    3.83
   0   2 -20   30.46    4.39
  -1   2 -20   25.12    3.84
   1  -2  20   24.88    3.36
   2  -2  20    9.39    2.42
  -2   2 -20    8.17    2.44
   3  -2  20    6.75    2.53
   4  -2  20   16.36    3.01
   5  -2  20   54.48    5.03
   6  -2  20   11.66    3.27
   7  -2  20   13.29    3.41
   8  -2  20    1.19    2.06
  -9   2 -20   21.34    5.31
  -9   2 -20   28.06    5.98
 -10   2 -20   -0.68    2.81
 -10   2 -20    1.07    3.45
   8   1 -20   -3.95    1.79
   7   1 -20    3.66    3.22
   6   1 -20   15.53    4.41
   5   1 -20   -0.45    1.84
   4   1 -20    1.05    2.35
   3   1 -20   62.11    6.66
   2   1 -20    0.64    1.88
   1   1 -20   40.25    4.88
  -1  -1  20   34.16    3.51
   0   1 -20   24.67    3.85
   0  -1  20   24.15    3.13
  -1   1 -20    4.67    2.20
   1  -1  20    3.04    1.69
  -2   1 -20    8.59    2.44
   2  -1  20    9.44    2.47
   3  -1  20   72.33    5.24
   4  -1  20    5.56    2.32
   5  -1  20   38.16    4.28
   6  -1  20   10.97    2.98
   7  -1  20    5.75    2.69
  -9   1 -20    0.32    2.53
  -9   1 -20    1.83    2.26
 -10   1 -20   24.48    5.54
 -10   1 -20   21.83    4.87
   9   0 -20   -8.12    2.61
   8   0 -20    0.20    2.59
   7   0 -20    2.89    2.83
   6   0 -20    3.21    2.70
   5   0 -20    7.20    3.17
   4   0 -20  215.08   12.19
   3   0 -20    1.04    2.04
   2   0 -20   18.25    3.91
   1   0 -20   31.22    4.67
   0   0  20   -1.17    1.15
   0   0 -20   -2.37    1.45
   1   0  20   31.10    3.49
  -1   0 -20   37.61    4.51
  -2   0 -20   24.49    3.66
   2   0  20   21.66    3.06
  -3   0 -20   51.43    4.45
   3   0  20   49.87    4.38
   4   0  20    8.06    2.60
   5   0  20   37.15    4.19
   6   0  20    1.70    1.97
  -8   0 -20   10.23    3.29
  -8   0 -20   15.77    3.88
  -9   0 -20   11.74    3.56
  -9   0 -20   16.45    4.14
 -10   0 -20    4.66    2.60
 -10   0 -20    4.76    2.92
 -11   0 -20    0.66    3.49
 -11   0 -20    4.95    3.56
   9  -1 -20    1.47    3.61
   8  -1 -20    2.48    2.27
   7  -1 -20   26.29    5.49
   6  -1 -20    7.67    3.58
   5  -1 -20   21.56    4.77
   4  -1 -20    6.27    2.67
   3  -1 -20   24.33    4.57
   2  -1 -20    1.88    2.39
   1  -1 -20   13.30    3.54
   0  -1 -20   14.75    3.60
   1   1  20   24.84    2.96
  -1  -1 -20   18.73    2.93
  -1  -1 -20   18.75    3.88
   2   1  20   17.73    2.80
   3   1  20   39.90    4.00
   4   1  20    4.45    2.24
   5   1  20   52.32    4.63
  -6  -1 -20   -1.02    2.01
  -6  -1 -20   -0.89    2.27
  -7  -1 -20   15.04    3.77
  -7  -1 -20   22.79    4.51
  -8  -1 -20   28.14    4.41
  -8  -1 -20   53.95    6.10
  -9  -1 -20   14.09    3.42
  -9  -1 -20   11.99    3.14
 -10  -1 -20    4.46    2.62
 -10  -1 -20   -1.72    2.63
 -11  -1 -20    3.93    3.08
   9  -2 -20    4.40    4.18
   8  -2 -20    0.74    3.61
   7  -2 -20   30.19    5.80
   6  -2 -20   37.68    5.94
   5  -2 -20   -2.11    2.06
   4  -2 -20    6.40    3.09
   3  -2 -20   71.28    7.10
   2  -2 -20   64.78    6.21
   1  -2 -20    2.15    1.46
   1  -2 -20    4.10    2.83
   0  -2 -20   25.55    3.08
  -1  -2 -20   26.95    3.38
   2   2  20    3.37    1.68
  -2  -2 -20    6.95    2.32
   3   2  20   17.64    2.83
  -5  -2 -20   19.56    3.84
  -5  -2 -20   19.26    3.75
  -6  -2 -20   46.70    5.28
  -6  -2 -20   32.48    4.54
  -7  -2 -20   82.79    6.66
  -8  -2 -20    8.38    2.91
  -8  -2 -20    3.54    2.62
  -9  -2 -20    5.60    2.44
 -10  -2 -20    1.96    2.58
 -11  -2 -20    3.96    2.55
   9  -3 -20    1.50    3.34
   8  -3 -20   12.72    4.24
   7  -3 -20    9.21    3.50
   6  -3 -20   -2.92    1.64
   5  -3 -20   11.26    3.87
   4  -3 -20    8.33    3.30
   3  -3 -20   38.56    5.41
   2  -3 -20    7.88    2.99
   2  -3 -20    2.23    1.37
   1  -3 -20  123.71    6.46
   0  -3 -20    1.50    1.52
  -1  -3 -20    2.10    1.69
  -2  -3 -20   25.84    3.83
  -3  -3 -20    8.84    2.38
  -3  -3 -20   18.22    3.24
  -4  -3 -20    0.13    1.81
  -4  -3 -20    2.29    1.72
  -5  -3 -20    8.15    2.63
  -5  -3 -20    4.06    2.03
  -6  -3 -20   20.50    3.77
  -6  -3 -20   20.83    3.86
  -7  -3 -20    7.87    3.10
  -7  -3 -20    1.50    2.16
  -8  -3 -20    9.97    3.20
  -9  -3 -20   -0.07    2.11
 -11  -3 -20    2.00    2.00
   8  -4 -20   10.74    3.45
   7  -4 -20    5.95    2.67
   6  -4 -20    0.11    2.10
   5  -4 -20   28.75    5.33
   4  -4 -20   47.14    6.27
   4  -4 -20   54.04    4.52
   3  -4 -20    9.51    2.31
   3  -4 -20    9.94    3.46
   2  -4 -20   16.14    2.84
   1  -4 -20   44.14    4.02
   0  -4 -20    3.74    1.85
  -1  -4 -20    4.81    2.15
  -2  -4 -20    8.22    2.71
  -3  -4 -20    2.31    1.92
  -3  -4 -20    0.89    1.75
  -3  -4 -20    1.45    1.80
  -4  -4 -20   29.65    3.91
  -4  -4 -20   26.46    3.95
  -5  -4 -20    1.38    1.88
  -6  -4 -20   14.11    3.52
  -7  -4 -20    0.53    2.00
  -8  -4 -20   12.31    2.95
  -9  -4 -20    5.48    2.11
 -10  -4 -20    2.79    1.56
 -11  -4 -20    0.65    1.26
   8  -5 -20   -3.14    2.55
   7  -5 -20   -3.13    2.10
   6  -5 -20    7.22    3.49
   5  -5 -20   11.74    3.72
   5  -5 -20   13.82    2.87
   4  -5 -20   -2.96    2.18
   4  -5 -20    4.03    1.75
   3  -5 -20   69.65    5.28
   2  -5 -20   12.94    2.77
   1  -5 -20    1.46    1.70
   0  -5 -20   13.69    3.02
  -1  -5 -20  143.76    8.03
  -2  -5 -20    3.21    1.99
  -3  -5 -20    2.44    2.20
  -4  -5 -20   12.49    2.83
  -5  -5 -20   10.76    3.02
  -6  -5 -20    3.65    2.20
  -7  -5 -20   -2.70    1.80
  -8  -5 -20    3.74    1.86
  -9  -5 -20   -0.99    1.19
 -11  -5 -20    0.18    1.39
   8  -6 -20    3.49    3.24
   6  -6 -20   12.69    4.00
   6  -6 -20    8.60    2.59
   5  -6 -20    5.94    2.43
   5  -6 -20    7.12    3.29
   4  -6 -20    9.98    2.67
   3  -6 -20    2.24    1.82
   2  -6 -20   11.65    2.82
   1  -6 -20    3.00    2.05
   0  -6 -20   30.34    4.03
  -1  -6 -20    3.20    2.07
  -2  -6 -20   30.42    3.87
  -3  -6 -20    4.75    2.50
  -4  -6 -20    8.21    2.93
  -5  -6 -20    2.91    1.71
  -6  -6 -20   16.23    2.99
  -7  -6 -20    0.13    1.52
  -8  -6 -20    8.11    2.30
  -9  -6 -20    1.93    1.40
 -11  -6 -20    1.55    1.42
   7  -7 -20    9.52    3.19
   7  -7 -20    2.87    3.53
   6  -7 -20    2.04    2.26
   6  -7 -20    3.91    1.81
   5  -7 -20   20.65    4.68
   5  -7 -20   17.02    3.33
   4  -7 -20   17.05    3.40
   3  -7 -20    4.75    2.08
   2  -7 -20    5.12    2.25
   1  -7 -20   26.58    3.71
   0  -7 -20    0.80    1.83
  -1  -7 -20   36.36    4.61
  -2  -7 -20   31.68    4.46
  -3  -7 -20    3.82    2.60
  -4  -7 -20    2.56    2.31
  -5  -7 -20    3.29    2.39
  -6  -7 -20    7.35    2.54
  -7  -7 -20    3.48    2.25
  -8  -7 -20    1.38    1.95
  -9  -7 -20    2.38    1.49
 -10  -7 -20    0.41    1.36
 -11  -7 -20    0.89    1.40
   7  -8 -20    5.99    2.98
   7  -8 -20    9.17    4.35
   6  -8 -20    2.81    2.00
   6  -8 -20    0.87    1.78
   5  -8 -20    4.43    1.86
   4  -8 -20    3.67    2.10
   3  -8 -20   30.11    4.19
   2  -8 -20   29.62    4.10
   1  -8 -20    1.57    2.09
   0  -8 -20    6.96    2.79
  -1  -8 -20    2.88    2.49
  -2  -8 -20   18.71    3.51
  -3  -8 -20    0.82    1.99
  -4  -8 -20   36.45    5.00
  -5  -8 -20    4.57    2.75
  -6  -8 -20    6.79    3.01
  -7  -8 -20   -0.80    1.60
  -8  -8 -20    7.25    2.62
  -9  -8 -20    1.79    2.09
 -10  -8 -20    2.50    2.20
   6  -9 -20    8.09    2.79
   6  -9 -20    4.52    3.24
   5  -9 -20   20.87    3.92
   4  -9 -20   -2.85    1.45
   3  -9 -20   25.66    4.13
   2  -9 -20    2.03    1.69
   1  -9 -20    7.02    2.64
   0  -9 -20    9.25    3.01
  -1  -9 -20   40.31    4.85
  -2  -9 -20   15.74    3.68
  -3  -9 -20   38.18    5.17
  -4  -9 -20   16.92    4.07
  -5  -9 -20    4.11    2.30
  -6  -9 -20    2.56    2.29
  -7  -9 -20    3.99    2.91
  -8  -9 -20    3.58    2.12
  -9  -9 -20   -0.64    1.93
 -10  -9 -20    0.32    1.99
   4 -10 -20   14.41    3.38
   3 -10 -20    4.05    2.30
   2 -10 -20    1.94    1.91
   1 -10 -20   20.22    3.97
   0 -10 -20    9.48    3.12
  -1 -10 -20   -0.21    1.59
  -2 -10 -20   27.18    4.62
  -3 -10 -20    0.88    1.79
  -4 -10 -20    1.42    1.60
  -5 -10 -20    1.00    1.61
  -6 -10 -20    3.30    2.60
  -7 -10 -20   -0.82    1.58
  -8 -10 -20    2.80    1.85
 -10 -10 -20    4.07    2.40
   3 -11 -20    5.27    2.21
   2 -11 -20    5.23    2.51
   1 -11 -20   14.05    3.44
   0 -11 -20    1.09    1.88
  -1 -11 -20    5.37    2.45
  -2 -11 -20    7.79    3.00
  -3 -11 -20    8.21    3.05
  -4 -11 -20    1.12    1.86
  -5 -11 -20    0.73    1.92
  -6 -11 -20    0.18    1.25
  -7 -11 -20   -0.14    1.55
   0 -12 -20    2.93    2.19
  -1 -12 -20    5.33    2.43
  -2 -12 -20    0.47    1.77
  -3 -12 -20   -2.26    1.10
  -4 -12 -20    1.20    1.47
  -5 -12 -20   -0.24    1.74
   4   9 -21   17.18    5.66
  -3  -9  21   14.05    4.30
  -2  -9  21    1.50    1.99
  -1  -9  21    1.01    2.04
   0  -9  21    0.48    1.94
   1  -9  21    0.46    2.02
  -6  -8  21   -1.69    2.76
  -5  -8  21   45.83    6.00
   5   8 -21   49.70    7.28
   4   8 -21   15.32    4.26
  -4  -8  21   15.65    3.48
   3   8 -21   31.80    5.66
  -3  -8  21   24.74    4.52
  -2  -8  21    6.91    3.20
  -1  -8  21    1.46    2.28
   0  -8  21    1.13    2.10
   1  -8  21   -1.67    1.68
   2  -8  21    0.84    1.20
   3  -8  21    1.93    1.70
   4  -8  21    0.36    1.73
   6   7 -21   39.84    7.17
   5   7 -21   -2.17    2.92
  -5  -7  21    0.72    2.38
   4   7 -21   65.97    8.05
  -4  -7  21   85.14    6.94
  -3  -7  21    5.16    2.67
   3   7 -21   -0.31    2.68
   2   7 -21    1.47    2.82
  -2  -7  21    9.41    3.23
  -1  -7  21   11.82    3.43
   0  -7  21   50.72    5.68
   1  -7  21   13.12    3.51
   2  -7  21    4.82    2.64
   3  -7  21    5.02    2.77
   4  -7  21   -0.10    1.59
   5  -7  21   -0.45    1.53
   6  -7  21    2.11    2.59
   6   6 -21    2.08    2.67
  -5  -6  21   22.72    4.05
  -4  -6  21    4.42    2.44
   4   6 -21    3.09    2.54
   3   6 -21    3.30    2.73
  -3  -6  21    7.60    2.60
  -2  -6  21   18.93    3.68
   2   6 -21   16.52    4.06
  -1  -6  21   60.61    5.89
   0  -6  21   27.94    4.24
   1  -6  21    5.05    2.69
   2  -6  21    3.38    2.61
   3  -6  21    0.00    1.95
   4  -6  21    7.90    3.06
   5  -6  21   -0.26    2.27
   6  -6  21    1.54    1.33
   7  -6  21    4.12    2.48
   7   5 -21   10.20    3.99
   6   5 -21   -2.96    2.41
   5   5 -21    3.38    2.91
   4   5 -21    5.09    3.07
  -4  -5  21    4.18    2.34
  -3  -5  21    8.88    2.71
   3   5 -21    5.68    3.20
  -2  -5  21  159.89    8.91
   2   5 -21  155.47   10.48
  -1  -5  21   20.80    3.75
   1   5 -21   23.94    4.50
   0  -5  21    3.24    2.23
   1  -5  21    7.07    2.52
   2  -5  21   10.26    3.02
   3  -5  21   11.22    3.17
   4  -5  21   10.93    3.15
   5  -5  21   41.07    5.15
   6  -5  21    3.04    2.55
   7  -5  21    1.08    1.28
   8  -5  21    5.02    2.47
   7   4 -21    8.20    3.58
   6   4 -21   18.11    4.72
   5   4 -21   60.80    7.45
   4   4 -21   10.54    3.78
   3   4 -21   37.37    5.56
  -3  -4  21   34.34    4.20
   2   4 -21   -0.06    2.04
  -2  -4  21    0.01    1.74
  -1  -4  21   46.33    4.88
   1   4 -21   49.15    5.69
   0   4 -21    1.20    1.80
   0  -4  21   -1.24    1.44
   1  -4  21   29.12    3.92
   2  -4  21   31.58    4.17
   3  -4  21   28.44    4.05
   4  -4  21    6.92    2.93
   5  -4  21    1.52    2.10
   6  -4  21    0.06    2.12
   7  -4  21    4.64    2.75
   8  -4  21    0.52    1.45
   7   3 -21    0.24    2.79
   6   3 -21   61.25    7.45
   5   3 -21    1.70    2.12
   4   3 -21   39.62    5.90
   3   3 -21   -2.38    1.62
  -2  -3  21    4.96    2.25
   2   3 -21    6.29    2.67
   1   3 -21   26.62    4.34
  -1  -3  21   30.86    3.86
   0   3 -21  131.32    8.40
   0  -3  21  134.66    7.39
  -1   3 -21   32.14    4.09
   1  -3  21   24.85    3.64
   2  -3  21   55.41    4.78
   3  -3  21    8.61    2.76
   4  -3  21    4.38    2.25
   5  -3  21    9.16    3.14
   6  -3  21    5.50    2.77
   7  -3  21    8.74    3.28
   8  -3  21    1.18    2.43
   8   2 -21   -3.30    2.39
   7   2 -21    2.56    2.96
   6   2 -21    6.45    3.28
   5   2 -21   88.61    7.98
   4   2 -21   27.38    4.98
   3   2 -21   15.09    3.99
   2   2 -21    5.70    2.76
  -1  -2  21   34.90    3.93
   1   2 -21   36.00    4.91
   0   2 -21    6.43    2.61
   0  -2  21    2.73    1.81
   1  -2  21  193.99    8.95
  -1   2 -21  186.70   10.00
   2  -2  21   40.66    4.29
   3  -2  21    6.13    2.31
   4  -2  21   20.02    3.27
   5  -2  21   26.86    3.83
   6  -2  21   50.16    5.17
   7  -2  21    6.34    2.87
   8  -2  21   14.81    3.75
  -9   2 -21    3.92    3.39
  -9   2 -21    7.51    3.79
   8   1 -21   -5.19    2.20
   7   1 -21   -3.45    2.42
   6   1 -21   13.53    4.08
   5   1 -21    2.88    2.59
   4   1 -21    6.82    3.32
   3   1 -21    2.66    2.44
   2   1 -21   86.49    7.20
  -1  -1  21    2.82    1.75
   1   1 -21    8.47    2.79
   0   1 -21   20.29    3.70
   0  -1  21   16.46    2.77
   1  -1  21    9.42    2.34
  -1   1 -21   10.91    3.03
  -2   1 -21   20.91    3.42
   2  -1  21   19.20    3.14
   3  -1  21    3.68    2.09
   4  -1  21   56.50    4.90
   5  -1  21   27.92    3.82
   6  -1  21   13.68    3.23
   7  -1  21    0.63    1.99
  -9   1 -21    2.39    2.85
  -9   1 -21    3.98    2.59
 -10   1 -21   21.79    5.17
 -10   1 -21   15.73    4.18
   8   0 -21    1.55    2.82
   7   0 -21   -0.54    2.99
   6   0 -21    2.04    2.98
   5   0 -21   14.32    4.11
   4   0 -21    7.00    3.54
   3   0 -21  283.95   14.11
   2   0 -21   11.76    3.51
   1   0 -21    4.44    2.38
   0   0 -21    0.37    1.71
   0   0  21   -0.58    1.10
   1   0  21    2.48    1.70
  -1   0 -21    4.16    2.14
  -2   0 -21   27.14    3.87
   2   0  21   32.51    3.65
   3   0  21  198.39    9.14
  -3   0 -21  200.08    9.70
   4   0  21   91.92    6.16
   5   0  21    0.12    1.81
   6   0  21    1.47    2.20
  -8   0 -21   18.66    3.22
  -8   0 -21   46.48    6.06
  -9   0 -21    9.37    3.70
  -9   0 -21    8.65    3.14
 -10   0 -21   27.65    4.83
 -10   0 -21   25.07    3.92
   8  -1 -21   -0.63    2.58
   7  -1 -21    0.43    2.57
   6  -1 -21   79.96    8.27
   5  -1 -21   11.15    4.02
   4  -1 -21   38.37    5.64
   3  -1 -21    5.24    2.97
   2  -1 -21   22.05    4.53
   1  -1 -21   11.71    3.29
   0  -1 -21   48.87    5.47
   1   1  21   15.33    2.51
  -1  -1 -21   18.11    3.82
  -2  -1 -21   52.48    5.42
   2   1  21   55.98    4.44
   3   1  21    2.74    1.84
   4   1  21   37.82    4.19
   5   1  21   13.47    2.94
  -6  -1 -21   20.96    3.43
  -6  -1 -21   40.79    5.41
  -7  -1 -21   28.85    4.80
  -7  -1 -21   12.70    3.53
  -8  -1 -21   24.52    4.62
  -8  -1 -21   12.47    3.20
  -9  -1 -21   10.73    2.74
  -9  -1 -21   11.85    3.12
 -10  -1 -21   11.04    4.12
 -10  -1 -21   11.71    3.44
   8  -2 -21   -0.46    2.53
   7  -2 -21    4.15    3.27
   6  -2 -21    2.98    2.83
   5  -2 -21   54.91    6.62
   4  -2 -21    6.86    2.97
   3  -2 -21    2.69    2.50
   2  -2 -21    6.17    2.79
   1  -2 -21  193.87   11.10
   0  -2 -21    2.39    1.34
   0  -2 -21    4.21    2.67
  -1  -2 -21   45.89    4.38
   2   2  21    0.92    1.38
  -2  -2 -21    0.74    1.51
   3   2  21   31.88    3.62
  -5  -2 -21  102.83    7.02
  -5  -2 -21   94.79    6.79
  -6  -2 -21   50.54    5.55
  -6  -2 -21   31.31    4.11
  -7  -2 -21   17.55    3.99
  -7  -2 -21    8.23    2.66
  -8  -2 -21    9.62    3.09
  -8  -2 -21   12.27    3.30
  -9  -2 -21   16.58    3.51
  -9  -2 -21   15.48    4.00
 -10  -2 -21    2.78    2.54
 -11  -2 -21    1.28    2.59
   8  -3 -21    1.04    3.10
   7  -3 -21    2.54    3.00
   6  -3 -21    3.02    2.76
   5  -3 -21   -2.43    1.83
   4  -3 -21    3.62    2.84
   3  -3 -21    8.44    3.07
   2  -3 -21   61.87    6.83
   1  -3 -21   -0.71    1.13
   0  -3 -21  174.43    8.11
  -1  -3 -21   59.65    4.82
  -2  -3 -21   15.14    3.16
  -3  -3 -21    8.83    2.49
  -3  -3 -21   12.16    2.97
  -4  -3 -21   26.09    3.79
  -4  -3 -21   28.25    4.27
  -5  -3 -21   17.28    3.75
  -5  -3 -21   17.06    3.42
  -6  -3 -21  107.39    7.26
  -6  -3 -21   88.30    6.74
  -7  -3 -21   34.01    4.03
  -7  -3 -21   32.49    4.18
  -8  -3 -21   13.63    3.57
  -9  -3 -21    6.37    2.88
 -10  -3 -21    7.24    2.45
   8  -4 -21   10.61    4.30
   7  -4 -21    0.66    2.49
   6  -4 -21   13.23    4.21
   5  -4 -21   -2.32    2.00
   4  -4 -21    3.48    2.55
   3  -4 -21   73.56    5.20
   3  -4 -21   62.36    7.39
   2  -4 -21    2.22    1.54
   1  -4 -21   31.44    3.67
   0  -4 -21   34.14    3.95
  -1  -4 -21    2.25    1.76
  -2  -4 -21   21.84    3.54
  -3  -4 -21   67.80    5.81
  -4  -4 -21   11.29    2.89
  -4  -4 -21   14.97    3.24
  -5  -4 -21   29.35    4.19
  -6  -4 -21   10.08    3.10
  -7  -4 -21    5.98    2.98
  -8  -4 -21   -2.34    1.84
 -11  -4 -21    2.14    1.38
   7  -5 -21   -5.91    1.61
   6  -5 -21    8.34    3.76
   5  -5 -21    2.41    2.41
   4  -5 -21   14.37    2.83
   4  -5 -21   19.21    4.64
   3  -5 -21    8.42    2.30
   2  -5 -21   52.13    4.57
   1  -5 -21    0.70    1.76
   0  -5 -21    9.70    3.00
  -1  -5 -21    9.35    2.85
  -2  -5 -21  258.90   11.86
  -3  -5 -21   30.61    4.10
  -4  -5 -21   10.58    3.14
  -5  -5 -21   -1.30    1.71
  -6  -5 -21    3.80    2.30
  -7  -5 -21   13.57    2.72
 -10  -5 -21    1.07    1.53
 -11  -5 -21   -0.69    1.09
   7  -6 -21    3.59    3.15
   6  -6 -21   25.30    5.38
   5  -6 -21   63.61    7.31
   5  -6 -21   63.42    5.42
   4  -6 -21   11.61    3.82
   4  -6 -21   10.70    2.73
   3  -6 -21   10.67    2.68
   2  -6 -21   -0.72    1.52
   1  -6 -21   28.01    3.52
   0  -6 -21    6.02    2.55
  -1  -6 -21   68.71    5.52
  -2  -6 -21    5.57    2.66
  -3  -6 -21   13.49    3.32
  -4  -6 -21   20.55    4.03
  -6  -6 -21    7.02    2.36
  -7  -6 -21    7.80    2.32
  -8  -6 -21    0.50    1.51
  -9  -6 -21    2.98    1.74
 -11  -6 -21    0.58    1.48
   6  -7 -21    4.96    3.09
   6  -7 -21    5.26    2.28
   5  -7 -21   -1.56    1.36
   5  -7 -21    1.92    2.81
   4  -7 -21    4.02    2.08
   3  -7 -21    2.31    1.84
   2  -7 -21   43.60    4.88
   1  -7 -21    5.25    2.69
   0  -7 -21   33.56    4.09
  -1  -7 -21    2.76    2.19
  -2  -7 -21   11.12    3.44
  -3  -7 -21    9.62    3.21
  -5  -7 -21    1.57    2.12
  -7  -7 -21    0.04    1.77
  -8  -7 -21    8.33    2.16
  -9  -7 -21    4.17    1.96
 -10  -7 -21    1.44    1.35
   6  -8 -21    0.17    2.81
   6  -8 -21    4.89    2.37
   5  -8 -21    1.70    1.73
   5  -8 -21    2.31    2.42
   4  -8 -21   12.92    3.15
   3  -8 -21   34.25    4.49
   2  -8 -21    8.12    2.67
   1  -8 -21   31.79    4.31
   0  -8 -21   -1.14    1.60
  -1  -8 -21    1.28    2.32
  -2  -8 -21    1.43    1.94
  -3  -8 -21   35.58    4.97
  -4  -8 -21   -0.61    1.88
  -5  -8 -21   24.89    4.81
  -6  -8 -21   23.77    4.91
  -8  -8 -21    1.40    1.75
  -9  -8 -21    2.08    1.85
 -10  -8 -21    4.86    2.48
   5  -9 -21   17.71    3.72
   4  -9 -21   -0.40    1.71
   3  -9 -21    0.26    1.46
   2  -9 -21   10.54    3.04
   1  -9 -21    6.00    2.61
   0  -9 -21   -1.33    1.44
  -1  -9 -21    8.79    3.13
  -2  -9 -21   20.70    4.19
  -3  -9 -21    0.24    1.85
  -4  -9 -21   44.27    5.58
  -5  -9 -21   13.15    3.92
  -6  -9 -21   11.83    3.54
  -7  -9 -21   10.51    3.31
  -9  -9 -21   -0.32    1.88
 -10  -9 -21   15.89    3.55
   4 -10 -21   19.95    4.04
   3 -10 -21    6.16    2.53
   2 -10 -21    6.50    2.79
   1 -10 -21    9.36    3.03
   0 -10 -21    0.11    1.69
  -1 -10 -21    8.31    3.18
  -2 -10 -21   -0.41    1.85
  -3 -10 -21   46.81    5.76
  -4 -10 -21    4.17    2.51
  -5 -10 -21    0.14    1.62
  -6 -10 -21    5.01    2.48
  -7 -10 -21    1.24    1.77
  -8 -10 -21    3.08    2.16
   2 -11 -21   -0.06    1.36
   1 -11 -21    8.65    2.90
   0 -11 -21   54.07    6.16
  -1 -11 -21   -0.47    1.64
  -2 -11 -21   12.06    3.44
  -3 -11 -21   -0.96    1.98
  -4 -11 -21   10.06    3.26
  -5 -11 -21    1.64    1.69
  -6 -11 -21    1.36    1.77
  -1 -12 -21   -0.65    1.74
  -2 -12 -21   -2.40    1.32
  -3 -12 -21    7.76    3.08
  -4 -12 -21    2.25    1.84
  -5  -8  22    4.09    3.29
   4   8 -22   16.49    4.89
  -4  -8  22   17.34    4.51
  -3  -8  22    4.62    2.91
  -2  -8  22   10.07    3.33
  -1  -8  22    1.82    1.63
   0  -8  22   -0.94    1.34
   1  -8  22    0.90    1.65
   2  -8  22   -1.64    1.60
   3  -8  22   -0.71    1.94
   5   7 -22   56.99    8.00
  -5  -7  22   68.12    6.14
  -4  -7  22    9.20    3.26
   4   7 -22    4.57    3.20
   3   7 -22   12.92    3.95
  -3  -7  22    9.77    3.22
  -2  -7  22   -3.19    1.74
  -1  -7  22    1.54    2.16
   0  -7  22   10.70    3.39
   1  -7  22   29.72    4.58
   2  -7  22   -1.87    1.92
   3  -7  22    0.23    1.31
   4  -7  22    0.69    1.56
   5  -7  22   -0.70    2.02
   6   6 -22   29.81    6.28
   5   6 -22   -0.16    2.30
  -4  -6  22   22.38    4.07
   4   6 -22   22.87    5.26
  -3  -6  22    2.34    2.42
   3   6 -22    6.22    2.57
   2   6 -22   28.47    5.15
  -2  -6  22   30.98    4.59
  -1  -6  22   21.09    4.05
   0  -6  22   46.71    5.32
   1  -6  22   30.81    4.50
   2  -6  22    0.28    1.78
   3  -6  22    3.42    2.23
   4  -6  22    0.88    2.33
   5  -6  22    0.40    1.31
   6  -6  22    0.18    1.84
   6   5 -22   -1.04    2.28
   5   5 -22   -3.23    2.23
   4   5 -22    5.98    3.50
   3   5 -22   45.74    6.27
  -3  -5  22   50.65    5.42
   2   5 -22   16.50    4.12
  -2  -5  22   11.43    3.05
   1   5 -22   43.53    5.72
  -1  -5  22   57.55    5.30
   0  -5  22    3.31    2.17
   1  -5  22    6.88    2.73
   2  -5  22    1.24    2.00
   3  -5  22   11.01    3.01
   4  -5  22   14.26    3.60
   5  -5  22    3.90    2.85
   6  -5  22   -1.28    1.58
   7  -5  22    0.14    1.64
   6   4 -22    1.25    2.99
   5   4 -22    5.61    3.14
   4   4 -22   74.82    7.86
   3   4 -22    8.03    3.06
   2   4 -22   45.69    5.88
  -2  -4  22   55.73    5.29
  -1  -4  22    2.98    2.05
   1   4 -22    0.53    1.85
   0  -4  22    3.18    2.13
   0   4 -22    3.71    2.11
   1  -4  22   -0.09    1.70
   2  -4  22   40.47    4.74
   3  -4  22   45.42    5.05
   4  -4  22   10.03    3.14
   5  -4  22    3.11    2.38
   6  -4  22    6.12    2.97
   7  -4  22    0.88    1.75
   8  -4  22    1.33    2.16
   7   3 -22   -1.23    2.38
   6   3 -22    2.16    2.92
   5   3 -22   67.06    7.48
   4   3 -22    0.34    2.10
   3   3 -22   35.26    5.39
   2   3 -22   12.24    3.40
  -2  -3  22   17.74    3.19
  -1  -3  22    2.98    1.83
   1   3 -22    0.13    1.94
   0   3 -22   26.33    4.26
   0  -3  22   21.62    3.49
   1  -3  22   52.31    4.70
   2  -3  22   26.16    3.71
   3  -3  22   34.85    4.14
   4  -3  22    1.23    2.05
   5  -3  22    1.04    2.24
   6  -3  22    4.50    2.78
   7  -3  22   10.95    3.40
   8  -3  22    0.79    1.65
   7   2 -22   -0.30    2.45
   6   2 -22   53.10    7.15
   5   2 -22    0.72    2.11
   4   2 -22    7.49    3.20
   3   2 -22   17.83    4.31
   2   2 -22    0.04    1.93
  -1  -2  22   39.25    4.14
   1   2 -22   33.56    4.89
   0   2 -22  105.05    7.59
   0  -2  22  108.56    6.52
   1  -2  22   18.24    3.15
  -1   2 -22   18.05    3.53
   2  -2  22   28.38    3.78
   3  -2  22   11.13    2.77
   4  -2  22    2.60    1.95
   5  -2  22   12.76    3.14
   6  -2  22   13.77    3.50
   7  -2  22    7.96    3.06
   8  -2  22   -1.77    1.94
  -9   2 -22    9.22    3.44
  -9   2 -22   12.95    4.39
   7   1 -22   -2.30    1.99
   6   1 -22   -2.92    1.95
   5   1 -22   15.67    4.53
   4   1 -22    4.10    2.47
   3   1 -22   30.26    5.24
   2   1 -22    8.70    3.42
   1   1 -22  111.10    7.97
   0   1 -22    4.64    2.57
   0  -1  22    4.85    2.07
  -1   1 -22   25.20    3.89
   1  -1  22   28.14    3.60
   2  -1  22    8.62    2.54
  -2   1 -22    9.88    2.70
   3  -1  22   49.91    4.58
   4  -1  22   19.11    3.22
   5  -1  22   81.09    6.12
   6  -1  22   25.38    4.01
   7  -1  22    9.75    3.19
  -9   1 -22   12.17    4.17
  -9   1 -22    5.09    3.11
   7   0 -22   -0.33    2.02
   6   0 -22    4.96    3.29
   5   0 -22    0.90    2.26
   4   0 -22   67.03    7.51
   3   0 -22    2.98    2.79
   2   0 -22   47.05    5.70
   1   0 -22   61.05    6.20
   0   0 -22   22.14    4.27
  -1   0 -22   18.05    3.78
   1   0  22   18.57    3.02
   2   0  22   62.76    4.88
  -2   0 -22   51.78    5.39
   3   0  22  101.11    6.40
   4   0  22   67.67    5.43
   5   0  22   20.88    3.56
   6   0  22   29.28    4.13
  -8   0 -22   14.83    3.64
  -8   0 -22   27.84    5.15
  -9   0 -22    4.71    2.67
  -9   0 -22   17.19    4.50
 -10   0 -22    5.45    2.28
 -10   0 -22    1.91    2.52
   7  -1 -22   -0.33    1.89
   6  -1 -22    6.31    3.35
   5  -1 -22   76.31    8.00
   4  -1 -22    3.21    2.78
   3  -1 -22   90.23    7.66
   2  -1 -22    3.35    2.66
   1  -1 -22   -1.38    1.81
   0  -1 -22   24.16    4.51
  -1  -1 -22  115.15    7.96
  -2  -1 -22   17.56    3.62
   2   1  22   23.73    3.41
   3   1  22   58.86    4.86
  -3  -1 -22   59.84    5.49
   4   1  22   17.06    3.25
   5   1  22    0.46    1.89
  -6  -1 -22    3.08    2.52
  -6  -1 -22    1.68    2.58
  -7  -1 -22   35.09    5.22
  -7  -1 -22   16.66    3.30
  -8  -1 -22   70.34    7.23
  -9  -1 -22    3.85    2.45
  -9  -1 -22    4.93    2.53
 -10  -1 -22    1.55    2.65
 -10  -1 -22    3.67    2.39
   7  -2 -22    0.32    1.93
   5  -2 -22    0.57    2.53
   4  -2 -22   47.80    6.35
   3  -2 -22   14.30    4.23
   2  -2 -22    3.18    2.35
   1  -2 -22    1.43    1.92
   0  -2 -22  113.16    8.45
  -1  -2 -22   21.25    3.27
  -2  -2 -22   79.27    5.93
   3   2  22   15.58    2.92
  -5  -2 -22   81.06    6.40
  -5  -2 -22   76.55    6.26
  -6  -2 -22   29.70    4.30
  -6  -2 -22   60.01    6.13
  -7  -2 -22   15.45    3.38
  -7  -2 -22   33.83    5.01
  -8  -2 -22   21.23    3.72
  -9  -2 -22    6.23    3.23
  -9  -2 -22    5.48    2.40
 -10  -2 -22    4.35    2.58
   7  -3 -22    0.69    2.52
   6  -3 -22    6.79    3.21
   5  -3 -22   32.85    5.77
   4  -3 -22    0.04    2.33
   3  -3 -22   19.57    4.35
   2  -3 -22    2.30    2.61
   1  -3 -22  218.38   12.48
   0  -3 -22    1.82    1.40
  -1  -3 -22   55.91    4.88
  -2  -3 -22   78.52    5.93
  -3  -3 -22   41.83    4.95
  -4  -3 -22   79.75    6.05
  -4  -3 -22   80.15    5.97
  -5  -3 -22   49.66    4.77
  -5  -3 -22   44.71    5.01
  -6  -3 -22   27.69    4.13
  -6  -3 -22   19.20    3.50
  -7  -3 -22   26.29    3.92
  -7  -3 -22   27.04    4.08
  -8  -3 -22   19.74    3.87
  -9  -3 -22   -3.67    1.73
   7  -4 -22   -1.89    2.55
   6  -4 -22   -1.98    1.98
   5  -4 -22    1.26    2.55
   4  -4 -22   35.07    5.89
   3  -4 -22    9.81    3.21
   2  -4 -22  124.49    9.41
   1  -4 -22    2.95    1.83
   0  -4 -22   30.58    3.93
  -1  -4 -22    0.41    1.45
  -2  -4 -22   17.99    3.42
  -3  -4 -22   10.99    3.21
  -5  -4 -22   -2.34    1.73
  -5  -4 -22    1.71    1.90
  -6  -4 -22   40.27    4.87
  -7  -4 -22    5.76    2.83
  -8  -4 -22    9.28    2.88
  -9  -4 -22    4.10    2.22
 -10  -4 -22    6.03    1.96
   7  -5 -22    1.00    3.02
   6  -5 -22    0.64    1.81
   5  -5 -22   14.63    4.18
   4  -5 -22   11.57    3.78
   3  -5 -22   18.87    3.13
   3  -5 -22   28.41    5.42
   2  -5 -22    5.43    2.17
   1  -5 -22   11.92    2.73
   0  -5 -22    4.40    2.41
  -1  -5 -22  137.37    7.90
  -2  -5 -22    1.54    2.14
  -4  -5 -22   36.05    4.78
  -6  -5 -22   11.61    3.19
  -7  -5 -22   10.05    2.62
   6  -6 -22    0.48    2.39
   5  -6 -22    2.36    2.62
   4  -6 -22   10.57    2.84
   4  -6 -22   19.42    4.81
   3  -6 -22    1.95    1.68
   2  -6 -22    0.44    1.39
   1  -6 -22    0.19    1.71
   0  -6 -22   59.12    5.37
  -1  -6 -22    2.25    2.26
  -2  -6 -22  133.91    8.54
  -3  -6 -22   18.75    3.40
  -4  -6 -22    1.92    2.62
  -5  -6 -22   45.68    5.99
  -7  -6 -22    9.16    2.33
  -9  -6 -22    1.39    1.27
 -10  -6 -22   -0.26    2.02
   6  -7 -22   26.91    5.88
   5  -7 -22   31.17    4.30
   4  -7 -22   10.91    2.98
   3  -7 -22    1.23    1.62
   2  -7 -22    4.12    2.27
   1  -7 -22   24.51    3.87
   0  -7 -22   -0.66    2.14
  -1  -7 -22   39.87    4.67
  -2  -7 -22    7.13    3.12
  -3  -7 -22    2.84    2.50
  -4  -7 -22    1.90    2.10
  -5  -7 -22   27.27    4.88
  -8  -7 -22    1.40    1.81
  -9  -7 -22   -0.28    1.44
 -10  -7 -22    4.67    1.78
   6  -8 -22   16.10    4.31
   5  -8 -22   -0.25    2.76
   5  -8 -22    1.40    1.90
   4  -8 -22    0.60    1.79
   3  -8 -22    1.40    1.65
   2  -8 -22   27.65    4.13
   1  -8 -22    3.45    2.04
   0  -8 -22   30.10    3.87
  -1  -8 -22   10.48    3.41
  -2  -8 -22    5.41    2.85
  -3  -8 -22    3.62    2.70
  -4  -8 -22  116.54    8.68
  -5  -8 -22   19.98    4.36
  -6  -8 -22   23.28    4.98
  -9  -8 -22    9.48    2.47
 -10  -8 -22    4.79    2.36
   4  -9 -22   13.08    3.38
   3  -9 -22   53.37    5.73
   2  -9 -22   20.78    3.89
   1  -9 -22    4.86    2.09
  -1  -9 -22   15.49    3.72
  -2  -9 -22   -0.27    1.85
  -3  -9 -22   60.79    6.36
  -4  -9 -22    5.03    2.68
  -5  -9 -22   61.49    6.87
  -6  -9 -22    0.22    1.91
  -7  -9 -22    7.58    3.21
  -8  -9 -22    4.78    2.42
 -10  -9 -22    6.38    3.47
   3 -10 -22    4.45    2.07
   2 -10 -22   12.79    3.18
   1 -10 -22    2.77    1.93
   0 -10 -22   10.99    3.45
  -1 -10 -22   -0.44    1.82
  -2 -10 -22   39.55    5.51
  -3 -10 -22   -0.16    2.02
  -4 -10 -22   18.22    4.29
  -5 -10 -22   10.45    3.47
  -6 -10 -22   24.45    5.11
  -7 -10 -22    1.29    1.69
   1 -11 -22   16.98    3.70
   0 -11 -22   13.70    3.73
  -1 -11 -22   24.86    4.58
  -2 -11 -22    2.89    2.53
  -3 -11 -22    1.24    2.37
  -4 -11 -22    1.34    1.89
  -5 -11 -22   27.28    4.89
  -3  -8  23   11.74    4.22
  -2  -8  23    0.61    3.02
  -1  -8  23    1.81    3.00
   0  -8  23    2.53    2.14
   1  -8  23    0.27    1.76
  -4  -7  23   37.23    4.99
   4   7 -23   25.30    6.10
   3   7 -23    3.02    2.99
  -3  -7  23    6.54    2.99
  -2  -7  23   -1.10    1.85
  -1  -7  23    4.27    2.69
   0  -7  23   11.24    3.39
   1  -7  23   -0.08    1.43
   2  -7  23   -0.70    1.26
   3  -7  23    1.52    1.54
   4  -7  23    0.69    1.96
   5   6 -23   15.21    4.27
   4   6 -23   -2.61    2.10
  -3  -6  23    3.51    2.47
   3   6 -23    8.28    3.72
  -2  -6  23    0.81    1.84
   2   6 -23    2.64    2.49
  -1  -6  23   21.91    3.97
   0  -6  23   22.01    4.07
   1  -6  23    4.77    2.66
   2  -6  23    7.95    2.85
   3  -6  23    0.23    1.98
   4  -6  23   -1.20    1.17
   5  -6  23    1.18    1.98
   5   5 -23   -4.34    2.21
   4   5 -23    5.91    3.36
  -3  -5  23   -0.10    1.82
   3   5 -23    2.40    2.10
  -2  -5  23   38.92    4.76
   2   5 -23   31.83    5.35
  -1  -5  23    8.86    2.91
   1   5 -23   14.17    3.94
   0  -5  23   12.63    3.18
   1  -5  23    3.10    2.10
   2  -5  23    5.34    2.59
   3  -5  23   -3.30    1.40
   4  -5  23    2.37    2.38
   5  -5  23   -0.44    1.95
   6  -5  23    0.91    1.89
   6   4 -23   -0.90    2.64
   5   4 -23   10.45    3.72
   4   4 -23   -3.49    2.09
   3   4 -23   37.76    5.71
   2   4 -23   -2.50    1.97
  -2  -4  23    0.92    1.79
  -1  -4  23   33.86    4.32
   1   4 -23   22.32    4.34
   0  -4  23    5.79    2.58
   1  -4  23    8.36    2.83
   2  -4  23   21.95    3.64
   3  -4  23   29.54    4.27
   4  -4  23   24.14    3.95
   5  -4  23    8.43    2.98
   6  -4  23    0.20    2.32
   7  -4  23   -0.67    1.62
   6   3 -23   13.30    4.59
   4   3 -23   70.02    7.49
   3   3 -23    2.63    2.64
   2   3 -23   17.89    4.15
   1   3 -23   44.36    5.51
  -1  -3  23   49.26    4.85
   0  -3  23   14.90    3.08
   0   3 -23   16.23    3.62
   1  -3  23   20.80    3.54
   2  -3  23   27.15    3.90
   3  -3  23   11.74    3.10
   4  -3  23   -0.02    1.88
   5  -3  23    2.07    2.30
   6  -3  23    2.56    2.48
   7  -3  23   -0.11    2.12
   8  -3  23    0.14    2.02
   6   2 -23    1.42    2.50
   5   2 -23   38.15    6.02
   4   2 -23   -0.88    2.28
   3   2 -23    2.30    2.35
   2   2 -23   10.93    3.45
   1   2 -23   15.11    3.89
   0   2 -23    7.75    2.78
   0  -2  23    1.73    1.80
   1  -2  23   44.21    4.50
  -1   2 -23   51.02    5.36
   2  -2  23   11.15    2.88
   3  -2  23   -1.12    1.57
   4  -2  23    0.05    1.83
   5  -2  23   27.42    4.03
   6  -2  23   16.05    3.55
   7  -2  23    4.10    2.91
   8  -2  23   -0.57    1.22
   7   1 -23    0.95    3.25
   6   1 -23   13.76    4.14
   5   1 -23   -4.10    1.87
   4   1 -23    7.60    3.01
   3   1 -23    7.82    3.61
   2   1 -23   62.98    6.87
   1   1 -23   19.31    4.18
   0   1 -23   86.58    6.96
  -1   1 -23   30.86    4.40
   1  -1  23   35.04    4.06
   2  -1  23    7.59    2.46
   3  -1  23    2.51    2.04
   4  -1  23   11.95    2.84
   5  -1  23   25.30    3.71
   6  -1  23   25.69    4.14
   7  -1  23   33.78    4.69
  -9   1 -23   10.49    4.11
  -9   1 -23   10.21    3.51
   7   0 -23   -0.90    3.19
   6   0 -23    3.05    2.88
   5   0 -23    2.60    2.31
   4   0 -23    2.79    2.65
   3   0 -23   37.25    5.65
   2   0 -23    2.99    2.42
   1   0 -23   53.16    5.91
   0   0 -23    4.56    2.38
  -1   0 -23    0.29    1.83
   2   0  23    0.32    1.96
  -2   0 -23    2.09    1.76
   3   0  23   84.04    5.87
   4   0  23   21.44    3.44
   5   0  23    6.49    2.68
   6   0  23    6.16    2.60
  -8   0 -23    4.67    2.74
  -8   0 -23    4.72    2.97
  -9   0 -23    5.72    3.16
  -9   0 -23    4.23    3.16
   7  -1 -23    2.32    3.40
   6  -1 -23   -0.26    2.37
   5  -1 -23    2.22    2.88
   4  -1 -23   51.14    6.68
   3  -1 -23    6.95    3.01
   2  -1 -23   67.91    7.08
   1  -1 -23    0.25    2.05
   0  -1 -23   12.63    3.74
  -1  -1 -23   33.04    4.87
  -2  -1 -23   85.19    6.74
   2   1  23   76.91    5.59
   3   1  23    6.38    2.51
  -3  -1 -23    7.62    2.56
   4   1  23   73.58    5.64
   5   1  23   16.81    3.34
  -6  -1 -23    9.31    2.93
  -6  -1 -23   10.30    3.82
  -7  -1 -23   22.06    4.78
  -7  -1 -23   11.33    3.24
  -8  -1 -23   38.33    5.67
  -9  -1 -23   17.71    3.58
 -10  -1 -23    4.83    2.82
 -10  -1 -23    1.95    2.50
   7  -2 -23   -1.26    3.12
   6  -2 -23    2.31    2.36
   5  -2 -23   36.84    5.92
   4  -2 -23    7.22    3.04
   3  -2 -23    8.36    3.28
   2  -2 -23    3.78    2.70
   1  -2 -23   24.52    4.83
   0  -2 -23    6.39    2.75
  -1  -2 -23  132.20    9.08
  -2  -2 -23   13.70    3.08
   3   2  23   26.59    3.63
  -5  -2 -23   46.93    5.38
  -5  -2 -23   28.31    4.12
  -6  -2 -23    7.99    3.03
  -6  -2 -23    5.88    2.71
  -7  -2 -23   29.41    4.59
  -7  -2 -23   20.94    3.15
  -8  -2 -23    3.80    2.50
  -8  -2 -23    7.50    2.47
  -9  -2 -23    5.97    2.90
  -9  -2 -23    6.03    2.39
 -10  -2 -23    0.36    2.13
   7  -3 -23    1.86    3.47
   6  -3 -23   -2.65    1.57
   5  -3 -23    3.67    2.86
   4  -3 -23    0.46    2.59
   3  -3 -23    3.83    2.58
   2  -3 -23   31.68    5.32
   1  -3 -23    0.29    2.34
  -1  -3 -23   -0.60    1.40
  -2  -3 -23    7.98    2.73
  -3  -3 -23   -0.10    1.76
  -4  -3 -23    3.57    2.42
  -4  -3 -23   -0.02    1.81
  -5  -3 -23   40.85    4.72
  -5  -3 -23   62.79    5.44
  -6  -3 -23   62.36    5.73
  -7  -3 -23   26.41    4.06
  -8  -3 -23    5.87    2.95
 -10  -3 -23    4.76    2.18
   6  -4 -23   -0.50    1.81
   5  -4 -23   -2.85    2.18
   4  -4 -23    5.81    3.00
   3  -4 -23   40.68    6.09
   2  -4 -23    7.65    3.06
   0  -4 -23   10.90    3.09
  -1  -4 -23   -2.30    1.22
  -2  -4 -23    2.44    2.05
  -3  -4 -23   16.33    3.54
  -5  -4 -23   76.24    5.97
  -5  -4 -23   56.56    5.34
  -6  -4 -23   31.23    4.49
  -7  -4 -23    1.58    2.61
  -8  -4 -23   -0.58    2.02
  -9  -4 -23    6.17    2.41
 -10  -4 -23    1.02    1.47
   6  -5 -23   -1.43    2.64
   5  -5 -23    0.25    1.98
   4  -5 -23    9.28    3.66
   3  -5 -23    8.04    3.88
   2  -5 -23   71.07    5.39
   1  -5 -23   -0.47    1.56
   0  -5 -23    0.36    1.86
  -1  -5 -23    2.19    1.97
  -3  -5 -23    2.25    1.94
  -6  -5 -23   31.22    3.95
 -10  -5 -23    2.20    1.67
   5  -6 -23   -1.38    1.98
   4  -6 -23    0.45    2.44
   3  -6 -23    6.50    2.52
   2  -6 -23    7.52    2.44
   1  -6 -23    3.04    2.26
   0  -6 -23   -0.26    1.81
  -1  -6 -23   49.69    4.97
  -2  -6 -23    7.06    2.99
  -4  -6 -23   13.25    3.68
  -5  -6 -23    7.52    3.17
  -9  -6 -23    1.50    1.48
 -10  -6 -23    3.02    1.68
   5  -7 -23    1.84    2.91
   4  -7 -23    1.54    1.86
   4  -7 -23    9.66    2.94
   3  -7 -23   -1.41    1.54
   2  -7 -23    5.82    2.23
   1  -7 -23    2.94    2.09
   0  -7 -23   63.53    5.75
  -1  -7 -23   -2.62    2.09
  -2  -7 -23   38.35    4.96
  -3  -7 -23   11.65    3.44
  -5  -7 -23    3.90    2.59
  -6  -7 -23   49.94    6.62
  -9  -7 -23    1.02    1.70
 -10  -7 -23    1.46    1.58
   5  -8 -23    5.03    2.97
   4  -8 -23   10.87    3.03
   3  -8 -23    4.82    2.56
   2  -8 -23    7.10    2.62
   1  -8 -23   12.16    3.09
   0  -8 -23   12.32    3.10
  -1  -8 -23   15.07    3.68
  -2  -8 -23    4.86    2.46
  -3  -8 -23   20.43    4.33
  -4  -8 -23    6.04    3.03
  -6  -8 -23   30.34    5.62
  -7  -8 -23    3.33    2.18
   4  -9 -23   16.89    3.69
   3  -9 -23   10.39    3.13
   2  -9 -23   72.62    6.31
   1  -9 -23    4.27    2.34
   0  -9 -23    0.39    2.03
  -1  -9 -23    2.90    2.41
  -2  -9 -23   25.64    4.66
  -3  -9 -23   -0.46    1.50
  -4  -9 -23   65.02    6.66
  -5  -9 -23    2.85    2.44
  -6  -9 -23    6.76    2.91
  -7  -9 -23   20.02    4.83
   2 -10 -23    2.96    2.03
   1 -10 -23    3.50    2.09
   0 -10 -23    1.72    2.00
  -1 -10 -23   12.01    3.57
  -2 -10 -23    3.40    2.86
  -3 -10 -23   41.99    5.83
  -4 -10 -23    3.03    2.20
  -5 -10 -23    5.90    2.81
  -6 -10 -23    6.56    3.03
  -1 -11 -23    3.15    2.67
  -2 -11 -23   10.62    3.72
  -3 -11 -23    4.58    2.73
  -4 -11 -23    2.20    2.14
   3   7 -24    4.46    4.38
  -3  -7  24    4.16    2.96
  -2  -7  24    1.64    2.28
  -1  -7  24    4.99    3.04
   0  -7  24   -1.29    1.97
   1  -7  24   -0.10    1.95
   2  -7  24    0.49    1.80
   4   6 -24   26.59    5.29
  -3  -6  24    0.28    2.37
   3   6 -24    5.04    2.86
  -2  -6  24    3.50    2.43
  -1  -6  24    3.28    2.37
   0  -6  24    5.97    2.76
   1  -6  24    4.88    2.69
   2  -6  24    3.54    2.13
   3  -6  24   -1.13    1.14
   4  -6  24    1.15    1.98
   5   5 -24    0.79    3.11
   4   5 -24    1.53    2.67
   3   5 -24    5.52    3.37
   2   5 -24   23.50    4.95
  -2  -5  24   29.16    4.49
  -1  -5  24   15.51    3.49
   0  -5  24    1.86    2.06
   1  -5  24    3.03    1.86
   2  -5  24   32.82    4.62
   3  -5  24    0.96    1.86
   4  -5  24    2.16    2.40
   5  -5  24    0.45    1.66
   6  -5  24    0.34    2.29
   5   4 -24    2.34    2.77
   4   4 -24    4.85    3.21
   3   4 -24    0.52    2.16
   2   4 -24   84.72    7.70
  -1  -4  24   15.91    3.42
   1   4 -24    6.62    3.17
   0  -4  24   13.58    3.10
   1  -4  24   -0.79    1.51
   2  -4  24    1.82    1.89
   3  -4  24    3.79    2.21
   4  -4  24    8.65    3.06
   5  -4  24   -0.30    2.25
   6  -4  24    0.88    1.66
   7  -4  24    0.54    2.42
   5   3 -24    9.85    3.96
   4   3 -24    7.71    3.09
   3   3 -24   33.10    5.48
   2   3 -24    3.17    2.42
   1   3 -24    2.42    2.59
   0   3 -24    0.57    1.76
   0  -3  24    3.89    2.08
   1  -3  24   21.68    3.55
   2  -3  24   10.67    2.94
   3  -3  24   14.58    3.29
   4  -3  24   22.67    3.63
   5  -3  24    6.03    2.64
   6  -3  24   -1.56    2.03
   7  -3  24    0.58    1.29
   6   2 -24   23.53    5.24
   5   2 -24   -1.43    2.16
   4   2 -24   66.20    7.39
   3   2 -24   -2.22    1.91
   2   2 -24    0.93    2.15
   1   2 -24    8.44    3.09
   0  -2  24   57.86    4.88
   0   2 -24   53.13    5.90
   1  -2  24   19.49    3.39
   2  -2  24   42.32    4.60
   3  -2  24   -0.18    1.90
   4  -2  24    6.95    2.63
   5  -2  24    1.34    1.96
   6  -2  24   20.11    3.94
   7  -2  24    0.24    2.20
   8  -2  24    2.43    2.08
   6   1 -24   -1.04    2.24
   5   1 -24   16.88    4.39
   4   1 -24    3.50    2.21
   3   1 -24    3.22    2.47
   2   1 -24    3.93    2.77
   1   1 -24   50.55    6.19
   0   1 -24    6.42    2.83
  -1   1 -24   40.58    4.93
   1  -1  24   36.71    4.08
   2  -1  24   13.25    2.88
   3  -1  24    4.75    2.36
   4  -1  24    2.47    2.09
   5  -1  24    4.76    2.49
   6  -1  24    9.88    3.19
   7  -1  24    1.94    2.21
  -8   1 -24    2.26    2.79
  -8   1 -24    5.10    3.37
   6   0 -24    2.47    2.66
   5   0 -24    2.31    2.52
   4   0 -24   14.50    4.03
   3   0 -24   -2.51    2.30
   2   0 -24  101.85    8.27
   1   0 -24    3.57    2.45
   0   0 -24    7.08    2.79
  -1   0 -24   -3.48    1.34
  -2   0 -24   20.40    3.80
   2   0  24   17.72    3.19
   3   0  24    9.75    2.82
   4   0  24   22.99    3.55
   5   0  24   14.03    3.34
   6   0  24    1.75    2.23
  -8   0 -24    7.74    2.56
  -8   0 -24   20.29    4.73
  -9   0 -24    2.39    2.17
  -9   0 -24    9.78    3.10
   6  -1 -24    0.33    2.62
   5  -1 -24    7.75    3.72
   4  -1 -24    1.51    2.51
   3  -1 -24   46.76    6.08
   2  -1 -24    0.37    2.33
   1  -1 -24   24.86    4.76
   0  -1 -24    0.40    1.85
  -1  -1 -24   10.48    3.04
  -2  -1 -24    3.20    2.26
  -3  -1 -24   73.81    6.21
   3   1  24   62.12    5.21
   4   1  24   17.43    3.40
  -6  -1 -24   17.61    4.52
  -6  -1 -24    7.67    2.83
  -7  -1 -24    4.76    2.70
  -7  -1 -24   -3.08    1.94
  -9  -1 -24    2.37    2.08
  -9  -1 -24    4.86    2.56
   6  -2 -24    2.08    3.21
   5  -2 -24    4.40    2.99
   4  -2 -24   12.94    3.70
   3  -2 -24    0.82    2.45
   2  -2 -24    1.87    2.49
   1  -2 -24    8.35    3.38
   0  -2 -24   27.07    5.12
  -1  -2 -24    7.26    2.79
  -2  -2 -24   69.02    6.52
  -5  -2 -24   -2.50    2.02
  -5  -2 -24    2.22    2.35
  -6  -2 -24   12.45    3.39
  -6  -2 -24    6.39    2.90
  -7  -2 -24   44.38    5.30
  -8  -2 -24    3.86    2.24
  -8  -2 -24    9.57    2.88
  -9  -2 -24   22.36    3.89
  -9  -2 -24   14.05    3.86
   6  -3 -24   -0.12    3.00
   5  -3 -24   -2.23    1.38
   4  -3 -24    8.34    3.80
   3  -3 -24    0.26    2.04
   2  -3 -24    1.39    2.18
   1  -3 -24   41.63    6.21
   0  -3 -24    5.88    3.15
  -2  -3 -24   11.07    3.03
  -3  -3 -24   12.47    3.35
  -5  -3 -24   37.25    4.49
  -5  -3 -24   56.57    5.76
  -6  -3 -24   22.21    3.81
  -6  -3 -24   18.26    3.45
  -7  -3 -24   18.28    3.63
  -7  -3 -24   18.90    3.61
  -8  -3 -24   13.39    3.46
  -9  -3 -24    8.52    3.38
   5  -4 -24   -3.02    1.61
   4  -4 -24   -3.65    1.93
   3  -4 -24    1.47    2.46
   2  -4 -24   30.89    5.79
   1  -4 -24    4.78    2.82
  -1  -4 -24    7.25    2.60
  -2  -4 -24   -0.84    1.61
  -3  -4 -24    5.54    2.59
  -4  -4 -24  112.80    8.32
  -6  -4 -24   22.10    4.16
  -7  -4 -24    7.08    2.84
  -8  -4 -24    1.57    2.37
  -9  -4 -24    2.58    1.84
 -10  -4 -24    0.97    1.71
   5  -5 -24   -2.59    2.30
   4  -5 -24    0.70    2.44
   3  -5 -24   15.30    4.45
   2  -5 -24    2.21    2.54
   1  -5 -24    0.89    1.67
   0  -5 -24   -0.02    1.82
  -1  -5 -24    2.11    1.87
  -2  -5 -24   12.20    3.25
  -7  -5 -24    0.99    2.04
  -8  -5 -24    6.16    2.17
  -9  -5 -24    4.97    1.76
 -10  -5 -24    3.46    1.72
   5  -6 -24   -3.03    2.80
   4  -6 -24    1.20    2.03
   3  -6 -24    1.50    2.83
   2  -6 -24    2.10    1.89
   1  -6 -24    7.28    2.68
   0  -6 -24    1.72    2.13
  -1  -6 -24   -2.21    1.78
  -2  -6 -24   41.70    4.93
  -3  -6 -24    0.23    2.31
  -5  -6 -24    2.26    2.35
 -10  -6 -24   -0.85    1.26
   4  -7 -24    0.95    2.88
   3  -7 -24    5.03    2.28
   2  -7 -24    0.95    1.64
   0  -7 -24    3.27    2.22
  -1  -7 -24   20.24    3.92
  -2  -7 -24    7.74    2.98
  -3  -7 -24   13.93    3.69
  -4  -7 -24    9.30    3.18
  -5  -7 -24   11.62    3.64
  -6  -7 -24   26.60    5.47
  -9  -7 -24    2.55    1.73
   4  -8 -24    1.85    2.73
   3  -8 -24    6.99    2.69
   2  -8 -24    5.36    2.40
   1  -8 -24    1.36    1.98
   0  -8 -24   13.73    3.22
  -1  -8 -24    7.45    3.05
  -2  -8 -24    7.87    3.22
  -3  -8 -24    2.73    2.26
  -4  -8 -24   21.05    4.04
  -5  -8 -24    2.20    2.33
  -6  -8 -24   35.46    5.84
  -7  -8 -24   24.83    5.20
   3  -9 -24    4.12    2.57
   2  -9 -24   10.58    3.02
   1  -9 -24   18.83    3.91
   0  -9 -24    0.24    1.83
  -1  -9 -24    4.59    2.77
  -2  -9 -24    4.35    2.87
  -3  -9 -24   23.60    4.54
  -4  -9 -24    6.29    3.07
  -5  -9 -24   35.32    5.82
  -6  -9 -24    0.82    2.26
   1 -10 -24    1.58    1.91
   0 -10 -24    3.69    2.32
  -1 -10 -24   -0.42    1.84
  -2 -10 -24   31.18    5.11
  -3 -10 -24   -0.06    1.91
  -4 -10 -24   10.18    3.45
  -5 -10 -24    2.43    2.35
  -2  -7  25    3.06    3.02
  -1  -7  25    1.58    2.98
   0  -7  25   12.26    3.89
   3   6 -25    4.59    3.82
  -2  -6  25    2.50    2.11
  -1  -6  25    3.57    2.45
   0  -6  25   10.86    3.16
   1  -6  25   32.38    4.66
   2  -6  25   26.60    4.67
   3  -6  25    0.52    1.77
   4   5 -25    0.13    2.58
   3   5 -25    2.08    2.79
   2   5 -25    2.14    2.77
  -1  -5  25    4.31    2.30
   0  -5  25    3.70    2.50
   1  -5  25    5.40    2.53
   2  -5  25   -1.08    1.66
   3  -5  25    3.69    2.45
   4  -5  25    0.48    1.61
   5  -5  25   -0.14    1.99
   4   4 -25    3.30    2.61
   3   4 -25   18.85    4.63
   2   4 -25    7.70    3.13
   1   4 -25   38.87    5.73
  -1  -4  25   35.27    4.52
   0  -4  25   -1.22    1.62
   1  -4  25    0.55    1.49
   2  -4  25   -1.59    1.49
   3  -4  25   27.49    4.17
   4  -4  25   16.01    3.55
   5  -4  25   -2.98    1.15
   6  -4  25   -1.22    2.00
   5   3 -25    4.40    3.12
   4   3 -25   24.40    5.04
   3   3 -25    3.67    2.72
   2   3 -25   25.59    4.73
   1   3 -25    0.76    2.00
   0  -3  25    0.68    1.82
   1  -3  25    2.27    2.08
   2  -3  25   11.16    3.08
   3  -3  25    3.77    2.19
   4  -3  25    6.55    2.55
   5  -3  25    9.29    3.09
   6  -3  25    0.08    1.51
   7  -3  25    1.17    2.20
   5   2 -25   34.50    6.07
   4   2 -25    4.25    2.92
   3   2 -25    7.16    3.18
   2   2 -25    3.36    2.48
   1   2 -25    2.80    2.51
   0   2 -25   14.82    3.76
   1  -2  25   31.73    4.13
   2  -2  25    7.12    2.65
   3  -2  25    5.36    2.31
   4  -2  25    2.75    2.21
   5  -2  25    8.25    2.93
   6  -2  25    1.43    2.48
   7  -2  25   -1.19    1.71
   5   1 -25   -3.22    2.11
   4   1 -25    7.68    3.35
   3   1 -25    3.45    2.76
   2   1 -25    6.21    2.98
   1   1 -25    4.52    2.75
   0   1 -25   26.60    4.73
  -1   1 -25    3.12    2.23
   2  -1  25   17.57    3.15
   3  -1  25    1.41    2.01
   4  -1  25    5.78    2.43
   5  -1  25    1.14    1.95
   6  -1  25    4.41    2.74
   7  -1  25   17.20    3.81
  -8   1 -25   12.74    4.64
  -8   1 -25    7.96    2.91
   5   0 -25    6.60    3.23
   4   0 -25   10.43    3.83
   3   0 -25   38.13    6.02
   1   0 -25   79.43    7.10
   0   0 -25    0.53    2.08
  -1   0 -25   17.85    3.84
  -2   0 -25    3.43    2.28
   3   0  25    8.80    2.77
   4   0  25   27.49    4.00
   5   0  25   12.76    3.30
   6   0  25    3.07    2.19
  -7   0 -25    1.00    2.66
  -7   0 -25    2.51    2.96
  -8   0 -25    0.63    2.66
  -8   0 -25   -0.63    2.69
   5  -1 -25    4.80    3.17
   4  -1 -25   16.30    4.39
   3  -1 -25    0.53    2.22
   2  -1 -25   51.04    6.44
   1  -1 -25    6.35    3.27
   0  -1 -25    2.84    2.14
  -1  -1 -25    4.71    2.32
  -2  -1 -25   19.52    4.05
   4   1  25   60.03    5.25
  -6  -1 -25    6.85    3.28
  -6  -1 -25    0.04    2.23
  -7  -1 -25    9.80    3.47
  -7  -1 -25   -0.24    2.53
  -8  -1 -25   11.75    3.77
  -8  -1 -25    5.50    2.72
  -9  -1 -25    8.43    3.08
  -9  -1 -25    4.39    2.45
   5  -2 -25   25.69    5.66
   4  -2 -25   -1.42    1.79
   3  -2 -25   12.33    3.89
   2  -2 -25   -0.10    2.15
   1  -2 -25    4.14    2.44
   0  -2 -25    0.96    2.48
  -1  -2 -25   72.29    7.29
  -2  -2 -25   14.74    3.67
  -3  -2 -25   50.09    5.99
  -5  -2 -25    3.38    2.38
  -5  -2 -25    5.22    2.87
  -6  -2 -25   10.18    3.81
  -6  -2 -25    9.01    3.36
  -7  -2 -25   10.39    3.16
  -7  -2 -25    3.74    2.33
  -8  -2 -25    1.68    2.62
  -8  -2 -25    0.07    2.17
  -9  -2 -25    6.48    2.59
  -9  -2 -25   -0.81    2.38
   5  -3 -25   -0.30    2.42
   4  -3 -25    8.91    3.63
   3  -3 -25   -3.33    1.68
   2  -3 -25   -0.58    2.08
   1  -3 -25    7.49    2.72
   0  -3 -25   78.18    8.00
  -3  -3 -25    1.52    1.99
  -4  -3 -25    3.02    2.03
  -6  -3 -25   32.36    4.58
  -6  -3 -25   26.89    3.94
  -7  -3 -25   16.16    3.53
  -7  -3 -25    8.40    3.29
  -8  -3 -25    9.03    3.17
  -9  -3 -25   10.29    3.17
   5  -4 -25   -1.03    3.04
   4  -4 -25   -0.52    2.33
   3  -4 -25    2.30    2.43
   2  -4 -25    1.90    2.44
   1  -4 -25   34.93    6.09
  -2  -4 -25   -0.52    1.80
  -3  -4 -25    6.76    2.87
  -4  -4 -25   11.01    3.63
  -7  -4 -25   22.26    4.39
  -8  -4 -25    1.18    2.47
  -9  -4 -25    1.45    1.85
   4  -5 -25   -0.58    2.09
   3  -5 -25    7.65    2.90
   2  -5 -25   26.93    5.41
   0  -5 -25    4.87    2.60
  -1  -5 -25    6.64    2.86
  -2  -5 -25   30.16    4.29
  -3  -5 -25    4.66    2.72
  -5  -5 -25    9.96    3.31
  -8  -5 -25    1.31    1.60
  -9  -5 -25   -0.03    1.45
   4  -6 -25    1.55    3.01
   3  -6 -25   -0.75    2.07
   1  -6 -25    0.42    1.77
   0  -6 -25   -2.54    1.60
  -1  -6 -25   10.49    3.22
  -2  -6 -25   -0.46    2.01
  -4  -6 -25    3.47    2.45
  -5  -6 -25    4.35    2.40
   2  -7 -25    6.77    2.67
   1  -7 -25    1.18    2.09
   0  -7 -25   13.10    2.97
  -1  -7 -25    7.59    3.05
  -2  -7 -25   13.27    3.65
  -3  -7 -25    1.12    2.34
  -4  -7 -25    5.12    2.43
  -5  -7 -25    1.64    2.45
  -6  -7 -25   25.98    5.32
   3  -8 -25    2.49    2.48
   2  -8 -25    2.52    1.84
   1  -8 -25   13.96    3.52
   0  -8 -25    7.75    2.89
  -1  -8 -25    1.06    2.39
  -2  -8 -25    5.04    2.51
  -4  -8 -25   -0.47    1.77
  -5  -8 -25   29.06    4.94
  -6  -8 -25    8.51    3.63
  -7  -8 -25    8.28    3.46
   2  -9 -25    7.86    2.97
   1  -9 -25    8.33    2.75
   0  -9 -25    5.21    3.22
  -1  -9 -25   -1.23    1.86
  -2  -9 -25   -0.89    2.18
  -3  -9 -25    2.48    2.34
  -4  -9 -25   10.65    3.66
  -5  -9 -25    0.54    2.22
  -6  -9 -25   33.25    5.86
  -1 -10 -25   -0.28    2.22
  -2 -10 -25    3.99    2.75
  -3 -10 -25   12.69    3.88
  -1  -6  26    3.44    2.46
   0  -6  26   28.79    4.91
   1  -6  26   18.78    4.19
   3   5 -26   -2.27    2.70
  -1  -5  26   10.04    3.23
   0  -5  26    8.30    2.82
   1  -5  26   18.25    3.69
   3  -5  26    0.87    2.29
   4  -5  26    5.97    2.94
   4   4 -26    1.33    2.55
   3   4 -26   -2.43    2.44
   2   4 -26    6.40    2.97
   0  -4  26    8.37    2.87
   1  -4  26    1.65    1.76
   2  -4  26    5.15    2.34
   3  -4  26   14.38    3.61
   4  -4  26   10.42    2.99
   5  -4  26    1.18    1.80
   4   3 -26    0.30    2.56
   3   3 -26   13.94    3.66
   2   3 -26   -1.78    1.99
   1   3 -26   17.72    4.19
   1  -3  26   -0.79    1.80
   2  -3  26   10.62    3.03
   3  -3  26   18.38    3.21
   4  -3  26   26.25    3.72
   5  -3  26   12.79    3.32
   6  -3  26   -1.39    1.91
   4   2 -26   25.11    5.28
   3   2 -26    9.49    3.40
   2   2 -26    3.32    2.53
   1   2 -26    4.83    2.47
   0   2 -26    6.71    2.73
   2  -2  26   13.59    2.97
   3  -2  26    5.58    2.66
   4  -2  26    3.83    2.33
   5  -2  26    8.83    2.99
   6  -2  26    3.24    2.16
   7  -2  26   -0.30    2.16
   4   1 -26    4.16    3.02
   3   1 -26    1.71    2.37
   2   1 -26    2.53    2.66
   1   1 -26   12.26    3.61
   0   1 -26    4.92    2.87
  -1   1 -26   37.72    5.39
   3  -1  26   10.22    2.81
   4  -1  26    0.66    2.45
   5  -1  26    4.08    2.34
   6  -1  26   28.26    4.41
   4   0 -26    1.42    2.92
   3   0 -26   10.93    3.86
   2   0 -26   15.28    4.40
   1   0 -26   10.44    3.02
   0   0 -26   28.29    4.70
  -1   0 -26    1.95    2.04
   4   0  26    5.10    2.76
   5   0  26   19.93    3.70
  -7   0 -26   38.65    6.69
  -8   0 -26    0.03    2.48
  -8   0 -26    6.54    3.05
   4  -1 -26   -3.37    2.71
   3  -1 -26   20.66    4.59
   2  -1 -26    1.44    2.36
   1  -1 -26   22.07    4.62
   0  -1 -26    5.82    2.87
  -1  -1 -26    1.60    2.32
  -2  -1 -26   17.06    4.16
   4   1  26    6.26    2.58
  -6  -1 -26   -1.67    2.88
  -6  -1 -26    2.72    3.01
  -7  -1 -26    1.85    2.53
  -7  -1 -26    1.47    2.45
  -8  -1 -26    8.46    3.36
  -8  -1 -26    4.01    2.82
   4  -2 -26   35.02    6.24
   3  -2 -26    1.28    2.65
   2  -2 -26   20.19    4.86
   1  -2 -26    3.43    2.40
   0  -2 -26    6.50    2.53
  -1  -2 -26    4.37    2.58
  -2  -2 -26   67.15    7.23
  -3  -2 -26   14.51    3.76
  -5  -2 -26   13.98    4.01
  -5  -2 -26   12.22    3.64
  -6  -2 -26    4.37    2.56
  -6  -2 -26    4.20    2.55
  -7  -2 -26    4.12    2.48
  -7  -2 -26    7.88    3.10
  -8  -2 -26    7.82    2.79
  -8  -2 -26    4.50    2.16
   4  -3 -26    9.05    3.23
   3  -3 -26    6.63    3.34
   2  -3 -26    5.20    2.68
   1  -3 -26   10.21    3.46
   0  -3 -26    2.29    2.49
  -1  -3 -26   50.18    6.76
  -4  -3 -26    7.49    2.98
  -6  -3 -26   11.17    3.20
  -6  -3 -26   16.51    3.81
  -7  -3 -26   12.56    3.40
  -7  -3 -26   11.84    3.16
  -8  -3 -26    2.27    2.56
  -9  -3 -26   -0.26    2.66
   4  -4 -26    2.27    2.96
   3  -4 -26    7.32    3.15
   2  -4 -26   16.35    4.50
   1  -4 -26   11.10    3.39
   0  -4 -26   30.82    5.74
  -3  -4 -26    1.37    2.39
  -4  -4 -26    6.83    3.00
  -7  -4 -26    4.73    3.20
  -8  -4 -26    4.73    2.64
  -9  -4 -26   -1.51    1.89
   3  -5 -26   80.68    8.81
   2  -5 -26    5.16    2.29
   1  -5 -26   23.11    5.18
  -1  -5 -26    4.37    2.59
  -2  -5 -26   18.34    3.96
  -4  -5 -26    6.14    2.70
  -5  -5 -26   18.43    4.04
  -8  -5 -26    3.40    2.02
  -9  -5 -26   -0.35    1.50
   3  -6 -26    2.42    3.36
   2  -6 -26   56.92    7.61
   0  -6 -26   -0.31    1.86
  -1  -6 -26    1.68    2.67
  -3  -6 -26    4.01    2.50
  -5  -6 -26    6.37    3.07
  -6  -6 -26    3.72    2.84
   1  -7 -26    1.74    1.92
   0  -7 -26   -3.00    1.58
  -1  -7 -26   16.07    4.21
  -2  -7 -26   -1.19    1.97
  -3  -7 -26    4.72    2.87
  -4  -7 -26    5.86    2.76
  -5  -7 -26    2.58    2.30
  -6  -7 -26    5.36    2.80
  -7  -7 -26   30.55    5.94
   2  -8 -26   11.03    3.40
   1  -8 -26    6.01    2.48
  -1  -8 -26    0.71    2.32
  -2  -8 -26    0.89    2.50
  -3  -8 -26    9.10    3.48
  -4  -8 -26    1.23    2.26
  -5  -8 -26   -1.93    2.00
   1  -9 -26   39.29    5.35
   0  -9 -26    2.12    2.42
  -1  -9 -26    2.47    2.61
  -2  -9 -26    0.90    2.51
  -3  -9 -26    0.75    2.28
  -4  -9 -26    8.23    3.55
   0  -5  27    5.51    2.63
   1  -5  27    6.58    2.75
   2  -5  27    5.69    3.13
   3   4 -27    5.41    3.20
   2   4 -27    1.52    2.79
   1  -4  27    2.39    2.02
   2  -4  27   12.22    3.27
   3  -4  27   12.20    3.22
   4  -4  27   16.70    3.83
   3   3 -27    4.30    3.00
   2   3 -27   16.31    4.59
   1   3 -27    5.01    2.80
   2  -3  27    8.55    2.89
   3  -3  27    3.84    2.33
   4  -3  27   18.22    3.36
   5  -3  27   26.09    4.20
   3   2 -27   14.32    4.26
   2   2 -27    4.07    2.72
   1   2 -27    1.98    2.56
   2  -2  27    5.01    2.35
   3  -2  27    7.43    2.63
   4  -2  27    7.84    2.75
   5  -2  27    3.26    2.13
   6  -2  27    2.21    2.57
   3   1 -27    0.03    2.23
   2   1 -27   -0.02    2.55
   1   1 -27    3.18    2.55
   0   1 -27   19.17    4.27
   3  -1  27    2.39    1.98
   4  -1  27    0.59    2.02
   5  -1  27   -1.17    1.81
   6  -1  27   22.30    3.97
   4   0 -27    4.45    2.78
   3   0 -27    1.56    2.78
   2   0 -27    8.17    3.66
   1   0 -27    5.47    3.11
   0   0 -27    9.19    2.88
  -1   0 -27    7.95    3.04
   4   0  27   -0.36    1.74
   5   0  27   15.84    3.49
  -7   0 -27    6.11    3.12
  -7   0 -27    3.50    3.33
   4  -1 -27    9.75    4.39
   3  -1 -27    4.05    3.18
   2  -1 -27   37.06    5.74
   1  -1 -27   -1.47    2.17
   0  -1 -27   19.63    4.46
  -1  -1 -27   -0.42    1.95
  -2  -1 -27    1.13    2.41
  -6  -1 -27    7.79    2.80
  -6  -1 -27   14.72    4.50
  -7  -1 -27   16.70    5.02
  -7  -1 -27   12.51    3.48
  -8  -1 -27   26.58    5.32
  -8  -1 -27   10.32    3.40
   3  -2 -27   34.51    6.15
   2  -2 -27    8.07    3.30
   0  -2 -27    2.98    2.43
  -1  -2 -27   -0.33    1.89
  -2  -2 -27    3.97    2.57
  -6  -2 -27    5.10    2.65
  -6  -2 -27    7.28    3.00
  -7  -2 -27   -3.16    2.24
  -7  -2 -27   11.07    3.14
  -8  -2 -27    9.79    2.87
   3  -3 -27    7.29    3.41
   2  -3 -27    3.66    2.83
   1  -3 -27    1.31    2.31
   0  -3 -27   28.18    5.82
  -1  -3 -27    5.32    2.67
  -7  -3 -27    8.09    3.31
  -7  -3 -27    4.42    3.24
  -8  -3 -27    8.93    3.31
   3  -4 -27    0.89    2.13
   2  -4 -27    2.56    2.69
   1  -4 -27   22.64    5.16
   0  -4 -27    6.95    3.28
  -4  -4 -27    0.67    2.18
  -5  -4 -27    5.92    3.04
  -8  -4 -27    0.37    2.78
   2  -5 -27   48.09    7.10
   1  -5 -27    2.51    2.77
  -3  -5 -27    9.60    3.01
  -5  -5 -27    8.62    3.18
  -6  -5 -27   25.75    5.42
  -1  -6 -27    2.76    2.84
  -2  -6 -27   11.51    3.40
  -3  -6 -27    8.08    3.47
  -4  -6 -27    1.35    2.20
  -5  -6 -27   10.44    3.32
  -6  -6 -27    6.76    3.29
   0  -7 -27    2.97    2.37
  -1  -7 -27   -1.74    2.08
  -2  -7 -27   21.75    4.34
  -3  -7 -27   -0.53    2.08
  -4  -7 -27    7.93    2.90
  -5  -7 -27    6.64    3.07
  -6  -7 -27    3.22    2.79
   1  -8 -27   30.40    5.06
   0  -8 -27   -1.84    1.96
  -2  -8 -27    7.84    3.54
  -3  -8 -27    6.26    3.18
  -4  -8 -27    1.56    2.79
  -5  -8 -27    8.85    3.47
  -1  -9 -27    0.26    2.36
  -2  -9 -27    1.94    2.68
   2  -4  28    1.18    2.31
   3  -4  28    3.68    2.82
   2   3 -28    2.39    2.72
   2  -3  28    0.78    1.93
   3  -3  28    2.72    1.87
   4  -3  28    3.81    2.74
   2   2 -28   16.60    4.51
   1   2 -28    1.12    2.66
   3  -2  28   12.56    3.49
   4  -2  28   -0.04    1.58
   5  -2  28    6.42    3.04
   3   1 -28   10.57    3.38
   2   1 -28    5.46    3.35
   1   1 -28   11.25    3.78
   0   1 -28    7.58    2.97
   4  -1  28    9.55    3.62
   5  -1  28   13.93    3.15
   6  -1  28    5.79    3.14
   3   0 -28    4.30    3.02
   2   0 -28    4.95    3.40
   1   0 -28   14.95    3.87
   0   0 -28   19.30    4.43
   5   0  28    7.41    3.18
   3  -1 -28   13.23    4.60
   1  -1 -28   24.24    5.00
   0  -1 -28   11.70    3.65
  -1  -1 -28   -4.60    2.05
  -6  -1 -28   12.53    3.38
  -6  -1 -28   17.03    4.71
  -7  -1 -28    3.03    3.45
  -7  -1 -28    2.05    3.32
   2  -2 -28   12.13    3.79
   1  -2 -28   -4.20    2.32
   0  -2 -28   -5.57    2.00
  -1  -2 -28    3.08    2.61
  -2  -2 -28   -3.22    2.17
  -7  -2 -28   -0.77    2.85
  -7  -2 -28    5.48    3.21
   2  -3 -28    9.42    3.74
   1  -3 -28   -1.18    2.18
   0  -3 -28    3.64    2.95
  -1  -3 -28   18.69    4.42
  -2  -3 -28    7.01    3.15
  -3  -3 -28   31.51    6.00
  -8  -3 -28   17.12    5.26
   2  -4 -28   -0.53    2.41
   1  -4 -28    2.63    2.78
   0  -4 -28    5.33    3.24
  -1  -4 -28   13.88    4.16
  -5  -4 -28    1.30    2.64
   1  -5 -28   25.02    5.34
   0  -5 -28    6.15    3.46
  -4  -5 -28    2.56    2.48
  -6  -5 -28   19.25    5.08
  -2  -6 -28    2.38    2.68
  -3  -6 -28    2.89    3.04
  -5  -6 -28    4.17    2.60
  -6  -6 -28    3.28    3.26
  -1  -7 -28    7.12    3.24
  -2  -7 -28    1.17    2.58
  -3  -7 -28   19.83    4.47
  -4  -7 -28   -0.06    2.05
  -5  -7 -28    2.90    2.63
   0  -8 -28   18.07    4.70
  -1  -8 -28   -0.52    2.53
  -2  -8 -28   24.92    4.85
  -3  -8 -28   -2.23    2.08
   3  -3  29   -1.10    2.55
   1   2 -29   -0.50    3.66
   4  -2  29   -0.25    2.43
   2   1 -29    4.10    3.08
   1   1 -29    0.49    2.95
   5  -1  29    1.67    2.68
   2   0 -29    2.85    2.89
   1   0 -29    0.88    2.99
   0   0 -29   -1.74    2.52
   2  -1 -29   37.03    6.11
   1  -1 -29    5.57    2.96
   0  -1 -29    7.80    3.54
  -1  -1 -29    7.16    3.37
   1  -2 -29   62.60    7.85
   0  -2 -29   -3.20    2.05
  -1  -2 -29   -4.51    2.18
  -2  -2 -29    4.67    3.06
   1  -3 -29   27.71    5.86
   0  -3 -29    5.49    3.24
  -1  -3 -29    1.93    2.73
  -2  -3 -29   14.72    4.37
   0  -4 -29    2.09    2.61
  -1  -4 -29   75.08    9.04
  -2  -4 -29    9.70    3.92
   0  -5 -29   21.96    5.08
  -5  -5 -29    2.61    3.54
  -6  -5 -29    9.32    4.80
  -4  -6 -29    6.06    3.10
  -2  -7 -29   14.37    5.36
  -3  -7 -29    0.09    2.94
  -4  -7 -29    5.18    3.72
   0   0 -30    9.39    5.01
   0  -1 -30    1.46    3.16
   0  -2 -30    2.52    2.58
  -1  -2 -30   -0.17    3.06
   0  -3 -30   10.08    3.96
  -1  -3 -30    6.24    3.46
  -2  -3 -30   -2.85    3.18
  -1  -4 -30    4.29    2.90
  -2  -4 -30   10.18    4.03
   0   0   0    0.00    0.00
;
_shelx_hkl_checksum              82407
loop_
_space_group_symop_operation_xyz
'x, y, z'
'-x, -y, -z'
loop_
_atom_site_label
_atom_site_type_symbol
_atom_site_fract_x
_atom_site_fract_y
_atom_site_fract_z
_atom_site_U_iso_or_equiv
_atom_site_adp_type
_atom_site_occupancy
_atom_site_site_symmetry_order
_atom_site_calc_flag
_atom_site_refinement_flags_posn
_atom_site_refinement_flags_adp
Zn1 Zn 0.18338(5) 0.12521(4) 0.78796(2) 0.01772(15) Uani 1 1 d . .
Zn2 Zn 0.34447(5) 0.35553(4) 0.71601(2) 0.01714(15) Uani 1 1 d . .
N1 N 0.1705(3) 0.1481(3) 0.70056(16) 0.0183(9) Uani 1 1 d . .
N2 N 0.0434(3) 0.2554(3) 0.79989(16) 0.0182(9) Uani 1 1 d . .
N3 N 0.1919(3) 0.0991(3) 0.87528(16) 0.0180(9) Uani 1 1 d . .
N4 N 0.3150(3) -0.0113(3) 0.77580(16) 0.0177(9) Uani 1 1 d . .
N51 N 0.4767(3) 0.2203(3) 0.72860(16) 0.0167(8) Uani 1 1 d . .
N52 N 0.3256(3) 0.3718(3) 0.80354(16) 0.0181(9) Uani 1 1 d . .
N53 N 0.2176(3) 0.4945(3) 0.70329(16) 0.0165(8) Uani 1 1 d . .
N54 N 0.3707(3) 0.3431(3) 0.62860(16) 0.0159(8) Uani 1 1 d . .
C1 C 0.2406(4) 0.0892(4) 0.6576(2) 0.0167(10) Uani 1 1 d . .
C2 C 0.1991(4) 0.1341(4) 0.60094(19) 0.0167(10) Uani 1 1 d . .
C3 C 0.1093(4) 0.2235(4) 0.61031(19) 0.0170(10) Uani 1 1 d . .
C4 C 0.0913(4) 0.2315(4) 0.6720(2) 0.0196(10) Uani 1 1 d . .
C5 C 0.0058(4) 0.3114(4) 0.6989(2) 0.0186(10) Uani 1 1 d . .
H5A H -0.0411 0.3651 0.6737 0.022 Uiso 1 1 calc R U
C6 C -0.0187(4) 0.3218(4) 0.7577(2) 0.0194(10) Uani 1 1 d . .
C7 C -0.1178(4) 0.4003(4) 0.7833(2) 0.0207(11) Uani 1 1 d . .
C8 C -0.1143(4) 0.3806(4) 0.8421(2) 0.0191(10) Uani 1 1 d . .
C9 C -0.0114(4) 0.2919(4) 0.85205(19) 0.0174(10) Uani 1 1 d . .
C10 C 0.0277(4) 0.2477(4) 0.9064(2) 0.0189(10) Uani 1 1 d . .
H10A H -0.0154 0.2807 0.9394 0.023 Uiso 1 1 calc R U
C11 C 0.1228(4) 0.1606(4) 0.9172(2) 0.0188(10) Uani 1 1 d . .
C12 C 0.1645(4) 0.1191(4) 0.9744(2) 0.0182(10) Uani 1 1 d . .
C13 C 0.2577(4) 0.0326(4) 0.9656(2) 0.0201(10) Uani 1 1 d . .
C14 C 0.2731(4) 0.0197(4) 0.9045(2) 0.0181(10) Uani 1 1 d . .
C15 C 0.3563(4) -0.0617(4) 0.8775(2) 0.0205(11) Uani 1 1 d . .
H15A H 0.4072 -0.1120 0.9025 0.025 Uiso 1 1 calc R U
C16 C 0.3745(4) -0.0789(4) 0.8193(2) 0.0195(10) Uani 1 1 d . .
C17 C 0.4613(4) -0.1678(4) 0.7946(2) 0.0186(10) Uani 1 1 d . .
C18 C 0.4553(4) -0.1525(4) 0.7366(2) 0.0187(10) Uani 1 1 d . .
C19 C 0.3663(4) -0.0523(4) 0.7243(2) 0.0180(10) Uani 1 1 d . .
C20 C 0.3383(4) 0.0019(4) 0.6689(2) 0.0195(10) Uani 1 1 d . .
C21 C 0.2347(4) 0.0876(4) 0.5434(2) 0.0194(10) Uani 1 1 d . .
H21A H 0.3132 0.0354 0.5451 0.023 Uiso 1 1 calc R U
H21B H 0.2489 0.1502 0.5121 0.023 Uiso 1 1 calc R U
C22 C 0.1350(4) 0.0252(4) 0.5284(2) 0.0268(12) Uani 1 1 d . .
H22A H 0.1640 -0.0084 0.4921 0.040 Uiso 1 1 calc R U
H22B H 0.0593 0.0782 0.5231 0.040 Uiso 1 1 calc R U
H22C H 0.1176 -0.0344 0.5602 0.040 Uiso 1 1 calc R U
C23 C 0.0405(4) 0.3028(4) 0.5656(2) 0.0200(10) Uani 1 1 d . .
H23A H 0.0876 0.2966 0.5266 0.024 Uiso 1 1 calc R U
H23B H 0.0387 0.3809 0.5743 0.024 Uiso 1 1 calc R U
C24 C -0.0927(4) 0.2829(4) 0.5628(2) 0.0257(11) Uani 1 1 d . .
H24A H -0.1299 0.3389 0.5331 0.039 Uiso 1 1 calc R U
H24B H -0.1410 0.2901 0.6010 0.039 Uiso 1 1 calc R U
H24C H -0.0922 0.2071 0.5523 0.039 Uiso 1 1 calc R U
C25 C -0.2107(4) 0.4789(4) 0.7499(2) 0.0214(11) Uani 1 1 d . .
H25A H -0.1678 0.5114 0.7126 0.026 Uiso 1 1 calc R U
H25B H -0.2460 0.5417 0.7728 0.026 Uiso 1 1 calc R U
C26 C -0.3164(5) 0.4210(4) 0.7364(2) 0.0319(13) Uani 1 1 d . .
H26A H -0.3737 0.4760 0.7145 0.048 Uiso 1 1 calc R U
H26B H -0.3608 0.3904 0.7731 0.048 Uiso 1 1 calc R U
H26C H -0.2823 0.3596 0.7130 0.048 Uiso 1 1 calc R U
C27 C -0.2029(5) 0.4369(4) 0.8876(2) 0.0246(11) Uani 1 1 d . .
H27A H -0.1939 0.3917 0.9261 0.030 Uiso 1 1 calc R U
H27B H -0.2884 0.4365 0.8787 0.030 Uiso 1 1 calc R U
C28 C -0.1854(5) 0.5583(4) 0.8921(2) 0.0276(12) Uani 1 1 d . .
H28A H -0.2495 0.5899 0.9211 0.041 Uiso 1 1 calc R U
H28B H -0.1919 0.6035 0.8539 0.041 Uiso 1 1 calc R U
H28C H -0.1035 0.5591 0.9042 0.041 Uiso 1 1 calc R U
C29 C 0.1121(4) 0.1639(4) 1.0308(2) 0.0211(11) Uani 1 1 d . .
H29A H 0.0903 0.2467 1.0231 0.025 Uiso 1 1 calc R U
H29B H 0.1766 0.1483 1.0579 0.025 Uiso 1 1 calc R U
C30 C -0.0024(4) 0.1129(4) 1.0603(2) 0.0260(12) Uani 1 1 d . .
H30A H -0.0301 0.1432 1.0976 0.039 Uiso 1 1 calc R U
H30B H 0.0181 0.0308 1.0676 0.039 Uiso 1 1 calc R U
H30C H -0.0686 0.1320 1.0348 0.039 Uiso 1 1 calc R U
C31 C 0.3297(4) -0.0400(4) 1.0107(2) 0.0219(11) Uani 1 1 d . .
H31A H 0.3326 0.0039 1.0432 0.026 Uiso 1 1 calc R U
H31B H 0.4158 -0.0604 0.9929 0.026 Uiso 1 1 calc R U
C32 C 0.2752(4) -0.1479(4) 1.0352(2) 0.0270(12) Uani 1 1 d . .
H32A H 0.3213 -0.1879 1.0670 0.040 Uiso 1 1 calc R U
H32B H 0.2813 -0.1962 1.0041 0.040 Uiso 1 1 calc R U
H32C H 0.1881 -0.1288 1.0503 0.040 Uiso 1 1 calc R U
C33 C 0.5388(4) -0.2599(4) 0.8290(2) 0.0236(11) Uani 1 1 d . .
H33A H 0.5525 -0.2331 0.8657 0.028 Uiso 1 1 calc R U
H33B H 0.6206 -0.2767 0.8062 0.028 Uiso 1 1 calc R U
C34 C 0.4802(5) -0.3674(4) 0.8440(3) 0.0390(15) Uani 1 1 d . .
H34A H 0.5288 -0.4208 0.8708 0.059 Uiso 1 1 calc R U
H34B H 0.4783 -0.4009 0.8081 0.059 Uiso 1 1 calc R U
H34C H 0.3955 -0.3500 0.8628 0.059 Uiso 1 1 calc R U
C35 C 0.5157(4) -0.2370(4) 0.6953(2) 0.0212(11) Uani 1 1 d . .
H35A H 0.5562 -0.1967 0.6596 0.025 Uiso 1 1 calc R U
H35B H 0.5805 -0.2901 0.7144 0.025 Uiso 1 1 calc R U
C36 C 0.4219(5) -0.3025(4) 0.6784(2) 0.0268(12) Uani 1 1 d . .
H36A H 0.4644 -0.3588 0.6533 0.040 Uiso 1 1 calc R U
H36B H 0.3609 -0.2507 0.6571 0.040 Uiso 1 1 calc R U
H36C H 0.3799 -0.3406 0.7138 0.040 Uiso 1 1 calc R U
C37 C 0.4396(4) -0.0187(4) 0.61934(19) 0.0166(10) Uani 1 1 d . .
H37A H 0.4450 -0.0836 0.5999 0.020 Uiso 1 1 calc R U
C51 C 0.5325(4) 0.1500(4) 0.68836(19) 0.0166(10) Uani 1 1 d . .
C52 C 0.6229(4) 0.0637(4) 0.7157(2) 0.0197(10) Uani 1 1 d . .
C53 C 0.6183(4) 0.0828(4) 0.7723(2) 0.0198(10) Uani 1 1 d . .
C54 C 0.5247(4) 0.1788(4) 0.7804(2) 0.0192(10) Uani 1 1 d . .
C55 C 0.4833(4) 0.2185(4) 0.83402(19) 0.0165(10) Uani 1 1 d . .
H55A H 0.5240 0.1812 0.8664 0.020 Uiso 1 1 calc R U
C56 C 0.3901(4) 0.3057(4) 0.8456(2) 0.0185(10) Uani 1 1 d . .
C57 C 0.3426(4) 0.3391(4) 0.90275(19) 0.0187(10) Uani 1 1 d . .
C58 C 0.2478(4) 0.4248(4) 0.8947(2) 0.0198(10) Uani 1 1 d . .
C59 C 0.2386(4) 0.4460(4) 0.8325(2) 0.0186(10) Uani 1 1 d . .
C60 C 0.1584(4) 0.5306(4) 0.8049(2) 0.0186(10) Uani 1 1 d . .
H60A H 0.1023 0.5760 0.8297 0.022 Uiso 1 1 calc R U
C61 C 0.1510(4) 0.5560(4) 0.7458(2) 0.0190(10) Uani 1 1 d . .
C62 C 0.0734(4) 0.6524(4) 0.7184(2) 0.0173(10) Uani 1 1 d . .
C63 C 0.0944(4) 0.6466(4) 0.6598(2) 0.0202(10) Uani 1 1 d . .
C64 C 0.1828(4) 0.5475(4) 0.6506(2) 0.0187(10) Uani 1 1 d . .
C65 C 0.2269(4) 0.5085(4) 0.5969(2) 0.0188(10) Uani 1 1 d . .
H65A H 0.1950 0.5519 0.5635 0.023 Uiso 1 1 calc R U
C66 C 0.3114(4) 0.4143(4) 0.58634(19) 0.0154(10) Uani 1 1 d . .
C67 C 0.3462(4) 0.3729(4) 0.53053(19) 0.0164(10) Uani 1 1 d . .
C68 C 0.4261(4) 0.2756(4) 0.53850(19) 0.0168(10) Uani 1 1 d . .
C69 C 0.4387(4) 0.2560(4) 0.6017(2) 0.0163(10) Uani 1 1 d . .
C70 C 0.5052(4) 0.1598(4) 0.6309(2) 0.0181(10) Uani 1 1 d . .
C71 C 0.7163(4) -0.0225(4) 0.6863(2) 0.0221(11) Uani 1 1 d . .
H71A H 0.6730 -0.0640 0.6633 0.026 Uiso 1 1 calc R U
H71B H 0.7544 -0.0776 0.7167 0.026 Uiso 1 1 calc R U
C72 C 0.8176(5) 0.0306(4) 0.6462(2) 0.0300(12) Uani 1 1 d . .
H72A H 0.8761 -0.0285 0.6286 0.045 Uiso 1 1 calc R U
H72B H 0.8614 0.0712 0.6688 0.045 Uiso 1 1 calc R U
H72C H 0.7807 0.0833 0.6152 0.045 Uiso 1 1 calc R U
C73 C 0.6990(4) 0.0236(4) 0.8169(2) 0.0234(11) Uani 1 1 d . .
H73A H 0.7242 -0.0557 0.8094 0.028 Uiso 1 1 calc R U
H73B H 0.6516 0.0234 0.8563 0.028 Uiso 1 1 calc R U
C74 C 0.8141(5) 0.0795(4) 0.8160(2) 0.0320(13) Uani 1 1 d . .
H74A H 0.8626 0.0409 0.8472 0.048 Uiso 1 1 calc R U
H74B H 0.7896 0.1588 0.8220 0.048 Uiso 1 1 calc R U
H74C H 0.8644 0.0749 0.7780 0.048 Uiso 1 1 calc R U
C75 C 0.3913(4) 0.2899(4) 0.95935(19) 0.0192(10) Uani 1 1 d . .
H75A H 0.4423 0.2164 0.9541 0.023 Uiso 1 1 calc R U
H75B H 0.3206 0.2761 0.9893 0.023 Uiso 1 1 calc R U
C76 C 0.4695(5) 0.3662(4) 0.9816(2) 0.0258(11) Uani 1 1 d . .
H76A H 0.4994 0.3295 1.0184 0.039 Uiso 1 1 calc R U
H76B H 0.4187 0.4383 0.9881 0.039 Uiso 1 1 calc R U
H76C H 0.5403 0.3795 0.9524 0.039 Uiso 1 1 calc R U
C77 C 0.1631(4) 0.4836(4) 0.9405(2) 0.0253(12) Uani 1 1 d . .
H77A H 0.1718 0.4380 0.9790 0.030 Uiso 1 1 calc R U
H77B H 0.0767 0.4860 0.9323 0.030 Uiso 1 1 calc R U
C78 C 0.1850(5) 0.6034(4) 0.9452(2) 0.0298(12) Uani 1 1 d . .
H78A H 0.1245 0.6351 0.9756 0.045 Uiso 1 1 calc R U
H78B H 0.1757 0.6500 0.9076 0.045 Uiso 1 1 calc R U
H78C H 0.2689 0.6021 0.9554 0.045 Uiso 1 1 calc R U
C79 C -0.0031(4) 0.7435(4) 0.7500(2) 0.0231(11) Uani 1 1 d . .
H79A H -0.0406 0.7097 0.7882 0.028 Uiso 1 1 calc R U
H79B H -0.0711 0.7798 0.7269 0.028 Uiso 1 1 calc R U
C80 C 0.0732(5) 0.8326(4) 0.7599(2) 0.0367(14) Uani 1 1 d . .
H80A H 0.0201 0.8898 0.7813 0.055 Uiso 1 1 calc R U
H80B H 0.1080 0.8682 0.7221 0.055 Uiso 1 1 calc R U
H80C H 0.1406 0.7970 0.7828 0.055 Uiso 1 1 calc R U
C81 C 0.0350(4) 0.7276(4) 0.6134(2) 0.0222(11) Uani 1 1 d . .
H81A H 0.0892 0.7245 0.5759 0.027 Uiso 1 1 calc R U
H81B H 0.0276 0.8051 0.6240 0.027 Uiso 1 1 calc R U
C82 C -0.0926(5) 0.7034(5) 0.6049(2) 0.0343(13) Uani 1 1 d . .
H82A H -0.1294 0.7620 0.5763 0.051 Uiso 1 1 calc R U
H82B H -0.1457 0.7026 0.6424 0.051 Uiso 1 1 calc R U
H82C H -0.0851 0.6298 0.5907 0.051 Uiso 1 1 calc R U
C83 C 0.3017(4) 0.4283(4) 0.47297(19) 0.0169(10) Uani 1 1 d . .
H83A H 0.2178 0.4703 0.4810 0.020 Uiso 1 1 calc R U
H83B H 0.2952 0.3689 0.4487 0.020 Uiso 1 1 calc R U
C84 C 0.3865(4) 0.5092(4) 0.4383(2) 0.0258(11) Uani 1 1 d . .
H84A H 0.3555 0.5384 0.4007 0.039 Uiso 1 1 calc R U
H84B H 0.4706 0.4691 0.4315 0.039 Uiso 1 1 calc R U
H84C H 0.3878 0.5720 0.4606 0.039 Uiso 1 1 calc R U
C85 C 0.4963(4) 0.2109(4) 0.49129(19) 0.0188(10) Uani 1 1 d . .
H85A H 0.4584 0.2359 0.4545 0.023 Uiso 1 1 calc R U
H85B H 0.4896 0.1298 0.5022 0.023 Uiso 1 1 calc R U
C86 C 0.6334(4) 0.2266(4) 0.4808(2) 0.0235(11) Uani 1 1 d . .
H86A H 0.6760 0.1802 0.4508 0.035 Uiso 1 1 calc R U
H86B H 0.6710 0.2036 0.5173 0.035 Uiso 1 1 calc R U
H86C H 0.6407 0.3061 0.4675 0.035 Uiso 1 1 calc R U
C87 C 0.5211(4) 0.0528(4) 0.6028(2) 0.0192(10) Uani 1 1 d . .
H87A H 0.5885 0.0368 0.5737 0.023 Uiso 1 1 calc R U
loop_
_atom_site_aniso_label
_atom_site_aniso_U_11
_atom_site_aniso_U_22
_atom_site_aniso_U_33
_atom_site_aniso_U_23
_atom_site_aniso_U_13
_atom_site_aniso_U_12
Zn1 0.0193(3) 0.0198(3) 0.0138(3) -0.0014(2) -0.0019(2) -0.0022(2)
Zn2 0.0186(3) 0.0188(3) 0.0142(3) -0.0022(2) -0.0030(2) -0.0023(2)
N1 0.016(2) 0.019(2) 0.020(2) -0.0019(17) 0.0004(17) -0.0063(16)
N2 0.0157(19) 0.025(2) 0.013(2) -0.0010(17) -0.0035(16) -0.0004(17)
N3 0.019(2) 0.021(2) 0.015(2) -0.0015(16) -0.0008(16) -0.0077(17)
N4 0.017(2) 0.018(2) 0.017(2) 0.0024(16) -0.0010(16) -0.0065(16)
N51 0.017(2) 0.019(2) 0.015(2) -0.0074(16) -0.0028(16) -0.0026(16)
N52 0.021(2) 0.020(2) 0.015(2) -0.0024(16) -0.0033(17) -0.0036(17)
N53 0.018(2) 0.0139(19) 0.018(2) 0.0002(16) -0.0054(16) -0.0013(16)
N54 0.017(2) 0.0149(19) 0.015(2) 0.0004(16) -0.0032(16) -0.0026(16)
C1 0.018(2) 0.017(2) 0.018(3) -0.0063(19) -0.0004(19) -0.0085(19)
C2 0.020(2) 0.020(2) 0.012(2) -0.0026(19) -0.0014(19) -0.010(2)
C3 0.017(2) 0.021(2) 0.014(2) 0.0001(19) -0.0040(19) -0.0059(19)
C4 0.018(2) 0.022(3) 0.018(3) 0.001(2) -0.002(2) -0.004(2)
C5 0.019(2) 0.019(2) 0.018(3) -0.001(2) -0.004(2) -0.003(2)
C6 0.013(2) 0.021(3) 0.022(3) -0.003(2) 0.000(2) 0.0016(19)
C7 0.024(3) 0.018(2) 0.019(3) 0.003(2) -0.005(2) -0.003(2)
C8 0.022(2) 0.021(2) 0.014(2) -0.0020(19) -0.002(2) -0.003(2)
C9 0.017(2) 0.020(2) 0.014(2) 0.0004(19) 0.0040(19) -0.0055(19)
C10 0.022(2) 0.021(2) 0.014(2) -0.0069(19) -0.001(2) -0.003(2)
C11 0.021(2) 0.022(2) 0.016(2) -0.003(2) 0.000(2) -0.012(2)
C12 0.022(2) 0.018(2) 0.014(2) -0.0014(19) 0.003(2) -0.007(2)
C13 0.022(3) 0.018(2) 0.022(3) -0.002(2) -0.002(2) -0.010(2)
C14 0.017(2) 0.020(2) 0.018(3) 0.002(2) -0.0017(19) -0.005(2)
C15 0.023(3) 0.016(2) 0.022(3) 0.001(2) -0.006(2) -0.003(2)
C16 0.022(2) 0.016(2) 0.019(3) -0.0013(19) -0.001(2) 0.000(2)
C17 0.019(2) 0.021(2) 0.015(2) -0.0026(19) -0.002(2) 0.000(2)
C18 0.018(2) 0.018(2) 0.020(3) -0.005(2) 0.000(2) -0.0042(19)
C19 0.018(2) 0.018(2) 0.019(3) -0.001(2) -0.002(2) -0.006(2)
C20 0.023(3) 0.015(2) 0.021(3) -0.002(2) -0.002(2) -0.006(2)
C21 0.020(2) 0.025(3) 0.015(2) -0.005(2) -0.006(2) -0.003(2)
C22 0.023(3) 0.031(3) 0.028(3) -0.013(2) -0.004(2) -0.002(2)
C23 0.022(2) 0.025(3) 0.012(2) -0.0017(19) -0.0012(19) 0.001(2)
C24 0.025(3) 0.027(3) 0.025(3) -0.001(2) -0.006(2) 0.001(2)
C25 0.019(2) 0.022(3) 0.023(3) -0.003(2) -0.006(2) 0.000(2)
C26 0.028(3) 0.034(3) 0.031(3) -0.002(2) -0.007(2) 0.004(2)
C27 0.027(3) 0.026(3) 0.017(3) 0.002(2) -0.001(2) 0.000(2)
C28 0.025(3) 0.034(3) 0.023(3) -0.008(2) -0.005(2) 0.008(2)
C29 0.021(2) 0.025(3) 0.017(3) 0.000(2) -0.004(2) -0.003(2)
C30 0.028(3) 0.030(3) 0.019(3) -0.005(2) 0.000(2) -0.002(2)
C31 0.025(3) 0.028(3) 0.015(2) -0.007(2) -0.004(2) -0.002(2)
C32 0.026(3) 0.031(3) 0.021(3) -0.001(2) -0.003(2) 0.004(2)
C33 0.026(3) 0.026(3) 0.018(3) -0.007(2) -0.002(2) 0.005(2)
C34 0.040(3) 0.033(3) 0.038(3) 0.014(3) -0.002(3) -0.004(3)
C35 0.025(3) 0.018(2) 0.019(3) -0.003(2) -0.003(2) 0.003(2)
C36 0.033(3) 0.028(3) 0.021(3) -0.006(2) 0.000(2) -0.008(2)
C37 0.020(2) 0.016(2) 0.014(2) -0.0037(19) -0.0047(19) 0.0000(19)
C51 0.020(2) 0.015(2) 0.015(2) -0.0010(19) -0.0046(19) -0.0022(19)
C52 0.017(2) 0.019(2) 0.024(3) 0.000(2) -0.004(2) -0.004(2)
C53 0.022(2) 0.021(2) 0.016(3) -0.005(2) 0.000(2) -0.002(2)
C54 0.016(2) 0.019(2) 0.023(3) 0.000(2) -0.002(2) -0.008(2)
C55 0.020(2) 0.018(2) 0.012(2) -0.0011(19) -0.0038(19) -0.006(2)
C56 0.022(2) 0.020(2) 0.013(2) -0.0008(19) -0.002(2) -0.002(2)
C57 0.024(3) 0.022(3) 0.013(2) -0.0045(19) -0.002(2) -0.009(2)
C58 0.023(3) 0.025(3) 0.015(2) -0.004(2) -0.003(2) -0.010(2)
C59 0.019(2) 0.022(3) 0.015(2) -0.002(2) 0.002(2) -0.007(2)
C60 0.023(2) 0.015(2) 0.016(3) -0.0057(19) -0.001(2) 0.004(2)
C61 0.013(2) 0.022(3) 0.022(3) -0.003(2) -0.004(2) -0.0024(19)
C62 0.017(2) 0.015(2) 0.020(3) -0.0003(19) 0.000(2) -0.0019(19)
C63 0.017(2) 0.022(2) 0.021(3) -0.003(2) 0.000(2) -0.001(2)
C64 0.014(2) 0.022(2) 0.019(3) 0.000(2) -0.0003(19) -0.006(2)
C65 0.016(2) 0.025(3) 0.015(3) 0.000(2) -0.0024(19) -0.006(2)
C66 0.014(2) 0.017(2) 0.014(2) -0.0004(19) -0.0026(19) -0.0004(19)
C67 0.017(2) 0.022(2) 0.013(2) -0.0022(19) -0.0046(19) -0.012(2)
C68 0.018(2) 0.019(2) 0.015(2) -0.0026(19) -0.0005(19) -0.0066(19)
C69 0.016(2) 0.016(2) 0.019(3) -0.0053(19) -0.0012(19) -0.0032(19)
C70 0.017(2) 0.019(2) 0.020(3) -0.006(2) 0.000(2) -0.0037(19)
C71 0.024(3) 0.021(3) 0.020(3) -0.002(2) -0.002(2) 0.002(2)
C72 0.025(3) 0.034(3) 0.030(3) -0.007(2) -0.001(2) -0.002(2)
C73 0.033(3) 0.022(3) 0.014(2) -0.005(2) -0.008(2) 0.006(2)
C74 0.031(3) 0.037(3) 0.029(3) -0.004(2) -0.018(2) 0.002(2)
C75 0.020(2) 0.027(3) 0.010(2) -0.0029(19) -0.0032(19) -0.002(2)
C76 0.029(3) 0.030(3) 0.021(3) -0.004(2) -0.008(2) -0.006(2)
C77 0.024(3) 0.033(3) 0.015(3) -0.002(2) -0.002(2) 0.005(2)
C78 0.040(3) 0.031(3) 0.017(3) -0.008(2) -0.001(2) 0.004(2)
C79 0.023(3) 0.024(3) 0.021(3) -0.004(2) -0.004(2) 0.005(2)
C80 0.043(3) 0.031(3) 0.037(3) -0.015(3) 0.002(3) -0.001(3)
C81 0.030(3) 0.020(2) 0.013(2) 0.0007(19) 0.000(2) 0.002(2)
C82 0.032(3) 0.040(3) 0.030(3) 0.004(3) -0.014(2) -0.001(3)
C83 0.018(2) 0.019(2) 0.014(2) -0.0005(19) -0.0041(19) -0.0001(19)
C84 0.029(3) 0.024(3) 0.023(3) 0.004(2) -0.006(2) -0.004(2)
C85 0.028(3) 0.022(2) 0.009(2) -0.0016(19) -0.007(2) -0.008(2)
C86 0.025(3) 0.024(3) 0.020(3) -0.007(2) 0.001(2) -0.001(2)
C87 0.018(2) 0.024(3) 0.014(2) -0.004(2) -0.0006(19) 0.005(2)
loop_
_atom_type_symbol
_atom_type_description
_atom_type_scat_dispersion_real
_atom_type_scat_dispersion_imag
_atom_type_scat_source
C C 0.0033 0.0016 'International Tables Vol C Tables 4.2.6.8 and 6.1.1.4'
H H 0.0000 0.0000 'International Tables Vol C Tables 4.2.6.8 and 6.1.1.4'
N N 0.0061 0.0033 'International Tables Vol C Tables 4.2.6.8 and 6.1.1.4'
Zn Zn 0.2839 1.4301 'International Tables Vol C Tables 4.2.6.8 and 6.1.1.4'
loop_
_geom_angle_atom_site_label_1
_geom_angle_atom_site_label_2
_geom_angle_atom_site_label_3
_geom_angle
N3 Zn1 N1 178.14(15)
N3 Zn1 N4 91.07(15)
N1 Zn1 N4 88.89(15)
N3 Zn1 N2 89.47(15)
N1 Zn1 N2 90.46(14)
N4 Zn1 N2 176.36(15)
N53 Zn2 N51 177.75(15)
N53 Zn2 N54 90.74(14)
N51 Zn2 N54 89.44(14)
N53 Zn2 N52 89.68(14)
N51 Zn2 N52 90.05(14)
N54 Zn2 N52 177.23(15)
C4 N1 C1 106.3(4)
C4 N1 Zn1 125.4(3)
C1 N1 Zn1 128.2(3)
C6 N2 C9 105.3(4)
C6 N2 Zn1 127.0(3)
C9 N2 Zn1 127.6(3)
C14 N3 C11 106.2(4)
C14 N3 Zn1 126.5(3)
C11 N3 Zn1 127.3(3)
C19 N4 C16 105.8(4)
C19 N4 Zn1 128.7(3)
C16 N4 Zn1 125.4(3)
C51 N51 C54 106.4(4)
C51 N51 Zn2 127.3(3)
C54 N51 Zn2 126.3(3)
C56 N52 C59 106.4(4)
C56 N52 Zn2 127.0(3)
C59 N52 Zn2 126.5(3)
C64 N53 C61 106.4(3)
C64 N53 Zn2 126.8(3)
C61 N53 Zn2 126.8(3)
C69 N54 C66 106.9(4)
C69 N54 Zn2 126.7(3)
C66 N54 Zn2 126.0(3)
N1 C1 C20 123.7(4)
N1 C1 C2 109.4(4)
C20 C1 C2 127.0(4)
C3 C2 C1 106.7(4)
C3 C2 C21 124.6(4)
C1 C2 C21 128.5(4)
C2 C3 C4 107.5(4)
C2 C3 C23 128.1(4)
C4 C3 C23 124.4(4)
N1 C4 C5 125.2(4)
N1 C4 C3 110.1(4)
C5 C4 C3 124.7(4)
C6 C5 C4 127.7(4)
C6 C5 H5A 116.1
C4 C5 H5A 116.1
N2 C6 C5 124.1(4)
N2 C6 C7 111.2(4)
C5 C6 C7 124.7(4)
C8 C7 C6 106.4(4)
C8 C7 C25 128.4(4)
C6 C7 C25 125.0(4)
C7 C8 C9 106.5(4)
C7 C8 C27 126.3(4)
C9 C8 C27 127.2(4)
N2 C9 C10 123.7(4)
N2 C9 C8 110.6(4)
C10 C9 C8 125.7(4)
C11 C10 C9 126.8(4)
C11 C10 H10A 116.6
C9 C10 H10A 116.6
N3 C11 C10 124.9(4)
N3 C11 C12 109.6(4)
C10 C11 C12 125.5(4)
C13 C12 C11 106.4(4)
C13 C12 C29 128.0(4)
C11 C12 C29 125.6(4)
C12 C13 C14 107.4(4)
C12 C13 C31 127.6(4)
C14 C13 C31 124.9(4)
N3 C14 C15 123.8(4)
N3 C14 C13 110.4(4)
C15 C14 C13 125.9(4)
C16 C15 C14 128.5(4)
C16 C15 H15A 115.8
C14 C15 H15A 115.8
N4 C16 C15 124.5(4)
N4 C16 C17 110.1(4)
C15 C16 C17 125.3(4)
C18 C17 C16 107.1(4)
C18 C17 C33 127.8(4)
C16 C17 C33 125.2(4)
C17 C18 C19 107.1(4)
C17 C18 C35 124.2(4)
C19 C18 C35 127.9(4)
N4 C19 C20 122.9(4)
N4 C19 C18 109.8(4)
C20 C19 C18 127.2(4)
C1 C20 C19 126.5(4)
C1 C20 C37 117.2(4)
C19 C20 C37 114.8(4)
C2 C21 C22 111.9(4)
C2 C21 H21A 109.2
C22 C21 H21A 109.2
C2 C21 H21B 109.2
C22 C21 H21B 109.2
H21A C21 H21B 107.9
C21 C22 H22A 109.5
C21 C22 H22B 109.5
H22A C22 H22B 109.5
C21 C22 H22C 109.5
H22A C22 H22C 109.5
H22B C22 H22C 109.5
C3 C23 C24 115.4(4)
C3 C23 H23A 108.4
C24 C23 H23A 108.4
C3 C23 H23B 108.4
C24 C23 H23B 108.4
H23A C23 H23B 107.5
C23 C24 H24A 109.5
C23 C24 H24B 109.5
H24A C24 H24B 109.5
C23 C24 H24C 109.5
H24A C24 H24C 109.5
H24B C24 H24C 109.5
C7 C25 C26 113.1(4)
C7 C25 H25A 109.0
C26 C25 H25A 109.0
C7 C25 H25B 109.0
C26 C25 H25B 109.0
H25A C25 H25B 107.8
C25 C26 H26A 109.5
C25 C26 H26B 109.5
H26A C26 H26B 109.5
C25 C26 H26C 109.5
H26A C26 H26C 109.5
H26B C26 H26C 109.5
C8 C27 C28 114.8(4)
C8 C27 H27A 108.6
C28 C27 H27A 108.6
C8 C27 H27B 108.6
C28 C27 H27B 108.6
H27A C27 H27B 107.6
C27 C28 H28A 109.5
C27 C28 H28B 109.5
H28A C28 H28B 109.5
C27 C28 H28C 109.5
H28A C28 H28C 109.5
H28B C28 H28C 109.5
C12 C29 C30 113.4(4)
C12 C29 H29A 108.9
C30 C29 H29A 108.9
C12 C29 H29B 108.9
C30 C29 H29B 108.9
H29A C29 H29B 107.7
C29 C30 H30A 109.5
C29 C30 H30B 109.5
H30A C30 H30B 109.5
C29 C30 H30C 109.5
H30A C30 H30C 109.5
H30B C30 H30C 109.5
C13 C31 C32 113.4(4)
C13 C31 H31A 108.9
C32 C31 H31A 108.9
C13 C31 H31B 108.9
C32 C31 H31B 108.9
H31A C31 H31B 107.7
C31 C32 H32A 109.5
C31 C32 H32B 109.5
H32A C32 H32B 109.5
C31 C32 H32C 109.5
H32A C32 H32C 109.5
H32B C32 H32C 109.5
C17 C33 C34 113.0(4)
C17 C33 H33A 109.0
C34 C33 H33A 109.0
C17 C33 H33B 109.0
C34 C33 H33B 109.0
H33A C33 H33B 107.8
C33 C34 H34A 109.5
C33 C34 H34B 109.5
H34A C34 H34B 109.5
C33 C34 H34C 109.5
H34A C34 H34C 109.5
H34B C34 H34C 109.5
C36 C35 C18 111.5(4)
C36 C35 H35A 109.3
C18 C35 H35A 109.3
C36 C35 H35B 109.3
C18 C35 H35B 109.3
H35A C35 H35B 108.0
C35 C36 H36A 109.5
C35 C36 H36B 109.5
H36A C36 H36B 109.5
C35 C36 H36C 109.5
H36A C36 H36C 109.5
H36B C36 H36C 109.5
C87 C37 C20 120.7(4)
C87 C37 H37A 119.6
C20 C37 H37A 119.6
N51 C51 C70 124.6(4)
N51 C51 C52 109.4(4)
C70 C51 C52 126.1(4)
C53 C52 C51 107.1(4)
C53 C52 C71 124.8(4)
C51 C52 C71 127.7(4)
C52 C53 C54 106.5(4)
C52 C53 C73 127.7(4)
C54 C53 C73 125.6(4)
N51 C54 C55 125.0(4)
N51 C54 C53 110.6(4)
C55 C54 C53 124.3(4)
C56 C55 C54 127.6(4)
C56 C55 H55A 116.2
C54 C55 H55A 116.2
N52 C56 C55 123.9(4)
N52 C56 C57 109.8(4)
C55 C56 C57 126.2(4)
C58 C57 C56 107.0(4)
C58 C57 C75 127.0(4)
C56 C57 C75 126.0(4)
C57 C58 C59 106.8(4)
C57 C58 C77 127.9(4)
C59 C58 C77 125.2(4)
N52 C59 C60 124.2(4)
N52 C59 C58 109.9(4)
C60 C59 C58 125.9(4)
C61 C60 C59 127.3(4)
C61 C60 H60A 116.4
C59 C60 H60A 116.4
C60 C61 N53 124.9(4)
C60 C61 C62 125.3(4)
N53 C61 C62 109.8(4)
C63 C62 C61 106.4(4)
C63 C62 C79 128.3(4)
C61 C62 C79 125.0(4)
C62 C63 C64 107.5(4)
C62 C63 C81 126.1(4)
C64 C63 C81 126.4(4)
N53 C64 C65 123.8(4)
N53 C64 C63 109.9(4)
C65 C64 C63 126.3(4)
C66 C65 C64 128.0(4)
C66 C65 H65A 116.0
C64 C65 H65A 116.0
N54 C66 C65 124.6(4)
N54 C66 C67 109.8(4)
C65 C66 C67 125.5(4)
C68 C67 C66 108.0(4)
C68 C67 C83 126.2(4)
C66 C67 C83 125.8(4)
C67 C68 C69 105.7(4)
C67 C68 C85 126.1(4)
C69 C68 C85 127.9(4)
N54 C69 C70 124.7(4)
N54 C69 C68 109.5(4)
C70 C69 C68 125.7(4)
C51 C70 C69 124.9(4)
C51 C70 C87 117.1(4)
C69 C70 C87 116.5(4)
C52 C71 C72 112.5(4)
C52 C71 H71A 109.1
C72 C71 H71A 109.1
C52 C71 H71B 109.1
C72 C71 H71B 109.1
H71A C71 H71B 107.8
C71 C72 H72A 109.5
C71 C72 H72B 109.5
H72A C72 H72B 109.5
C71 C72 H72C 109.5
H72A C72 H72C 109.5
H72B C72 H72C 109.5
C53 C73 C74 111.8(4)
C53 C73 H73A 109.3
C74 C73 H73A 109.3
C53 C73 H73B 109.3
C74 C73 H73B 109.3
H73A C73 H73B 107.9
C73 C74 H74A 109.5
C73 C74 H74B 109.5
H74A C74 H74B 109.5
C73 C74 H74C 109.5
H74A C74 H74C 109.5
H74B C74 H74C 109.5
C57 C75 C76 113.1(4)
C57 C75 H75A 109.0
C76 C75 H75A 109.0
C57 C75 H75B 109.0
C76 C75 H75B 109.0
H75A C75 H75B 107.8
C75 C76 H76A 109.5
C75 C76 H76B 109.5
H76A C76 H76B 109.5
C75 C76 H76C 109.5
H76A C76 H76C 109.5
H76B C76 H76C 109.5
C58 C77 C78 115.5(4)
C58 C77 H77A 108.4
C78 C77 H77A 108.4
C58 C77 H77B 108.4
C78 C77 H77B 108.4
H77A C77 H77B 107.5
C77 C78 H78A 109.5
C77 C78 H78B 109.5
H78A C78 H78B 109.5
C77 C78 H78C 109.5
H78A C78 H78C 109.5
H78B C78 H78C 109.5
C62 C79 C80 112.1(4)
C62 C79 H79A 109.2
C80 C79 H79A 109.2
C62 C79 H79B 109.2
C80 C79 H79B 109.2
H79A C79 H79B 107.9
C79 C80 H80A 109.5
C79 C80 H80B 109.5
H80A C80 H80B 109.5
C79 C80 H80C 109.5
H80A C80 H80C 109.5
H80B C80 H80C 109.5
C63 C81 C82 113.1(4)
C63 C81 H81A 109.0
C82 C81 H81A 109.0
C63 C81 H81B 109.0
C82 C81 H81B 109.0
H81A C81 H81B 107.8
C81 C82 H82A 109.5
C81 C82 H82B 109.5
H82A C82 H82B 109.5
C81 C82 H82C 109.5
H82A C82 H82C 109.5
H82B C82 H82C 109.5
C67 C83 C84 113.5(4)
C67 C83 H83A 108.9
C84 C83 H83A 108.9
C67 C83 H83B 108.9
C84 C83 H83B 108.9
H83A C83 H83B 107.7
C83 C84 H84A 109.5
C83 C84 H84B 109.5
H84A C84 H84B 109.5
C83 C84 H84C 109.5
H84A C84 H84C 109.5
H84B C84 H84C 109.5
C68 C85 C86 112.5(4)
C68 C85 H85A 109.1
C86 C85 H85A 109.1
C68 C85 H85B 109.1
C86 C85 H85B 109.1
H85A C85 H85B 107.8
C85 C86 H86A 109.5
C85 C86 H86B 109.5
H86A C86 H86B 109.5
C85 C86 H86C 109.5
H86A C86 H86C 109.5
H86B C86 H86C 109.5
C37 C87 C70 118.9(4)
C37 C87 H87A 120.6
C70 C87 H87A 120.6
loop_
_geom_bond_atom_site_label_1
_geom_bond_atom_site_label_2
_geom_bond_distance
Zn1 N3 2.021(4)
Zn1 N1 2.031(4)
Zn1 N4 2.046(4)
Zn1 N2 2.046(4)
Zn2 N53 2.027(3)
Zn2 N51 2.030(4)
Zn2 N54 2.036(4)
Zn2 N52 2.050(4)
N1 C4 1.384(6)
N1 C1 1.386(5)
N2 C6 1.364(6)
N2 C9 1.379(6)
N3 C14 1.377(6)
N3 C11 1.383(6)
N4 C19 1.377(6)
N4 C16 1.379(6)
N51 C51 1.372(5)
N51 C54 1.377(6)
N52 C56 1.375(6)
N52 C59 1.380(5)
N53 C64 1.374(6)
N53 C61 1.382(6)
N54 C69 1.370(5)
N54 C66 1.375(5)
C1 C20 1.409(6)
C1 C2 1.457(6)
C2 C3 1.368(6)
C2 C21 1.504(6)
C3 C4 1.434(6)
C3 C23 1.509(6)
C4 C5 1.394(6)
C5 C6 1.377(6)
C5 H5A 0.9500
C6 C7 1.452(6)
C7 C8 1.358(6)
C7 C25 1.503(6)
C8 C9 1.453(6)
C8 C27 1.500(6)
C9 C10 1.397(6)
C10 C11 1.387(6)
C10 H10A 0.9500
C11 C12 1.459(6)
C12 C13 1.364(6)
C12 C29 1.498(6)
C13 C14 1.435(6)
C13 C31 1.498(6)
C14 C15 1.394(6)
C15 C16 1.380(6)
C15 H15A 0.9500
C16 C17 1.452(6)
C17 C18 1.343(6)
C17 C33 1.499(6)
C18 C19 1.457(6)
C18 C35 1.517(6)
C19 C20 1.411(6)
C20 C37 1.510(6)
C21 C22 1.525(6)
C21 H21A 0.9900
C21 H21B 0.9900
C22 H22A 0.9800
C22 H22B 0.9800
C22 H22C 0.9800
C23 C24 1.532(6)
C23 H23A 0.9900
C23 H23B 0.9900
C24 H24A 0.9800
C24 H24B 0.9800
C24 H24C 0.9800
C25 C26 1.532(7)
C25 H25A 0.9900
C25 H25B 0.9900
C26 H26A 0.9800
C26 H26B 0.9800
C26 H26C 0.9800
C27 C28 1.530(7)
C27 H27A 0.9900
C27 H27B 0.9900
C28 H28A 0.9800
C28 H28B 0.9800
C28 H28C 0.9800
C29 C30 1.526(6)
C29 H29A 0.9900
C29 H29B 0.9900
C30 H30A 0.9800
C30 H30B 0.9800
C30 H30C 0.9800
C31 C32 1.526(7)
C31 H31A 0.9900
C31 H31B 0.9900
C32 H32A 0.9800
C32 H32B 0.9800
C32 H32C 0.9800
C33 C34 1.517(7)
C33 H33A 0.9900
C33 H33B 0.9900
C34 H34A 0.9800
C34 H34B 0.9800
C34 H34C 0.9800
C35 C36 1.515(7)
C35 H35A 0.9900
C35 H35B 0.9900
C36 H36A 0.9800
C36 H36B 0.9800
C36 H36C 0.9800
C37 C87 1.324(6)
C37 H37A 0.9500
C51 C70 1.392(6)
C51 C52 1.464(6)
C52 C53 1.361(6)
C52 C71 1.513(6)
C53 C54 1.443(6)
C53 C73 1.489(6)
C54 C55 1.393(6)
C55 C56 1.382(6)
C55 H55A 0.9500
C56 C57 1.449(6)
C57 C58 1.364(6)
C57 C75 1.497(6)
C58 C59 1.445(6)
C58 C77 1.501(6)
C59 C60 1.388(6)
C60 C61 1.377(6)
C60 H60A 0.9500
C61 C62 1.456(6)
C62 C63 1.361(6)
C62 C79 1.495(6)
C63 C64 1.444(6)
C63 C81 1.497(6)
C64 C65 1.394(6)
C65 C66 1.384(6)
C65 H65A 0.9500
C66 C67 1.438(6)
C67 C68 1.362(6)
C67 C83 1.517(6)
C68 C69 1.475(6)
C68 C85 1.496(6)
C69 C70 1.414(6)
C70 C87 1.506(6)
C71 C72 1.516(7)
C71 H71A 0.9900
C71 H71B 0.9900
C72 H72A 0.9800
C72 H72B 0.9800
C72 H72C 0.9800
C73 C74 1.521(7)
C73 H73A 0.9900
C73 H73B 0.9900
C74 H74A 0.9800
C74 H74B 0.9800
C74 H74C 0.9800
C75 C76 1.534(6)
C75 H75A 0.9900
C75 H75B 0.9900
C76 H76A 0.9800
C76 H76B 0.9800
C76 H76C 0.9800
C77 C78 1.525(7)
C77 H77A 0.9900
C77 H77B 0.9900
C78 H78A 0.9800
C78 H78B 0.9800
C78 H78C 0.9800
C79 C80 1.522(7)
C79 H79A 0.9900
C79 H79B 0.9900
C80 H80A 0.9800
C80 H80B 0.9800
C80 H80C 0.9800
C81 C82 1.520(7)
C81 H81A 0.9900
C81 H81B 0.9900
C82 H82A 0.9800
C82 H82B 0.9800
C82 H82C 0.9800
C83 C84 1.529(6)
C83 H83A 0.9900
C83 H83B 0.9900
C84 H84A 0.9800
C84 H84B 0.9800
C84 H84C 0.9800
C85 C86 1.532(6)
C85 H85A 0.9900
C85 H85B 0.9900
C86 H86A 0.9800
C86 H86B 0.9800
C86 H86C 0.9800
C87 H87A 0.9500
loop_
_geom_torsion_atom_site_label_1
_geom_torsion_atom_site_label_2
_geom_torsion_atom_site_label_3
_geom_torsion_atom_site_label_4
_geom_torsion
C4 N1 C1 C20 175.6(4)
Zn1 N1 C1 C20 -1.7(6)
C4 N1 C1 C2 -2.9(5)
Zn1 N1 C1 C2 179.8(3)
N1 C1 C2 C3 3.4(5)
C20 C1 C2 C3 -175.1(4)
N1 C1 C2 C21 -170.7(4)
C20 C1 C2 C21 10.8(8)
C1 C2 C3 C4 -2.3(5)
C21 C2 C3 C4 172.0(4)
C1 C2 C3 C23 176.7(4)
C21 C2 C3 C23 -8.9(7)
C1 N1 C4 C5 -178.9(4)
Zn1 N1 C4 C5 -1.5(7)
C1 N1 C4 C3 1.5(5)
Zn1 N1 C4 C3 178.8(3)
C2 C3 C4 N1 0.6(5)
C23 C3 C4 N1 -178.5(4)
C2 C3 C4 C5 -179.0(4)
C23 C3 C4 C5 1.8(7)
N1 C4 C5 C6 -1.7(8)
C3 C4 C5 C6 177.9(5)
C9 N2 C6 C5 -178.7(4)
Zn1 N2 C6 C5 -0.9(7)
C9 N2 C6 C7 -1.8(5)
Zn1 N2 C6 C7 176.0(3)
C4 C5 C6 N2 3.0(8)
C4 C5 C6 C7 -173.5(5)
N2 C6 C7 C8 0.3(6)
C5 C6 C7 C8 177.2(5)
N2 C6 C7 C25 -174.7(4)
C5 C6 C7 C25 2.1(8)
C6 C7 C8 C9 1.2(5)
C25 C7 C8 C9 176.1(5)
C6 C7 C8 C27 -176.7(4)
C25 C7 C8 C27 -1.8(8)
C6 N2 C9 C10 -178.0(5)
Zn1 N2 C9 C10 4.2(7)
C6 N2 C9 C8 2.6(5)
Zn1 N2 C9 C8 -175.2(3)
C7 C8 C9 N2 -2.5(5)
C27 C8 C9 N2 175.4(4)
C7 C8 C9 C10 178.1(5)
C27 C8 C9 C10 -4.0(8)
N2 C9 C10 C11 -1.7(8)
C8 C9 C10 C11 177.7(4)
C14 N3 C11 C10 -178.3(4)
Zn1 N3 C11 C10 5.0(6)
C14 N3 C11 C12 1.1(5)
Zn1 N3 C11 C12 -175.6(3)
C9 C10 C11 N3 -3.1(8)
C9 C10 C11 C12 177.6(5)
N3 C11 C12 C13 -0.3(5)
C10 C11 C12 C13 179.1(4)
N3 C11 C12 C29 -179.8(4)
C10 C11 C12 C29 -0.4(7)
C11 C12 C13 C14 -0.6(5)
C29 C12 C13 C14 178.9(4)
C11 C12 C13 C31 -178.5(4)
C29 C12 C13 C31 0.9(8)
C11 N3 C14 C15 177.7(4)
Zn1 N3 C14 C15 -5.5(6)
C11 N3 C14 C13 -1.5(5)
Zn1 N3 C14 C13 175.3(3)
C12 C13 C14 N3 1.3(5)
C31 C13 C14 N3 179.3(4)
C12 C13 C14 C15 -177.9(4)
C31 C13 C14 C15 0.1(7)
N3 C14 C15 C16 0.3(8)
C13 C14 C15 C16 179.4(5)
C19 N4 C16 C15 175.4(5)
Zn1 N4 C16 C15 -2.1(7)
C19 N4 C16 C17 -2.8(5)
Zn1 N4 C16 C17 179.7(3)
C14 C15 C16 N4 3.8(8)
C14 C15 C16 C17 -178.3(5)
N4 C16 C17 C18 1.0(5)
C15 C16 C17 C18 -177.2(5)
N4 C16 C17 C33 -177.4(4)
C15 C16 C17 C33 4.4(8)
C16 C17 C18 C19 1.1(5)
C33 C17 C18 C19 179.5(5)
C16 C17 C18 C35 -169.9(4)
C33 C17 C18 C35 8.5(8)
C16 N4 C19 C20 -173.4(4)
Zn1 N4 C19 C20 4.0(6)
C16 N4 C19 C18 3.4(5)
Zn1 N4 C19 C18 -179.1(3)
C17 C18 C19 N4 -2.9(5)
C35 C18 C19 N4 167.7(4)
C17 C18 C19 C20 173.8(5)
C35 C18 C19 C20 -15.6(8)
N1 C1 C20 C19 11.8(7)
C2 C1 C20 C19 -170.0(5)
N1 C1 C20 C37 -153.3(4)
C2 C1 C20 C37 24.9(7)
N4 C19 C20 C1 -12.9(7)
C18 C19 C20 C1 170.8(4)
N4 C19 C20 C37 152.5(4)
C18 C19 C20 C37 -23.8(7)
C3 C2 C21 C22 -71.6(6)
C1 C2 C21 C22 101.5(5)
C2 C3 C23 C24 103.9(5)
C4 C3 C23 C24 -77.2(6)
C8 C7 C25 C26 -93.6(6)
C6 C7 C25 C26 80.3(6)
C7 C8 C27 C28 -74.7(6)
C9 C8 C27 C28 107.8(5)
C13 C12 C29 C30 -94.9(6)
C11 C12 C29 C30 84.5(6)
C12 C13 C31 C32 92.6(6)
C14 C13 C31 C32 -85.0(6)
C18 C17 C33 C34 -83.0(6)
C16 C17 C33 C34 95.1(6)
C17 C18 C35 C36 102.4(5)
C19 C18 C35 C36 -66.7(6)
C1 C20 C37 C87 72.7(6)
C19 C20 C37 C87 -94.1(5)
C54 N51 C51 C70 176.9(4)
Zn2 N51 C51 C70 -0.9(6)
C54 N51 C51 C52 -2.4(5)
Zn2 N51 C51 C52 179.8(3)
N51 C51 C52 C53 0.9(5)
C70 C51 C52 C53 -178.4(5)
N51 C51 C52 C71 -172.1(4)
C70 C51 C52 C71 8.6(8)
C51 C52 C53 C54 0.9(5)
C71 C52 C53 C54 174.2(4)
C51 C52 C53 C73 -174.9(5)
C71 C52 C53 C73 -1.6(8)
C51 N51 C54 C55 -172.9(4)
Zn2 N51 C54 C55 4.9(7)
C51 N51 C54 C53 3.0(5)
Zn2 N51 C54 C53 -179.2(3)
C52 C53 C54 N51 -2.4(5)
C73 C53 C54 N51 173.4(4)
C52 C53 C54 C55 173.5(4)
C73 C53 C54 C55 -10.7(7)
N51 C54 C55 C56 -1.0(8)
C53 C54 C55 C56 -176.3(5)
C59 N52 C56 C55 178.1(4)
Zn2 N52 C56 C55 2.7(7)
C59 N52 C56 C57 -0.1(5)
Zn2 N52 C56 C57 -175.4(3)
C54 C55 C56 N52 -3.1(8)
C54 C55 C56 C57 174.7(5)
N52 C56 C57 C58 0.9(5)
C55 C56 C57 C58 -177.2(5)
N52 C56 C57 C75 -177.8(4)
C55 C56 C57 C75 4.1(8)
C56 C57 C58 C59 -1.2(5)
C75 C57 C58 C59 177.4(4)
C56 C57 C58 C77 175.7(5)
C75 C57 C58 C77 -5.6(8)
C56 N52 C59 C60 177.0(4)
Zn2 N52 C59 C60 -7.6(6)
C56 N52 C59 C58 -0.7(5)
Zn2 N52 C59 C58 174.7(3)
C57 C58 C59 N52 1.3(5)
C77 C58 C59 N52 -175.8(4)
C57 C58 C59 C60 -176.4(5)
C77 C58 C59 C60 6.5(8)
N52 C59 C60 C61 -0.4(8)
C58 C59 C60 C61 176.9(5)
C59 C60 C61 N53 5.3(8)
C59 C60 C61 C62 -173.8(5)
C64 N53 C61 C60 179.7(5)
Zn2 N53 C61 C60 -1.6(7)
C64 N53 C61 C62 -1.1(5)
Zn2 N53 C61 C62 177.6(3)
C60 C61 C62 C63 179.5(5)
N53 C61 C62 C63 0.3(5)
C60 C61 C62 C79 4.9(8)
N53 C61 C62 C79 -174.3(4)
C61 C62 C63 C64 0.6(5)
C79 C62 C63 C64 175.0(4)
C61 C62 C63 C81 179.8(5)
C79 C62 C63 C81 -5.8(8)
C61 N53 C64 C65 -177.8(4)
Zn2 N53 C64 C65 3.4(7)
C61 N53 C64 C63 1.5(5)
Zn2 N53 C64 C63 -177.3(3)
C62 C63 C64 N53 -1.3(5)
C81 C63 C64 N53 179.5(4)
C62 C63 C64 C65 178.0(4)
C81 C63 C64 C65 -1.2(8)
N53 C64 C65 C66 -0.9(8)
C63 C64 C65 C66 180.0(5)
C69 N54 C66 C65 175.4(4)
Zn2 N54 C66 C65 2.3(6)
C69 N54 C66 C67 -1.9(5)
Zn2 N54 C66 C67 -175.1(3)
C64 C65 C66 N54 -2.2(8)
C64 C65 C66 C67 174.7(4)
N54 C66 C67 C68 0.6(5)
C65 C66 C67 C68 -176.8(4)
N54 C66 C67 C83 -179.4(4)
C65 C66 C67 C83 3.3(7)
C66 C67 C68 C69 1.0(5)
C83 C67 C68 C69 -179.1(4)
C66 C67 C68 C85 -172.8(4)
C83 C67 C68 C85 7.1(7)
C66 N54 C69 C70 -174.4(4)
Zn2 N54 C69 C70 -1.4(6)
C66 N54 C69 C68 2.5(5)
Zn2 N54 C69 C68 175.6(3)
C67 C68 C69 N54 -2.2(5)
C85 C68 C69 N54 171.4(4)
C67 C68 C69 C70 174.7(4)
C85 C68 C69 C70 -11.7(7)
N51 C51 C70 C69 15.3(7)
C52 C51 C70 C69 -165.5(4)
N51 C51 C70 C87 -149.9(4)
C52 C51 C70 C87 29.3(7)
N54 C69 C70 C51 -14.1(7)
C68 C69 C70 C51 169.4(4)
N54 C69 C70 C87 151.2(4)
C68 C69 C70 C87 -25.3(7)
C53 C52 C71 C72 -103.3(5)
C51 C52 C71 C72 68.6(6)
C52 C53 C73 C74 89.1(6)
C54 C53 C73 C74 -85.9(6)
C58 C57 C75 C76 -74.7(6)
C56 C57 C75 C76 103.7(5)
C57 C58 C77 C78 107.4(6)
C59 C58 C77 C78 -76.1(6)
C63 C62 C79 C80 -91.4(6)
C61 C62 C79 C80 82.1(6)
C62 C63 C81 C82 -82.4(6)
C64 C63 C81 C82 96.6(6)
C68 C67 C83 C84 -87.8(5)
C66 C67 C83 C84 92.1(5)
C67 C68 C85 C86 104.6(5)
C69 C68 C85 C86 -67.8(6)
C20 C37 C87 C70 -4.8(6)
C51 C70 C87 C37 73.2(6)
C69 C70 C87 C37 -93.3(5)
