#------------------------------------------------------------------------------
#$Date: 2019-11-23 03:31:52 +0200 (Sat, 23 Nov 2019) $
#$Revision: 232008 $
#$URL: file:///home/coder/svn-repositories/cod/cif/4/34/68/4346840.cif $
#------------------------------------------------------------------------------
#
# This file is available in the Crystallography Open Database (COD),
# http://www.crystallography.net/
#
# All data on this site have been placed in the public domain by the
# contributors.
#
data_4346840
loop_
_publ_author_name
'Sil, Debangsu'
'Bhowmik, Susovan'
'Khan, Firoz Shah Tuglak'
'Rath, Sankar Prasad'
_publ_section_title
;
 Experimental and Theoretical Investigation of a Series of Novel
 Dimanganese(III) \m-Hydroxo Bisporphyrins: Magneto-Structural Correlation
 and Effect of Metal Spin on Porphyrin Core Deformation.
;
_journal_issue                   7
_journal_name_full               'Inorganic chemistry'
_journal_page_first              3239
_journal_page_last               3251
_journal_paper_doi               10.1021/acs.inorgchem.5b02226
_journal_volume                  55
_journal_year                    2016
_chemical_formula_sum            'C84 H101 Cl Mn2 N8 O5'
_chemical_formula_weight         1448.05
_space_group_crystal_system      triclinic
_space_group_IT_number           2
_space_group_name_Hall           '-P 1'
_space_group_name_H-M_alt        'P -1'
_atom_sites_solution_hydrogens   geom
_audit_creation_method           SHELXL-2014
_cell_angle_alpha                91.405(2)
_cell_angle_beta                 109.5290(10)
_cell_angle_gamma                109.816(2)
_cell_formula_units_Z            2
_cell_length_a                   15.0609(11)
_cell_length_b                   15.1516(11)
_cell_length_c                   18.4813(13)
_cell_measurement_reflns_used    999
_cell_measurement_temperature    100(2)
_cell_measurement_theta_max      27.5
_cell_measurement_theta_min      2.5
_cell_volume                     3693.9(5)
_computing_cell_refinement       'Bruker SAINT'
_computing_data_collection       'Bruker APEX'
_computing_data_reduction        'Bruker SAINT'
_computing_molecular_graphics    'SHELXL 5.1, XP (Sheldrick, 1994)'
_computing_publication_material  SHELXS-97
_computing_structure_refinement  'SHELXL-2014 (Sheldrick, 2014)'
_computing_structure_solution    'SHELXS-97 (Sheldrick, 2008)'
_diffrn_ambient_temperature      100(2)
_diffrn_measured_fraction_theta_full 0.980
_diffrn_measured_fraction_theta_max 0.976
_diffrn_measurement_device_type  'Bruker SMART APEX'
_diffrn_measurement_method       \w
_diffrn_radiation_type           MoK\a
_diffrn_radiation_wavelength     0.71073
_diffrn_reflns_av_R_equivalents  0.0388
_diffrn_reflns_av_unetI/netI     0.0919
_diffrn_reflns_Laue_measured_fraction_full 0.980
_diffrn_reflns_Laue_measured_fraction_max 0.976
_diffrn_reflns_limit_h_max       9
_diffrn_reflns_limit_h_min       -18
_diffrn_reflns_limit_k_max       18
_diffrn_reflns_limit_k_min       -18
_diffrn_reflns_limit_l_max       22
_diffrn_reflns_limit_l_min       -19
_diffrn_reflns_number            20204
_diffrn_reflns_point_group_measured_fraction_full 0.980
_diffrn_reflns_point_group_measured_fraction_max 0.976
_diffrn_reflns_theta_full        25.000
_diffrn_reflns_theta_max         25.500
_diffrn_reflns_theta_min         1.566
_diffrn_source                   'fine-focus sealed tube'
_exptl_absorpt_coefficient_mu    0.437
_exptl_absorpt_correction_T_max  0.960
_exptl_absorpt_correction_T_min  0.910
_exptl_absorpt_correction_type   multi-scan
_exptl_absorpt_process_details   'SADABS 2.05 (Sheldrick, 2002)'
_exptl_crystal_colour            'dark red'
_exptl_crystal_density_diffrn    1.302
_exptl_crystal_description       block
_exptl_crystal_F_000             1536
_exptl_crystal_size_max          0.240
_exptl_crystal_size_mid          0.180
_exptl_crystal_size_min          0.100
_refine_diff_density_max         1.557
_refine_diff_density_min         -0.759
_refine_diff_density_rms         0.102
_refine_ls_extinction_method     none
_refine_ls_goodness_of_fit_ref   1.055
_refine_ls_hydrogen_treatment    constr
_refine_ls_matrix_type           full
_refine_ls_number_parameters     928
_refine_ls_number_reflns         13414
_refine_ls_number_restraints     18
_refine_ls_restrained_S_all      1.057
_refine_ls_R_factor_all          0.1288
_refine_ls_R_factor_gt           0.0749
_refine_ls_shift/su_max          0.000
_refine_ls_shift/su_mean         0.000
_refine_ls_structure_factor_coef Fsqd
_refine_ls_weighting_details
'w=1/[\s^2^(Fo^2^)+(0.1022P)^2^+6.7899P] where P=(Fo^2^+2Fc^2^)/3'
_refine_ls_weighting_scheme      calc
_refine_ls_wR_factor_gt          0.1820
_refine_ls_wR_factor_ref         0.2316
_reflns_Friedel_coverage         0.000
_reflns_number_gt                8237
_reflns_number_total             13414
_reflns_threshold_expression     'I > 2\s(I)'
_cod_data_source_file            ic5b02226_si_005.cif
_cod_data_source_block           22maram
_cod_database_code               4346840
_shelx_space_group_comment
;
The symmetry employed for this shelxl refinement is uniquely defined
by the following loop, which should always be used as a source of
symmetry information in preference to the above space-group names.
They are only intended as comments.
;
_shelx_estimated_absorpt_t_min   0.902
_shelx_estimated_absorpt_t_max   0.958
_shelxl_version_number           2014-3
_shelx_res_file
;
TITL 22maram in P -1
CELL  0.71073  15.0609  15.1516  18.4813   91.405  109.529  109.816
ZERR     2.00   0.0011   0.0011   0.0013    0.002    0.001    0.002
LATT   1
SFAC  C    H    N    O    CL   MN
UNIT  168  202  16   10    2    4
MERG   2
FMAP   2
PLAN   15
omit -3 51.0
omit 7   3   5
omit   1 -12   7
omit  -1   0  13
omit -1 1 1
omit -1 0 2
omit -1 0 3
omit 0 0 1
omit 2 1 1
omit 1 1 1
omit 1 0 0
omit 1 2 0
omit 0 2 0
omit 5 1 2
omit -1 2 2
omit 1 1 0
omit 5 14 1
omit 0 -2 1
omit -2 -1 1
omit -1 3 0
omit -11 12 16
omit 0 0 3
omit -13 -4 15
omit 1 -1 1
omit -14 -3 14
omit 3 1 1
omit 5 -2 18
omit -11  13  15
omit 1  16   2
L.S.  40
TEMP -173.0
isor 0.005 c9s
isor 0.01 c12s c13s
acta 50
bond $H
size 0.24 0.18 0.10 ! red block
WGHT    0.102200    6.789899
FVAR       0.22147
MN1   6    0.181204    0.153081    0.177638    11.00000    0.02717    0.02349 =
         0.02665   -0.00318    0.01293    0.00368
MN2   6    0.307400    0.369101    0.344105    11.00000    0.02337    0.02080 =
         0.02421   -0.00063    0.01018    0.00446
O1    4    0.273500    0.242277    0.281004    11.00000    0.02540    0.02213 =
         0.02364   -0.00512    0.00708    0.00549
N1    3    0.138788    0.043469    0.233453    11.00000    0.03080    0.01881 =
         0.02731   -0.00401    0.01564    0.00117
N2    3    0.282823    0.105952    0.160211    11.00000    0.03163    0.02486 =
         0.02362   -0.00275    0.01325    0.00481
N3    3    0.202469    0.240449    0.100305    11.00000    0.03154    0.02768 =
         0.02333    0.00190    0.01336    0.00755
N4    3    0.053701    0.173749    0.169019    11.00000    0.03397    0.03289 =
         0.02429   -0.00526    0.01319    0.00612
N5    3    0.326594    0.319807    0.444815    11.00000    0.02819    0.02011 =
         0.02678   -0.00484    0.01115    0.00447
N6    3    0.457195    0.421177    0.372275    11.00000    0.02291    0.02193 =
         0.03016    0.00094    0.00677    0.00476
N7    3    0.296367    0.448415    0.260199    11.00000    0.02885    0.02966 =
         0.02733    0.00258    0.01113    0.01064
N8    3    0.169143    0.356658    0.339233    11.00000    0.02731    0.02481 =
         0.02890   -0.00363    0.01367    0.00801
C1    1    0.076054    0.033010    0.275984    11.00000    0.03401    0.02113 =
         0.03025   -0.00335    0.01668   -0.00374
C2    1    0.072257   -0.051137    0.312828    11.00000    0.04515    0.02627 =
         0.04234   -0.00326    0.02471    0.00638
C3    1    0.129630   -0.091118    0.289944    11.00000    0.04190    0.02124 =
         0.03731    0.00285    0.01798    0.00298
C4    1    0.173089   -0.029971    0.243544    11.00000    0.03514    0.01986 =
         0.02821   -0.00444    0.01213    0.00306
C5    1    0.244658   -0.041203    0.215229    11.00000    0.04044    0.01505 =
         0.03855   -0.00136    0.02377    0.00661
AFIX  43
H5A   2    0.257688   -0.098175    0.221812    11.00000   -1.20000
AFIX   0
C6    1    0.298185    0.022695    0.178602    11.00000    0.03581    0.02404 =
         0.02514   -0.00159    0.01298    0.01064
C7    1    0.378964    0.014243    0.156914    11.00000    0.03000    0.03065 =
         0.02586   -0.00219    0.00874    0.00789
C8    1    0.416277    0.095689    0.128129    11.00000    0.01867    0.03972 =
         0.02352   -0.00086    0.00559    0.00539
C9    1    0.355351    0.150610    0.129183    11.00000    0.02629    0.03213 =
         0.02488    0.00057    0.01128    0.00836
C10   1    0.359108    0.232109    0.095217    11.00000    0.02784    0.03154 =
         0.03077    0.00217    0.00989   -0.00005
AFIX  43
H10A  2    0.417683    0.264339    0.083602    11.00000   -1.20000
AFIX   0
C11   1    0.284274    0.269439    0.077222    11.00000    0.02907    0.02656 =
         0.01873   -0.00206    0.00750    0.00808
C12   1    0.272501    0.334295    0.021391    11.00000    0.03386    0.03493 =
         0.02203   -0.00166    0.00875    0.00739
C13   1    0.182349    0.342615    0.010734    11.00000    0.04147    0.03649 =
         0.02757    0.00023    0.01382    0.01171
C14   1    0.139649    0.285694    0.060603    11.00000    0.03310    0.02814 =
         0.02584   -0.00393    0.00719    0.00872
C15   1    0.049961    0.277289    0.069328    11.00000    0.03553    0.03649 =
         0.02595   -0.00393    0.00921    0.01088
AFIX  43
H15A  2    0.011165    0.309275    0.037233    11.00000   -1.20000
AFIX   0
C16   1    0.011020    0.227364    0.119712    11.00000    0.02826    0.02795 =
         0.02738   -0.01132    0.00443    0.00748
C17   1   -0.079916    0.226086    0.130553    11.00000    0.02749    0.03498 =
         0.02992   -0.01099    0.00656    0.00721
C18   1   -0.089307    0.175099    0.189357    11.00000    0.02312    0.04047 =
         0.03123   -0.01149    0.00679    0.00306
C19   1   -0.003678    0.144267    0.215412    11.00000    0.02765    0.03042 =
         0.03000   -0.00670    0.01509    0.00273
C20   1    0.018231    0.089532    0.273359    11.00000    0.02772    0.02275 =
         0.04214   -0.01056    0.02031   -0.00600
C21   1    0.002272   -0.101937    0.353239    11.00000    0.07297    0.03272 =
         0.05939    0.01004    0.05113    0.01039
AFIX  23
H21A  2   -0.000444   -0.054989    0.389848    11.00000   -1.20000
H21B  2    0.029315   -0.146084    0.383698    11.00000   -1.20000
AFIX   0
C22   1   -0.104648   -0.157626    0.295289    11.00000    0.07495    0.03413 =
         0.10725   -0.03277    0.06464   -0.02342
AFIX 137
H22A  2   -0.147587   -0.191422    0.323289    11.00000   -1.50000
H22B  2   -0.102043   -0.203523    0.258507    11.00000   -1.50000
H22C  2   -0.132909   -0.113658    0.266894    11.00000   -1.50000
AFIX   0
C23   1    0.145377   -0.180646    0.310556    11.00000    0.05322    0.03252 =
         0.04705    0.00409    0.02847    0.01394
AFIX  23
H23A  2    0.160903   -0.208279    0.269337    11.00000   -1.20000
H23B  2    0.081922   -0.226932    0.312778    11.00000   -1.20000
AFIX   0
C24   1    0.230893   -0.164694    0.388080    11.00000    0.08026    0.04282 =
         0.06953    0.01629    0.03311    0.03583
AFIX 137
H24A  2    0.233735   -0.226029    0.401733    11.00000   -1.50000
H24B  2    0.218747   -0.132439    0.428363    11.00000   -1.50000
H24C  2    0.295358   -0.125323    0.384148    11.00000   -1.50000
AFIX   0
C25   1    0.414982   -0.066174    0.166621    11.00000    0.03162    0.02749 =
         0.03953   -0.00181    0.01413    0.00899
AFIX  23
H25A  2    0.440469   -0.073723    0.124846    11.00000   -1.20000
H25B  2    0.357346   -0.125439    0.161362    11.00000   -1.20000
AFIX   0
C26   1    0.498943   -0.051126    0.245317    11.00000    0.04381    0.03848 =
         0.04329    0.00187    0.01220    0.01830
AFIX 137
H26A  2    0.524132   -0.103150    0.247734    11.00000   -1.50000
H26B  2    0.472137   -0.049901    0.286739    11.00000   -1.50000
H26C  2    0.554522    0.009345    0.252056    11.00000   -1.50000
AFIX   0
C27   1    0.498786    0.121582    0.095777    11.00000    0.02970    0.04265 =
         0.03869    0.00674    0.01059    0.01508
AFIX  23
H27A  2    0.543447    0.086012    0.117524    11.00000   -1.20000
H27B  2    0.540126    0.190129    0.112868    11.00000   -1.20000
AFIX   0
C28   1    0.460337    0.101002    0.007689    11.00000    0.04648    0.05283 =
         0.03742    0.00604    0.02432    0.02026
AFIX 137
H28A  2    0.517891    0.122078   -0.009707    11.00000   -1.50000
H28B  2    0.415070    0.135045   -0.014431    11.00000   -1.50000
H28C  2    0.423232    0.032601   -0.009651    11.00000   -1.50000
AFIX   0
C29   1    0.344564    0.376684   -0.019014    11.00000    0.04513    0.04883 =
         0.03753    0.01269    0.01797    0.02309
AFIX  23
H29A  2    0.414713    0.392166    0.018001    11.00000   -1.20000
H29B  2    0.337815    0.436802   -0.034699    11.00000   -1.20000
AFIX   0
C30   1    0.327325    0.312067   -0.090233    11.00000    0.05424    0.08439 =
         0.03987    0.01004    0.02328    0.03375
AFIX 137
H30A  2    0.375586    0.344429   -0.114632    11.00000   -1.50000
H30B  2    0.258022    0.296346   -0.127263    11.00000   -1.50000
H30C  2    0.337214    0.253620   -0.074883    11.00000   -1.50000
AFIX   0
C31   1    0.131888    0.399320   -0.044310    11.00000    0.04795    0.04860 =
         0.03703    0.01382    0.01765    0.02126
AFIX  23
H31A  2    0.184756    0.457927   -0.047462    11.00000   -1.20000
H31B  2    0.087713    0.418331   -0.023008    11.00000   -1.20000
AFIX   0
C32   1    0.068753    0.343333   -0.125768    11.00000    0.04603    0.07238 =
         0.05416    0.01694    0.00435    0.02444
AFIX 137
H32A  2    0.034066    0.380907   -0.157894    11.00000   -1.50000
H32B  2    0.018441    0.283694   -0.122743    11.00000   -1.50000
H32C  2    0.113162    0.329402   -0.149037    11.00000   -1.50000
AFIX   0
C33   1   -0.149416    0.271816    0.083958    11.00000    0.03672    0.04251 =
         0.03592   -0.00444    0.01193    0.01549
AFIX  23
H33A  2   -0.109265    0.329718    0.068765    11.00000   -1.20000
H33B  2   -0.182015    0.291322    0.116604    11.00000   -1.20000
AFIX   0
C34   1   -0.231664    0.205439    0.010693    11.00000    0.04596    0.06148 =
         0.03148   -0.00168    0.00055    0.01850
AFIX 137
H34A  2   -0.278602    0.236326   -0.015572    11.00000   -1.50000
H34B  2   -0.268900    0.146282    0.025150    11.00000   -1.50000
H34C  2   -0.200109    0.191244   -0.024370    11.00000   -1.50000
AFIX   0
C35   1   -0.183344    0.146937    0.209941    11.00000    0.02698    0.06117 =
         0.03918   -0.00110    0.01194    0.00982
AFIX  23
H35A  2   -0.227233    0.180338    0.181228    11.00000   -1.20000
H35B  2   -0.163214    0.167712    0.266187    11.00000   -1.20000
AFIX   0
C36   1   -0.243639    0.040423    0.190910    11.00000    0.03476    0.07420 =
         0.04906   -0.00566    0.01374    0.00235
AFIX 137
H36A  2   -0.307700    0.027005    0.199051    11.00000   -1.50000
H36B  2   -0.204319    0.007515    0.224879    11.00000   -1.50000
H36C  2   -0.257710    0.018186    0.136550    11.00000   -1.50000
AFIX   0
C37   1   -0.020573    0.095148    0.339814    11.00000    0.03258    0.03127 =
         0.04255   -0.00650    0.01849    0.00251
AFIX  23
H37A  2   -0.063623    0.030372    0.342641    11.00000   -1.20000
H37B  2   -0.063615    0.133793    0.327549    11.00000   -1.20000
AFIX   0
C38   1    0.064315    0.138350    0.420010    11.00000    0.03969    0.02871 =
         0.04295   -0.00119    0.02789    0.00508
AFIX  23
H38A  2    0.097697    0.092453    0.437471    11.00000   -1.20000
H38B  2    0.033364    0.147580    0.457750    11.00000   -1.20000
AFIX   0
C101  1    0.249072    0.251277    0.460862    11.00000    0.03879    0.02787 =
         0.03220    0.00596    0.02209    0.01326
C102  1    0.295171    0.217755    0.532165    11.00000    0.04597    0.03145 =
         0.03500    0.00515    0.02260    0.01949
C103  1    0.395154    0.272384    0.559654    11.00000    0.04964    0.03323 =
         0.02093    0.00222    0.01666    0.02096
C104  1    0.415170    0.332085    0.503226    11.00000    0.03205    0.02423 =
         0.02571   -0.00292    0.01065    0.00993
C105  1    0.510732    0.385344    0.503382    11.00000    0.03217    0.02029 =
         0.03174   -0.00293    0.00353    0.00876
AFIX  43
H10B  2    0.566798    0.396356    0.550389    11.00000   -1.20000
AFIX   0
C106  1    0.531012    0.423432    0.441316    11.00000    0.02613    0.01834 =
         0.04492   -0.00405    0.00995    0.00783
C107  1    0.628647    0.461108    0.435061    11.00000    0.02803    0.02204 =
         0.05046   -0.00415    0.01476    0.00800
C108  1    0.613828    0.476986    0.361100    11.00000    0.03181    0.02307 =
         0.04807    0.00193    0.02089    0.00792
C109  1    0.506329    0.455124    0.321958    11.00000    0.02971    0.01792 =
         0.04286    0.00310    0.01759    0.00538
C110  1    0.460594    0.474975    0.249584    11.00000    0.03731    0.02974 =
         0.03606   -0.00004    0.02011    0.00719
AFIX  43
H11A  2    0.496772    0.485964    0.215235    11.00000   -1.20000
AFIX   0
C111  1    0.364211    0.479923    0.223641    11.00000    0.04122    0.02454 =
         0.03103    0.01031    0.02121    0.01069
C112  1    0.326459    0.527529    0.160659    11.00000    0.05231    0.02737 =
         0.02957   -0.00121    0.01753    0.00973
C113  1    0.237761    0.529849    0.163224    11.00000    0.04508    0.02825 =
         0.02602    0.00299    0.00870    0.01176
C114  1    0.217937    0.478760    0.223619    11.00000    0.03182    0.01967 =
         0.02755   -0.00526    0.00526    0.00652
C115  1    0.133409    0.459947    0.243718    11.00000    0.03407    0.03868 =
         0.02657   -0.00363    0.00281    0.01844
AFIX  43
H11B  2    0.085946    0.487368    0.217038    11.00000   -1.20000
AFIX   0
C116  1    0.110956    0.405211    0.298771    11.00000    0.02477    0.03411 =
         0.03007   -0.00878    0.00732    0.01230
C117  1    0.020232    0.383116    0.316377    11.00000    0.03370    0.03209 =
         0.02985   -0.00769    0.00829    0.01039
C118  1    0.023595    0.318031    0.366409    11.00000    0.01938    0.03347 =
         0.03729   -0.01859    0.00792   -0.00053
C119  1    0.114621    0.299104    0.377640    11.00000    0.03220    0.01929 =
         0.02881   -0.00590    0.01718    0.00526
C120  1    0.145931    0.234222    0.421285    11.00000    0.03470    0.03072 =
         0.03388   -0.00467    0.02275    0.00643
C121  1    0.243295    0.144240    0.572836    11.00000    0.05325    0.05080 =
         0.04131    0.01937    0.03119    0.02019
AFIX  23
H12A  2    0.172769    0.140951    0.559534    11.00000   -1.20000
H12B  2    0.278503    0.164214    0.629696    11.00000   -1.20000
AFIX   0
C122  1    0.241504    0.045771    0.551432    11.00000    0.06936    0.04589 =
         0.07236    0.02781    0.04161    0.02556
AFIX 137
H12C  2    0.204041    0.000444    0.577619    11.00000   -1.50000
H12D  2    0.311090    0.047410    0.567862    11.00000   -1.50000
H12E  2    0.208230    0.026102    0.495042    11.00000   -1.50000
AFIX   0
C123  1    0.478001    0.273086    0.634072    11.00000    0.05617    0.05091 =
         0.03455    0.00923    0.01706    0.02652
AFIX  23
H12F  2    0.446460    0.244860    0.671393    11.00000   -1.20000
H12G  2    0.522301    0.339827    0.657042    11.00000   -1.20000
AFIX   0
C124  1    0.544204    0.218850    0.623869    11.00000    0.05711    0.05805 =
         0.04104    0.01289    0.00896    0.02964
AFIX 137
H12H  2    0.595774    0.222700    0.674398    11.00000   -1.50000
H12I  2    0.577400    0.247242    0.588122    11.00000   -1.50000
H12J  2    0.501505    0.152144    0.602603    11.00000   -1.50000
AFIX   0
C125  1    0.727314    0.474091    0.499580    11.00000    0.02258    0.03372 =
         0.05396   -0.01510    0.00836    0.00470
AFIX  23
H12K  2    0.720437    0.484628    0.550201    11.00000   -1.20000
H12L  2    0.781133    0.531427    0.495793    11.00000   -1.20000
AFIX   0
C126  1    0.759288    0.388625    0.497034    11.00000    0.04000    0.05022 =
         0.05624   -0.01478   -0.00479    0.02348
AFIX 137
H12M  2    0.820598    0.398432    0.542373    11.00000   -1.50000
H12N  2    0.773085    0.381799    0.449425    11.00000   -1.50000
H12O  2    0.704640    0.330960    0.497676    11.00000   -1.50000
AFIX   0
C127  1    0.691245    0.512752    0.323792    11.00000    0.02979    0.03249 =
         0.06945    0.00230    0.02707    0.00616
AFIX  23
H12P  2    0.662521    0.478654    0.269937    11.00000   -1.20000
H12Q  2    0.751283    0.497484    0.352540    11.00000   -1.20000
AFIX   0
C128  1    0.725528    0.619976    0.321609    11.00000    0.03706    0.02966 =
         0.07435    0.00942    0.03297    0.00284
AFIX 137
H12R  2    0.777037    0.638471    0.297817    11.00000   -1.50000
H12S  2    0.754210    0.654481    0.374680    11.00000   -1.50000
H12T  2    0.667225    0.635434    0.290937    11.00000   -1.50000
AFIX   0
C129  1    0.382346    0.575946    0.110773    11.00000    0.07296    0.03720 =
         0.03189    0.01397    0.02775    0.01030
AFIX  23
H12U  2    0.332473    0.570334    0.058203    11.00000   -1.20000
H12V  2    0.426305    0.542072    0.105696    11.00000   -1.20000
AFIX   0
C130  1    0.447286    0.680010    0.140352    11.00000    0.04116    0.04221 =
         0.03974    0.01000    0.01463    0.01212
AFIX 137
H13A  2    0.474060    0.707922    0.101172    11.00000   -1.50000
H13B  2    0.503670    0.686028    0.188536    11.00000   -1.50000
H13C  2    0.406125    0.713380    0.150477    11.00000   -1.50000
AFIX   0
C131  1    0.172660    0.578443    0.113863    11.00000    0.05566    0.05151 =
         0.03577    0.01130    0.01258    0.02699
AFIX  23
H13D  2    0.100569    0.536001    0.097002    11.00000   -1.20000
H13E  2    0.189526    0.590610    0.066765    11.00000   -1.20000
AFIX   0
C132  1    0.187644    0.672140    0.157621    11.00000    0.05357    0.04101 =
         0.05753    0.01022    0.02243    0.02165
AFIX 137
H13F  2    0.145334    0.702373    0.123283    11.00000   -1.50000
H13G  2    0.259014    0.714226    0.174630    11.00000   -1.50000
H13H  2    0.168212    0.660044    0.203073    11.00000   -1.50000
AFIX   0
C133  1   -0.057861    0.426175    0.284827    11.00000    0.03098    0.05389 =
         0.03957   -0.01369    0.00497    0.01914
AFIX  23
H13I  2   -0.122644    0.383480    0.287593    11.00000   -1.20000
H13J  2   -0.068704    0.430258    0.229340    11.00000   -1.20000
AFIX   0
C134  1   -0.030844    0.524029    0.326864    11.00000    0.05058    0.06113 =
         0.05361   -0.00905    0.01001    0.03287
AFIX 137
H13K  2   -0.082404    0.549849    0.299992    11.00000   -1.50000
H13L  2    0.035349    0.565951    0.327461    11.00000   -1.50000
H13M  2   -0.027980    0.519649    0.380360    11.00000   -1.50000
AFIX   0
C135  1   -0.046890    0.286302    0.411233    11.00000    0.02705    0.04439 =
         0.03872   -0.01022    0.01370    0.00538
AFIX  23
H13N  2   -0.071204    0.216259    0.407119    11.00000   -1.20000
H13O  2   -0.106631    0.303955    0.387215    11.00000   -1.20000
AFIX   0
C136  1    0.003557    0.329963    0.496617    11.00000    0.04123    0.05717 =
         0.03831   -0.01072    0.02117    0.01046
AFIX 137
H13P  2   -0.045880    0.309131    0.522182    11.00000   -1.50000
H13Q  2    0.028810    0.399356    0.501150    11.00000   -1.50000
H13R  2    0.060258    0.309544    0.521558    11.00000   -1.50000
AFIX   0
CL1   5    0.674288    0.397450    0.130144    11.00000    0.05200    0.03943 =
         0.04485    0.01318    0.01754    0.01697
O2    4    0.755926    0.488287    0.159728    11.00000    0.05435    0.07142 =
         0.12469    0.05527    0.02578    0.00664
O3    4    0.662555    0.362180    0.057777    11.00000    0.32497    0.14374 =
         0.05661    0.05240    0.08612    0.16907
O4    4    0.586255    0.413018    0.130246    11.00000    0.04989    0.14077 =
         0.07710    0.02224    0.01310    0.05582
O5    4    0.697540    0.334735    0.183354    11.00000    0.05879    0.03783 =
         0.03603    0.01402    0.00872    0.01216
C1S   1    0.507135    0.151566    0.383686    11.00000    0.03270    0.03509 =
         0.02911   -0.01371    0.01191   -0.00229
C2S   1    0.592803    0.126050    0.412630    11.00000    0.04435    0.03341 =
         0.03803   -0.00012    0.00484    0.01153
AFIX  43
H2SA  2    0.597831    0.086865    0.452000    11.00000   -1.20000
AFIX   0
C3S   1    0.671810    0.159364    0.382504    11.00000    0.03902    0.03853 =
         0.05642   -0.00856    0.00966    0.01121
AFIX  43
H3SA  2    0.730079    0.142983    0.402086    11.00000   -1.20000
AFIX   0
C4S   1    0.663601    0.214293    0.326031    11.00000    0.02839    0.03942 =
         0.03561   -0.00632    0.01124    0.00271
AFIX  43
H4SA  2    0.715312    0.235030    0.304848    11.00000   -1.20000
AFIX   0
C5S   1    0.579368    0.240754    0.298626    11.00000    0.04211    0.03083 =
         0.04097   -0.00227    0.01409    0.01182
AFIX  43
H5SA  2    0.573983    0.280606    0.259765    11.00000   -1.20000
AFIX   0
C6S   1    0.503897    0.207849    0.329127    11.00000    0.03176    0.03031 =
         0.03826   -0.00522    0.00872    0.00863
AFIX  43
H6SA  2    0.446910    0.226233    0.310296    11.00000   -1.20000
AFIX   0
C7S   1    0.420984    0.112479    0.413250    11.00000    0.05449    0.04111 =
         0.04594   -0.00224    0.02261    0.01182
AFIX 137
H7SA  2    0.411381    0.165168    0.437344    11.00000   -1.50000
H7SB  2    0.437361    0.071557    0.451786    11.00000   -1.50000
H7SC  2    0.358559    0.075464    0.369718    11.00000   -1.50000
AFIX  66
PART  -1
C8S   1   -0.113715   -0.056851    0.058683    10.50000    0.01481
AFIX  43
H8SA  2   -0.160677   -0.081029    0.083815    10.50000   -1.20000
AFIX  65
C9S   1   -0.126860    0.007332    0.007441    10.50000    0.04146    0.04379 =
         0.04447   -0.02092    0.02040    0.01243
AFIX  43
H9SA  2   -0.182806    0.027021   -0.002448    10.50000   -1.20000
AFIX  65
C10S  1   -0.058148    0.042709   -0.029331    10.50000    0.03772    0.05128 =
         0.04330   -0.00493   -0.00796    0.00518
AFIX  43
H10C  2   -0.067133    0.086575   -0.064352    10.50000   -1.20000
AFIX  65
C11S  1    0.023709    0.013902   -0.014862    10.50000    0.04348    0.04566 =
         0.05289   -0.03957    0.01532   -0.00515
AFIX  43
H11C  2    0.070671    0.038080   -0.039995    10.50000   -1.20000
AFIX  65
C12S  1    0.036856   -0.050282    0.036379    10.50000    0.07299    0.04879 =
         0.05273   -0.02297    0.00634    0.03605
AFIX  43
H12W  2    0.092802   -0.069970    0.046267    10.50000   -1.20000
AFIX  65
C13S  1   -0.031856   -0.085658    0.073152    10.50000    0.08544    0.02725 =
         0.03591   -0.00318    0.01261   -0.00911
AFIX  43
H13S  2   -0.022871   -0.129525    0.108173    10.50000   -1.20000
PART   0

AFIX   0
HKLF    4

REM  22maram in P -1
REM R1 =  0.0749 for    8237 Fo > 4sig(Fo)  and  0.1288 for all   13414 data
REM    928 parameters refined using     18 restraints

END

WGHT      0.1022      6.7878

REM Highest difference peak  1.557,  deepest hole -0.759,  1-sigma level  0.102
Q1    1  -0.1020 -0.0419  0.0437  11.00000  0.05    1.56
Q2    1   0.7428  0.4073  0.1165  11.00000  0.05    1.40
Q3    1   0.6821  0.3698  0.0483  11.00000  0.05    0.73
Q4    1   0.5818  0.3189  0.0496  11.00000  0.05    0.71
Q5    1   0.1992  0.1125  0.2111  11.00000  0.05    0.69
Q6    1   0.2935  0.2006  0.3127  11.00000  0.05    0.61
Q7    1   0.4776  0.4346  0.1541  11.00000  0.05    0.58
Q8    1   0.2221  0.2106  0.1380  11.00000  0.05    0.56
Q9    1   0.6718  0.4710  0.1112  11.00000  0.05    0.55
Q10   1   0.8191  0.4317  0.1125  11.00000  0.05    0.54
Q11   1   0.3283  0.3201  0.3874  11.00000  0.05    0.48
Q12   1   0.2254  0.3563  0.3382  11.00000  0.05    0.47
Q13   1   0.1458  0.1097  0.2189  11.00000  0.05    0.47
Q14   1  -0.0724  0.3756  0.3100  11.00000  0.05    0.44
Q15   1  -0.0818  0.1779  0.1487  11.00000  0.05    0.44
;
_shelx_res_checksum              91235
_shelx_hkl_file
;
  -1   0   0    0.50    0.37
  -1   0   0    0.46    0.39
  -2   0   0  157.01    3.96
  -2   0   0  153.81    4.40
  -3   0   0  156.49    4.33
  -3   0   0  142.81    4.75
  -4   0   0  260.52    7.68
  -5   0   0  136.63    5.27
  -6   0   0  251.64    8.18
  -7   0   0   69.09    4.17
  -7   0   0   78.54    4.51
  -8   0   0   56.59    4.23
  -8   0   0   58.47    4.16
  -9   0   0   23.56    3.18
  -9   0   0   28.13    3.51
 -10   0   0   25.99    3.63
 -10   0   0   31.40    3.90
 -11   0   0    9.51    2.80
 -12   0   0   20.75    3.92
 -13   0   0    0.44    2.23
 -14   0   0    4.96    2.87
 -15   0   0   -2.04    2.18
 -16   0   0   33.02    5.60
 -17   0   0   14.33    4.45
 -17   1   0   15.46    4.61
 -16   1   0    0.80    2.95
 -15   1   0    4.68    2.73
 -14   1   0    5.99    2.80
 -13   1   0   33.91    4.92
 -12   1   0   93.42    6.46
 -11   1   0  108.91    6.57
 -11   1   0  113.89    6.91
 -10   1   0   14.64    2.99
 -10   1   0   15.69    3.06
  -9   1   0   38.26    3.86
  -8   1   0  207.33    8.16
  -7   1   0   27.88    2.96
  -6   1   0  143.11    5.80
  -5   1   0  133.35    5.29
  -4   1   0  225.56    7.07
  -3   1   0  708.03   17.05
  -2   1   0  709.89   16.63
  -1   1   0 2521.60   57.09
   1   1   0    0.61    0.43
  -1  -1   0    1.50    0.54
  -2  -1   0  189.71    5.13
   2   1   0  189.09    4.94
  -3  -1   0  246.24    6.83
  -3  -1   0  252.33    6.84
  -3  -1   0  244.44    6.05
  -4  -1   0   79.31    3.49
  -4  -1   0   79.87    3.59
  -4  -1   0   75.50    3.02
  -5  -1   0  246.15    7.87
  -5  -1   0  263.97    7.02
  -5  -1   0  259.28    7.76
  -6  -1   0   12.68    1.92
  -6  -1   0    9.04    1.90
  -7  -1   0   75.67    4.21
  -7  -1   0   78.03    4.55
  -8  -1   0   34.64    3.57
  -8  -1   0   33.68    3.18
  -9  -1   0    5.13    2.17
  -9  -1   0    5.49    2.08
 -10  -1   0   12.50    2.79
 -11  -1   0    1.82    1.92
 -12  -1   0    3.44    2.39
 -13  -1   0    6.15    2.77
 -14  -1   0   10.90    3.33
 -15  -1   0    3.18    2.95
 -16  -1   0    1.88    2.62
 -17   2   0   -1.06    3.29
 -16   2   0   -1.82    2.73
 -15   2   0    6.97    3.19
 -14   2   0   28.60    4.67
 -13   2   0   13.20    3.40
 -12   2   0    3.60    2.27
 -12   2   0    2.79    2.78
 -11   2   0   53.98    5.06
 -10   2   0   85.54    5.70
  -9   2   0    4.59    2.28
  -8   2   0   45.46    3.98
  -7   2   0    5.26    2.01
  -6   2   0   12.62    2.22
  -5   2   0    0.25    1.47
  -4   2   0  174.60    6.23
  -3   2   0   45.17    2.92
  -2   2   0   12.38    1.39
   1  -2   0   89.40    2.96
   1  -2   0   90.72    2.58
  -1   2   0   92.69    3.15
   0  -2   0    0.50    0.50
   0  -2   0   -1.14    0.67
   0   2   0   -0.43    0.27
   1   2   0   29.73    1.52
  -1  -2   0   31.65    1.66
  -2  -2   0   20.36    1.60
   2   2   0   17.98    1.42
   3   2   0    0.96    1.10
  -3  -2   0    1.86    1.08
  -4  -2   0  184.24    6.07
  -5  -2   0    1.92    1.19
  -5  -2   0    1.30    1.14
  -5  -2   0    1.01    1.07
  -6  -2   0  252.61    7.11
  -6  -2   0  249.68    8.52
  -6  -2   0  255.71    7.90
  -7  -2   0   13.26    2.43
  -7  -2   0   15.07    2.16
  -8  -2   0   59.98    3.89
  -8  -2   0   49.07    4.18
  -9  -2   0    1.01    1.69
 -10  -2   0   35.77    4.28
 -11  -2   0   -0.92    1.62
 -12  -2   0   29.91    4.45
 -13  -2   0    6.93    2.68
 -14  -2   0    9.36    3.40
 -15  -2   0   -0.16    2.54
 -16  -2   0    8.30    4.04
 -17   3   0    0.53    2.91
 -16   3   0    4.99    3.38
 -15   3   0    2.42    2.80
 -14   3   0   15.20    3.87
 -13   3   0    0.43    2.82
 -13   3   0    2.71    2.14
 -12   3   0   -1.68    2.66
 -11   3   0   13.19    3.38
 -10   3   0   12.05    3.08
  -9   3   0    1.77    2.08
  -8   3   0   44.10    3.92
  -7   3   0  369.46   11.83
  -6   3   0   93.90    4.95
  -5   3   0  165.25    6.44
  -4   3   0   42.95    3.36
  -3   3   0  571.95   14.70
   2  -3   0   57.10    2.35
  -2   3   0   59.62    3.18
   2  -3   0   56.27    2.68
   1  -3   0    8.97    1.30
  -1   3   0   11.16    1.45
   1  -3   0    8.38    0.98
   0  -3   0   19.03    1.79
   0  -3   0   18.75    1.43
   1   3   0  117.37    3.84
  -1  -3   0  125.21    3.78
  -1  -3   0  121.19    4.78
   2   3   0  103.20    3.40
  -2  -3   0  107.05    3.82
  -3  -3   0   80.11    3.51
   3   3   0   71.79    2.91
   4   3   0   13.36    1.53
  -4  -3   0   12.02    1.82
  -5  -3   0  107.85    4.86
  -6  -3   0   84.23    3.91
  -6  -3   0   84.68    3.62
  -6  -3   0   88.74    4.67
  -7  -3   0   46.87    3.27
  -7  -3   0   48.88    3.93
  -8  -3   0   20.29    3.10
  -9  -3   0   66.69    4.98
 -10  -3   0   -1.32    1.53
 -11  -3   0   60.05    5.64
 -12  -3   0   10.58    3.14
 -13  -3   0   27.93    4.68
 -14  -3   0   18.68    4.32
 -15  -3   0   -1.79    2.40
 -16  -3   0   -0.62    2.91
 -17   4   0   10.07    4.09
 -16   4   0    0.69    2.49
 -15   4   0   11.07    3.60
 -14   4   0   13.60    4.12
 -13   4   0   37.14    5.07
 -12   4   0  147.11    8.57
 -11   4   0    0.09    2.82
 -10   4   0   35.47    4.28
  -9   4   0    0.95    2.02
  -8   4   0  136.30    6.80
  -7   4   0  101.95    5.64
  -6   4   0  387.54   12.06
  -5   4   0    0.89    1.61
  -4   4   0   49.55    3.71
   3  -4   0    3.18    1.18
   3  -4   0    1.90    1.11
  -3   4   0    4.87    1.79
  -2   4   0  338.92    9.62
   2  -4   0  332.36    8.17
   2  -4   0  343.68    9.34
   1  -4   0  228.91    6.99
   1  -4   0  233.56    5.93
  -1   4   0  227.22    6.84
   0  -4   0  244.96    6.19
   0  -4   0  230.54    7.43
  -1  -4   0  154.89    4.75
   1   4   0  156.35    4.83
  -1  -4   0  162.01    6.08
   2   4   0   68.17    2.89
  -2  -4   0   70.40    3.13
   3   4   0   43.04    2.26
  -3  -4   0   41.47    2.65
   4   4   0   41.54    2.43
  -4  -4   0   44.20    3.00
   5   4   0    6.02    1.40
  -5  -4   0    8.03    1.78
  -6  -4   0  167.55    5.21
  -6  -4   0  171.75    6.88
  -6  -4   0  167.88    5.73
  -7  -4   0    2.81    1.69
  -8  -4   0  200.59    8.49
  -9  -4   0    6.59    2.34
 -10  -4   0  122.98    7.16
 -11  -4   0    0.72    1.86
 -12  -4   0    1.40    2.21
 -13  -4   0    3.62    2.68
 -14  -4   0   16.77    4.38
 -15  -4   0   -0.14    2.89
 -17   5   0   -0.56    2.29
 -16   5   0   35.92    5.66
 -15   5   0   16.57    4.51
 -14   5   0   -1.67    3.25
 -13   5   0   11.12    4.01
 -12   5   0    1.85    3.05
 -11   5   0   26.54    4.47
 -10   5   0   30.00    4.26
  -9   5   0  106.61    6.63
  -8   5   0  133.81    7.06
  -7   5   0  245.31    9.55
  -6   5   0   42.94    3.81
  -5   5   0  150.19    6.53
  -4   5   0   37.61    3.29
   3  -5   0   74.38    3.22
  -3   5   0   82.98    4.25
   3  -5   0   80.15    3.87
  -2   5   0  238.10    7.75
   2  -5   0  247.94    7.77
   2  -5   0  260.46    6.72
   1  -5   0  177.30    5.22
   1  -5   0  188.58    6.53
  -1   5   0  184.10    6.14
   0   5   0    2.06    1.37
   0  -5   0    0.46    0.97
   0  -5   0    2.81    1.38
  -1  -5   0   90.98    3.56
  -1  -5   0   94.22    4.88
   1   5   0   95.17    3.77
  -2  -5   0   90.74    5.06
   2   5   0   91.21    3.53
  -2  -5   0   94.19    3.82
  -3  -5   0    0.37    1.04
   3   5   0    0.29    1.08
  -4  -5   0   17.75    2.17
   4   5   0   23.02    1.92
  -5  -5   0   99.21    4.81
   5   5   0   90.98    3.71
  -6  -5   0  138.77    6.21
  -7  -5   0    3.49    1.82
  -8  -5   0    5.47    2.08
  -9  -5   0   26.39    3.78
 -10  -5   0    3.39    2.24
 -11  -5   0   13.01    3.25
 -12  -5   0    1.80    2.41
 -13  -5   0   45.03    5.85
 -14  -5   0    2.29    2.97
 -15  -5   0   16.18    4.98
 -18   6   0    0.72    2.12
 -17   6   0   -2.57    1.80
 -16   6   0    8.59    4.44
 -15   6   0    9.49    4.08
 -14   6   0   -3.92    3.04
 -13   6   0    1.96    3.09
 -12   6   0    1.91    3.10
 -11   6   0   82.62    6.73
 -10   6   0   10.10    3.32
  -9   6   0   14.82    3.44
  -8   6   0    1.46    1.99
  -7   6   0  128.96    6.75
  -6   6   0   61.13    4.73
  -5   6   0   12.13    2.55
   4  -6   0   62.48    3.70
  -4   6   0   67.99    4.40
   4  -6   0   72.47    3.39
   3  -6   0   33.45    2.75
   3  -6   0   25.84    2.12
  -3   6   0   28.54    2.93
   2  -6   0  510.90   14.14
  -2   6   0  523.01   14.09
   2  -6   0  527.54   12.39
  -1   6   0   54.78    3.28
   1  -6   0   63.32    2.90
   1  -6   0   58.77    3.81
   0  -6   0   51.72    2.74
   0   6   0   51.89    3.16
   0  -6   0   58.01    3.74
   1   6   0   56.50    3.18
  -1  -6   0   59.89    3.03
  -1  -6   0   52.86    4.01
   2   6   0  111.34    4.24
  -2  -6   0  112.37    5.84
  -2  -6   0  113.04    4.54
  -3  -6   0    3.62    1.34
   3   6   0    3.55    1.32
  -3  -6   0    1.43    1.76
  -4  -6   0   71.41    3.91
   4   6   0   71.39    3.31
  -5  -6   0   46.41    3.43
  -6  -6   0   79.17    4.66
  -7  -6   0   21.95    3.10
  -8  -6   0  116.68    6.40
  -9  -6   0    5.45    2.14
 -10  -6   0    3.90    2.21
 -11  -6   0    1.92    1.95
 -12  -6   0   11.10    3.16
 -13  -6   0    5.27    3.20
 -14  -6   0   36.08    5.77
 -18   7   0   -0.56    2.02
 -17   7   0    4.34    4.37
 -16   7   0    2.33    3.92
 -15   7   0    5.54    4.11
 -14   7   0   31.35    5.56
 -13   7   0   -1.10    2.97
 -12   7   0    5.16    3.56
 -11   7   0    4.48    3.42
 -10   7   0   -0.46    2.82
  -9   7   0   95.03    6.74
  -8   7   0    3.44    2.63
  -7   7   0    3.36    2.33
  -6   7   0   33.49    3.63
  -5   7   0    0.87    1.97
   4  -7   0   47.52    3.44
   4  -7   0   48.85    2.93
  -4   7   0   43.95    3.86
   3  -7   0   53.53    3.61
   3  -7   0   51.11    2.94
  -3   7   0   52.76    3.95
  -2   7   0  152.14    6.26
   2  -7   0  157.20    6.49
   2  -7   0  164.99    5.36
  -1   7   0    2.95    1.29
   1  -7   0    1.30    1.42
   1  -7   0    5.21    1.34
   0  -7   0    2.35    1.22
   0   7   0    3.40    1.56
   0  -7   0    5.04    1.80
  -1  -7   0  109.55    5.79
  -1  -7   0   98.17    4.13
   1   7   0  101.68    4.44
  -2  -7   0    3.29    1.73
  -2  -7   0    3.59    1.39
   2   7   0    4.64    1.56
  -3  -7   0  398.10   13.70
   3   7   0  404.00   10.56
  -3  -7   0  384.58   11.03
  -4  -7   0   18.41    2.36
  -4  -7   0   14.37    3.04
  -5  -7   0  137.11    6.06
  -7  -7   0   61.53    4.41
  -8  -7   0    2.94    1.85
  -9  -7   0    3.63    2.01
 -10  -7   0   18.55    3.57
 -11  -7   0   13.37    3.27
 -12  -7   0   -1.01    2.22
 -13  -7   0   17.54    4.51
 -18   8   0    0.58    2.11
 -17   8   0   -6.20    3.75
 -16   8   0   -1.95    3.80
 -15   8   0   35.35    6.18
 -14   8   0    4.03    3.68
 -13   8   0   -1.37    2.87
 -12   8   0    9.62    3.87
 -11   8   0   -0.41    3.14
 -10   8   0    5.38    3.29
  -9   8   0   -4.93    1.87
  -8   8   0   20.30    3.68
  -7   8   0    6.90    2.84
  -6   8   0   23.05    3.57
  -5   8   0   22.02    3.37
   5  -8   0   18.22    2.66
   5  -8   0   19.72    2.26
   4  -8   0    6.21    1.82
   4  -8   0    5.51    1.51
  -4   8   0    5.57    2.33
   3  -8   0  223.14    8.45
  -3   8   0  232.39    8.48
   3  -8   0  233.03    7.10
   2  -8   0   64.92    3.32
   2  -8   0   61.65    4.21
  -2   8   0   62.06    4.26
   1  -8   0   43.53    3.91
   1  -8   0   54.54    3.11
   0   8   0  115.22    5.16
   0  -8   0  112.38    4.58
   0  -8   0  106.41    5.98
  -1  -8   0   43.65    4.29
  -1  -8   0   38.27    2.89
   1   8   0   40.77    3.13
  -2  -8   0  377.64   13.48
   2   8   0  382.10   10.40
  -2  -8   0  343.97   10.29
  -3  -8   0    8.78    1.93
  -3  -8   0   12.10    2.88
  -4  -8   0   34.26    4.53
  -4  -8   0   38.76    3.32
  -5  -8   0    2.84    1.64
  -5  -8   0    3.60    2.26
  -6  -8   0    5.23    2.66
  -6  -8   0    2.51    1.57
  -7  -8   0   42.63    4.05
  -8  -8   0    3.20    1.86
  -9  -8   0    5.18    2.18
 -10  -8   0   52.51    5.22
 -11  -8   0    2.40    2.23
 -18   9   0   -5.18    4.38
 -16   9   0   10.05    4.90
 -15   9   0   -0.82    3.52
 -14   9   0   48.55    6.62
 -13   9   0   -4.38    2.77
 -12   9   0   21.70    4.81
 -11   9   0   63.00    6.33
 -10   9   0   -2.14    2.92
  -9   9   0   21.07    4.31
  -8   9   0    8.42    3.40
  -7   9   0  251.42   10.48
  -6   9   0    3.86    2.87
  -5   9   0    3.43    2.45
   5  -9   0    0.73    1.37
   5  -9   0    0.06    1.45
   4  -9   0    5.24    1.85
  -4   9   0    6.71    2.64
   4  -9   0    6.06    1.75
  -3   9   0    3.73    2.16
   3  -9   0    2.24    1.60
   3  -9   0   -1.95    1.09
  -2   9   0   95.53    5.45
   2  -9   0  108.93    5.85
   2  -9   0  104.22    4.57
   1  -9   0  109.51    6.08
   1  -9   0   91.75    4.36
   0   9   0   44.22    3.73
   0  -9   0   49.55    3.31
   0  -9   0   45.51    4.45
   1   9   0  484.87   13.31
  -1  -9   0  466.78   15.86
  -1  -9   0  480.93   12.84
  -2  -9   0   18.71    2.45
  -2  -9   0   19.52    3.59
  -3  -9   0   27.22    4.31
  -3  -9   0   30.43    3.10
  -4  -9   0    1.23    1.48
  -4  -9   0   -2.42    1.74
  -5  -9   0   50.47    5.82
  -5  -9   0   41.81    3.81
  -6  -9   0   -3.02    1.31
  -6  -9   0    1.64    2.18
  -7  -9   0   10.38    2.48
  -7  -9   0   10.83    3.62
  -8  -9   0    3.55    2.70
  -8  -9   0   -0.99    1.60
  -9  -9   0   14.52    4.30
 -10  -9   0    5.63    3.87
 -11  -9   0   -2.40    3.08
 -18  10   0   -2.34    5.04
 -17  10   0   14.12    5.57
 -16  10   0   -2.23    3.61
 -15  10   0   22.71    5.79
 -14  10   0    0.50    3.71
 -13  10   0   -6.49    3.02
 -11  10   0   82.95    7.33
 -10  10   0    2.94    3.45
  -9  10   0  218.69   10.82
  -8  10   0   10.59    3.94
  -7  10   0   24.61    4.46
  -6  10   0    1.21    2.91
   6 -10   0    0.98    1.41
   5 -10   0   21.52    3.32
  -5  10   0   23.37    3.83
   5 -10   0   23.85    2.69
  -4  10   0    4.29    2.81
   4 -10   0    4.41    1.86
   4 -10   0    6.07    1.89
   3 -10   0   41.29    3.14
   3 -10   0   37.26    3.89
  -3  10   0   47.41    4.27
   2 -10   0   88.92    5.71
  -2  10   0   92.31    5.62
   2 -10   0  101.20    4.70
   1 -10   0   27.89    2.73
   1 -10   0   34.49    4.04
   0  10   0  101.68    5.43
   0 -10   0   97.10    6.37
   0 -10   0  110.37    5.01
  -1 -10   0   -0.65    1.42
  -1 -10   0    0.04    1.43
  -2 -10   0   63.20    5.94
  -2 -10   0   63.59    4.22
  -3 -10   0   50.28    5.66
  -3 -10   0   32.97    3.32
  -4 -10   0   -0.27    1.68
  -4 -10   0    2.85    2.34
  -5 -10   0    2.45    1.75
  -5 -10   0    1.62    2.36
  -6 -10   0    4.10    2.64
  -7 -10   0   69.42    7.53
  -8 -10   0   11.11    3.90
  -9 -10   0    2.52    2.92
 -10 -10   0   -0.65    1.89
 -18  11   0   -2.57    4.65
 -17  11   0   -2.52    4.12
 -16  11   0    5.22    4.50
 -15  11   0   -4.61    3.27
 -14  11   0   19.32    5.25
 -13  11   0    5.61    4.09
 -12  11   0   93.48    7.77
 -11  11   0    2.65    3.89
 -10  11   0   49.15    6.16
  -9  11   0   24.50    4.77
  -8  11   0   -0.04    2.87
  -7  11   0   20.29    4.44
  -6  11   0   10.73    3.83
   6 -11   0   14.19    2.97
   5 -11   0   11.64    2.39
  -5  11   0    6.07    3.28
   5 -11   0    8.95    2.65
   4 -11   0   16.87    3.13
   4 -11   0   24.01    2.86
  -4  11   0   25.36    3.90
  -3  11   0  131.44    7.05
   3 -11   0  120.15    6.76
   3 -11   0  122.18    5.46
   2 -11   0   14.91    3.06
  -2  11   0   16.43    3.29
   2 -11   0   15.27    2.46
   1 -11   0   31.11    4.16
  -1  11   0   32.92    3.79
   1 -11   0   32.99    3.09
   0  11   0   27.50    3.36
   0 -11   0   24.58    2.88
   0 -11   0   23.33    3.96
  -1 -11   0   17.73    2.72
  -1 -11   0   13.52    3.34
  -2 -11   0    5.08    2.56
  -3 -11   0    3.19    2.41
  -4 -11   0   23.14    4.66
  -5 -11   0   20.45    4.77
  -6 -11   0   22.45    4.89
  -7 -11   0   22.98    5.19
  -8 -11   0    1.20    3.08
  -9 -11   0    0.32    1.30
 -10 -11   0    3.99    2.51
 -17  12   0    2.81    4.76
 -16  12   0   -1.67    4.30
 -15  12   0    6.57    4.57
 -14  12   0    6.01    4.34
 -13  12   0    3.75    4.04
 -12  12   0   24.94    5.49
 -11  12   0   58.05    6.70
 -10  12   0    3.40    3.52
  -9  12   0   24.58    4.97
  -8  12   0    9.83    4.07
  -7  12   0   -0.74    3.15
   7 -12   0    2.09    2.06
   6 -12   0   46.91    4.82
  -6  12   0   41.98    5.24
   6 -12   0   39.65    3.78
   5 -12   0  296.54   11.83
  -5  12   0  308.91   12.02
   5 -12   0  313.73   10.12
   4 -12   0   20.96    2.91
  -4  12   0   24.25    4.32
   4 -12   0    9.28    2.75
   3 -12   0   17.13    2.62
  -3  12   0   20.64    3.81
   3 -12   0    7.59    2.49
   2 -12   0  100.97    5.26
  -2  12   0   88.30    5.55
   2 -12   0   99.86    6.55
   1 -12   0   16.48    3.46
  -1  12   0    9.85    3.06
   0 -12   0    2.15    1.76
  -1 -12   0    3.21    2.23
  -2 -12   0  134.18    8.77
  -3 -12   0    7.11    2.96
  -4 -12   0   35.06    5.72
  -5 -12   0    8.85    3.77
  -6 -12   0    2.14    3.15
  -7 -12   0    5.90    3.66
  -8 -12   0    2.79    1.51
  -9 -12   0   -0.26    2.15
 -17  13   0   10.82    5.86
 -16  13   0   10.10    5.21
 -15  13   0   -4.76    3.86
 -14  13   0   19.38    5.52
 -13  13   0   19.27    5.37
 -12  13   0   26.27    5.69
 -11  13   0    1.30    3.38
 -10  13   0   -2.93    3.25
  -9  13   0   80.67    7.29
  -8  13   0    8.16    3.76
   7 -13   0   13.54    3.38
  -7  13   0   14.53    4.19
  -6  13   0  197.59    9.75
   6 -13   0  176.09    7.53
   6 -13   0  188.56    9.15
   5 -13   0   65.16    4.56
   5 -13   0   55.82    5.40
  -5  13   0   59.68    5.84
  -4  13   0   22.32    4.16
   4 -13   0   13.83    3.27
   3 -13   0   66.23    5.89
  -3  13   0   50.59    5.09
   2 -13   0    6.02    2.62
   1 -13   0    7.95    2.84
   0 -13   0   65.48    6.51
  -1 -13   0   19.19    4.12
  -2 -13   0   11.94    3.69
  -3 -13   0   -0.75    2.43
  -4 -13   0    3.39    2.90
  -5 -13   0    9.38    4.03
  -6 -13   0    4.26    3.59
  -7 -13   0   -0.20    1.35
 -16  14   0    1.29    4.87
 -15  14   0   13.36    5.48
 -14  14   0   -3.35    3.89
 -13  14   0   13.01    5.07
 -12  14   0    2.60    4.09
 -11  14   0    6.92    4.14
 -10  14   0   -2.09    3.26
  -9  14   0   70.07    7.01
  -8  14   0   -0.24    3.22
  -7  14   0    6.81    3.75
   7 -14   0   10.81    3.27
   6 -14   0   11.43    3.31
  -6  14   0    7.08    3.74
  -5  14   0    7.61    3.49
   5 -14   0    2.71    2.22
   4 -14   0    8.20    2.93
  -4  14   0    3.11    3.13
  -3  14   0   56.03    5.22
   3 -14   0   51.46    5.71
   2 -14   0    1.37    2.20
   1 -14   0   66.98    6.61
   0 -14   0   12.47    3.57
  -1 -14   0   46.64    6.41
  -2 -14   0    9.63    3.78
  -3 -14   0    0.36    2.62
  -5 -14   0    6.04    3.41
  -6 -14   0   -2.57    1.40
 -15  15   0    2.84    4.71
 -14  15   0   -0.58    3.18
 -13  15   0    4.12    4.47
 -12  15   0    3.46    4.33
 -11  15   0    7.61    4.19
 -10  15   0   16.33    5.06
  -9  15   0    0.89    3.44
  -8  15   0   12.51    4.39
  -7  15   0   -0.47    3.23
   7 -15   0    2.42    2.50
   6 -15   0    4.53    2.84
  -6  15   0    3.74    3.43
  -5  15   0    1.66    3.06
   5 -15   0    2.67    2.47
  -4  15   0   34.31    4.78
   4 -15   0   32.08    5.03
   3 -15   0   -0.72    2.30
   2 -15   0   24.61    4.71
   1 -15   0    4.02    2.81
   0 -15   0   16.55    4.27
  -1 -15   0   20.16    4.61
  -2 -15   0    1.55    2.79
  -3 -15   0   -0.85    2.85
  -4 -15   0    1.78    4.06
  -5 -15   0   -1.63    1.58
 -14  16   0   -2.39    2.34
 -13  16   0   -2.50    3.78
 -12  16   0    1.31    4.47
 -11  16   0   29.83    6.00
 -10  16   0    0.23    3.43
  -9  16   0    2.30    3.67
  -8  16   0   -1.69    3.39
   7 -16   0    0.21    2.61
  -7  16   0    2.63    3.70
  -6  16   0   -6.15    2.61
   6 -16   0   -1.45    2.25
  -5  16   0    3.46    3.48
   5 -16   0    0.84    2.60
   4 -16   0    4.08    3.04
   3 -16   0   27.66    5.12
   2 -16   0   -0.15    2.40
   1 -16   0   31.72    5.41
   0 -16   0   49.43    6.79
  -1 -16   0    6.97    3.14
  -2 -16   0    4.04    3.03
  -3 -16   0   -0.22    1.20
  -4 -16   0    1.05    2.34
 -13  17   0   -2.55    2.35
 -12  17   0    0.89    3.76
 -11  17   0   -1.40    3.90
 -10  17   0    2.51    4.48
  -9  17   0   -2.47    3.47
  -8  17   0    6.68    4.05
   8 -17   0    7.36    3.73
  -7  17   0    0.41    3.46
   7 -17   0    6.24    3.46
   6 -17   0   20.90    4.72
   5 -17   0    0.90    2.55
   4 -17   0    6.24    3.56
   3 -17   0   24.18    5.22
   2 -17   0    8.02    3.58
   1 -17   0    9.55    3.64
   0 -17   0   -1.44    2.63
  -1 -17   0    5.44    1.99
  -2 -17   0    0.95    1.63
 -12  18   0    1.56    4.87
 -11  18   0    1.23    4.16
 -10  18   0   -1.37    3.91
  -9  18   0   13.90    4.92
  -8  18   0   -8.10    3.04
   8 -18   0    0.10    2.94
   7 -18   0   12.47    4.27
   6 -18   0    0.64    2.95
   5 -18   0   -0.42    2.66
   4 -18   0   -1.66    2.56
   3 -18   0    1.82    3.31
   2 -18   0   24.41    5.71
   1 -18   0   13.11    4.03
   0 -18   0    7.03    4.14
 -11  19   0   10.03    5.95
 -10  19   0    7.53    4.70
  -9  19   0    3.80    4.78
   8 -19   0    4.97    4.02
   7 -19   0   -0.85    2.98
   6 -19   0    8.72    4.22
   5 -19   0    1.29    3.21
   4 -19   0   24.05    5.04
   3 -19   0   -1.81    3.21
   2 -19   0   39.97    7.54
   8 -20   0   11.38    5.23
   7 -20   0   -0.01    4.53
   6 -20   0   -3.68    4.15
   5 -20   0    4.73    5.11
   5 -20   1    3.12    4.66
   6 -20   1   10.68    5.04
   1 -19   1    3.77    4.57
   2 -19   1    2.72    3.79
   3 -19   1    4.61    3.05
   4 -19   1    4.80    3.74
   5 -19   1   18.12    5.35
   6 -19   1    2.14    3.55
   7 -19   1   38.96    6.49
  -9  19  -1   15.10    5.87
 -10  19  -1   16.61    5.65
 -11  19  -1   -6.06    4.59
  -1 -18   1   21.98    6.12
   0 -18   1   -2.79    2.80
   1 -18   1   17.46    4.99
   2 -18   1    3.02    3.31
   3 -18   1    4.04    3.24
   4 -18   1    1.51    3.05
   5 -18   1   17.56    4.62
   6 -18   1   22.42    5.10
   7 -18   1    3.26    3.72
  -8  18  -1    3.43    3.95
  -9  18  -1   -3.55    3.72
 -10  18  -1    3.90    4.35
 -11  18  -1   -4.73    3.74
 -12  18  -1   19.43    6.28
  -3 -17   1    3.42    4.54
  -2 -17   1    4.97    3.21
  -1 -17   1    1.88    2.71
   0 -17   1   -2.71    2.43
   1 -17   1   11.34    4.06
   2 -17   1    3.16    3.04
   3 -17   1   17.81    4.55
   4 -17   1   -0.17    2.48
   5 -17   1   14.20    4.18
   6 -17   1   -1.57    2.55
  -7  17  -1   -0.64    3.43
   7 -17   1    5.39    3.20
  -8  17  -1    7.27    4.25
  -9  17  -1    6.17    4.10
 -10  17  -1   -0.58    3.78
 -11  17  -1    4.29    4.50
 -12  17  -1   -4.30    2.43
 -13  17  -1   -4.86    2.30
  -4 -16   1   -2.10    1.87
  -3 -16   1    1.86    1.96
  -2 -16   1   -0.96    2.76
  -1 -16   1    3.82    2.99
   0 -16   1   20.22    4.65
   1 -16   1    0.03    2.55
   2 -16   1   59.93    6.71
   3 -16   1    0.00    2.50
   4 -16   1   15.68    4.02
  -5  16  -1    0.36    3.16
   5 -16   1   -2.18    2.20
  -6  16  -1   -2.16    3.34
   6 -16   1    7.02    3.28
  -7  16  -1   20.15    4.78
   7 -16   1   20.46    4.47
  -8  16  -1   19.37    4.94
  -9  16  -1    0.70    3.82
 -10  16  -1    1.14    3.92
 -11  16  -1    1.92    4.25
 -12  16  -1   15.12    5.73
 -13  16  -1   -1.49    2.70
 -14  16  -1   -0.96    2.42
  -5 -15   1    0.35    1.59
  -4 -15   1    4.13    3.36
  -3 -15   1   -2.07    2.37
  -2 -15   1    3.26    2.69
  -1 -15   1   36.74    5.97
   0 -15   1   32.49    5.57
   1 -15   1   95.57    7.59
   2 -15   1   19.12    4.22
   3 -15   1   22.17    4.42
   4 -15   1    9.87    3.37
  -4  15  -1   14.03    3.89
   5 -15   1    4.20    2.64
  -5  15  -1    4.91    3.53
   6 -15   1    9.97    3.24
  -6  15  -1   20.14    4.68
   7 -15   1   47.82    5.60
  -7  15  -1   37.18    5.47
  -8  15  -1    1.99    3.63
  -9  15  -1    3.43    3.65
 -10  15  -1   -3.29    3.43
 -11  15  -1    9.08    4.43
 -12  15  -1   -5.98    3.27
 -13  15  -1    7.22    5.00
 -14  15  -1    1.09    2.61
 -15  15  -1    0.45    4.86
  -7 -14   1   -2.03    2.21
  -6 -14   1   -1.61    1.70
  -5 -14   1   -0.88    2.63
  -4 -14   1    6.11    3.50
  -3 -14   1    0.49    2.34
  -2 -14   1    4.50    3.11
  -1 -14   1    9.47    3.75
   0 -14   1   53.08    6.08
   1 -14   1   26.18    4.57
   2 -14   1    1.71    2.10
  -3  14  -1    5.18    3.14
   3 -14   1    2.96    2.34
   4 -14   1    7.31    2.74
  -4  14  -1    8.24    3.54
   5 -14   1   81.10    6.25
  -5  14  -1   82.24    6.53
   6 -14   1   68.88    6.12
  -6  14  -1   64.32    6.24
   6 -14   1   72.85    5.13
   7 -14   1   -1.17    1.83
  -7  14  -1    1.01    3.17
  -8  14  -1    8.38    3.74
  -9  14  -1    6.23    3.76
 -10  14  -1   43.35    6.44
 -11  14  -1   -3.13    3.61
 -12  14  -1   12.35    4.54
 -13  14  -1   -7.03    3.64
 -14  14  -1    3.88    4.38
 -15  14  -1    0.20    4.44
 -16  14  -1    4.37    5.34
  -8 -13   1    2.89    2.58
  -7 -13   1   -1.63    1.84
  -5 -13   1   14.71    4.24
  -4 -13   1   19.19    4.80
  -3 -13   1   -3.65    1.92
  -2 -13   1   13.22    3.83
  -1 -13   1    3.65    2.25
   0 -13   1    2.48    2.22
   1 -13   1   13.88    3.18
  -2  13  -1   -1.00    0.87
   2 -13   1    1.66    1.91
  -3  13  -1   -1.97    2.58
   3 -13   1   -1.32    1.67
   3 -13   1    1.42    1.93
  -4  13  -1    2.03    3.16
   4 -13   1   -1.80    1.50
   4 -13   1   -1.33    1.86
  -5  13  -1   69.07    6.14
   5 -13   1   87.25    6.12
   5 -13   1   78.18    5.13
   6 -13   1   53.44    5.30
   6 -13   1   48.10    4.33
  -6  13  -1   56.79    5.86
  -7  13  -1   40.18    5.36
   7 -13   1   39.06    4.72
  -8  13  -1    7.20    3.84
  -9  13  -1   10.40    4.06
 -10  13  -1   11.44    4.31
 -11  13  -1   30.83    5.83
 -12  13  -1    3.56    3.97
 -13  13  -1   28.16    6.12
 -14  13  -1    1.51    4.00
 -15  13  -1   17.99    5.92
 -16  13  -1    6.35    5.02
  -9 -12   1   -0.50    1.89
  -8 -12   1   -0.41    2.22
  -7 -12   1   -0.56    2.72
  -6 -12   1   -1.59    2.67
  -5 -12   1   84.61    8.21
  -4 -12   1   58.50    6.89
  -3 -12   1   21.04    4.26
  -2 -12   1   -0.43    1.83
  -1 -12   1   22.48    4.19
  -1 -12   1   27.69    3.37
   0 -12   1   -1.47    1.71
   0 -12   1    3.48    2.06
   1 -12   1   -1.06    1.67
   1 -12   1    3.93    2.26
  -1  12  -1    4.30    2.52
  -2  12  -1    0.53    1.58
   2 -12   1   11.60    2.59
   2 -12   1    8.69    2.66
   3 -12   1   20.56    2.89
   3 -12   1   24.28    3.79
  -3  12  -1   31.47    4.22
   4 -12   1  235.32   10.01
  -4  12  -1  220.91    9.98
   4 -12   1  231.83    8.52
   5 -12   1   11.54    2.88
   5 -12   1   14.38    2.81
  -5  12  -1   16.25    3.83
  -6  12  -1  177.06    9.57
   6 -12   1  173.13    8.33
   6 -12   1  174.07    7.55
  -7  12  -1   30.32    5.06
  -8  12  -1   30.27    5.07
  -9  12  -1   95.15    7.70
 -10  12  -1  125.93    8.92
 -11  12  -1    2.12    3.69
 -12  12  -1  116.59    9.20
 -13  12  -1   -1.06    3.96
 -14  12  -1    6.68    4.71
 -15  12  -1   15.59    5.42
 -16  12  -1   -4.23    3.99
 -17  12  -1   -5.55    4.33
 -10 -11   1   -1.75    1.77
  -9 -11   1   -2.17    2.14
  -8 -11   1   11.25    3.76
  -7 -11   1   14.58    4.29
  -6 -11   1  101.09    8.16
  -5 -11   1   57.03    6.75
  -4 -11   1   29.68    3.41
  -4 -11   1   22.28    4.54
  -3 -11   1   15.45    3.82
  -3 -11   1   11.18    2.62
  -2 -11   1    2.88    2.23
  -2 -11   1    5.81    2.19
  -1 -11   1    8.87    2.83
  -1 -11   1   14.85    2.69
   0 -11   1    0.67    1.84
   0 -11   1   -0.98    1.42
   1 -11   1   87.83    5.89
  -1  11  -1   86.88    5.38
   1 -11   1   83.98    4.72
   2 -11   1  104.25    5.30
   2 -11   1  104.40    6.30
  -2  11  -1  109.18    6.21
   3 -11   1  108.41    5.30
  -3  11  -1  121.74    6.78
   3 -11   1  109.25    6.35
   4 -11   1  153.13    6.52
   4 -11   1  156.97    7.58
  -4  11  -1  164.14    7.96
   5 -11   1    3.84    2.06
  -5  11  -1    6.15    3.20
   5 -11   1    5.52    2.11
   6 -11   1    6.77    2.35
  -6  11  -1   11.12    3.69
   6 -11   1    7.81    2.30
  -7  11  -1   50.52    5.79
  -8  11  -1   16.30    4.54
  -9  11  -1  169.97    9.86
 -10  11  -1   95.07    7.87
 -11  11  -1   47.75    6.26
 -12  11  -1    4.67    3.91
 -13  11  -1    0.95    3.77
 -14  11  -1   -1.13    3.58
 -15  11  -1    5.48    4.45
 -16  11  -1   -5.62    3.92
 -17  11  -1   10.69    5.89
 -11 -10   1    4.44    2.26
 -10 -10   1    1.75    2.11
  -9 -10   1   33.38    5.99
  -8 -10   1   14.50    4.29
  -7 -10   1   50.24    4.73
  -7 -10   1   45.13    6.26
  -6 -10   1    8.99    2.46
  -6 -10   1   11.44    3.48
  -5 -10   1   -1.79    1.36
  -5 -10   1    1.31    2.02
  -4 -10   1    2.24    1.78
  -4 -10   1    3.24    2.54
  -3 -10   1   78.16    6.33
  -3 -10   1   75.92    4.66
  -2 -10   1   13.17    3.31
  -2 -10   1   20.05    2.86
  -1 -10   1  182.73    7.07
  -1 -10   1  174.72    8.80
   0 -10   1    1.42    1.62
   0  10  -1    1.69    1.99
   0 -10   1    0.30    1.71
   1 -10   1   11.24    2.19
  -1  10  -1   12.82    2.57
   1 -10   1   13.40    2.79
  -2  10  -1    0.04    2.16
   2 -10   1    1.92    1.63
   2 -10   1    2.38    1.63
   3 -10   1   30.09    3.58
   3 -10   1   39.04    3.20
  -3  10  -1   41.00    4.13
   4 -10   1   13.48    2.32
   4 -10   1   11.19    2.45
  -4  10  -1   16.19    3.33
   5 -10   1  106.98    5.28
   5 -10   1  110.39    5.89
  -5  10  -1  117.37    6.85
   6 -10   1   90.52    5.01
  -6  10  -1   85.29    6.44
  -7  10  -1  172.21    9.07
  -8  10  -1   37.17    5.09
  -9  10  -1   14.86    3.98
 -10  10  -1    5.76    3.71
 -11  10  -1   16.19    4.51
 -12  10  -1   -1.46    3.15
 -13  10  -1   16.31    5.02
 -14  10  -1   15.20    5.11
 -15  10  -1    2.79    4.35
 -16  10  -1    0.06    4.18
 -17  10  -1    1.30    4.54
 -18  10  -1   -0.11    4.95
 -10  -9   1   52.16    5.36
  -9  -9   1    7.29    2.48
  -8  -9   1    2.71    1.98
  -8  -9   1    1.50    2.21
  -7  -9   1    3.75    1.97
  -7  -9   1    3.71    2.69
  -6  -9   1   13.17    2.65
  -6  -9   1   14.37    3.59
  -5  -9   1    8.60    2.31
  -5  -9   1    9.06    2.88
  -4  -9   1   40.66    3.59
  -4  -9   1   42.19    5.06
  -3  -9   1   53.40    3.87
  -3  -9   1   51.00    5.24
  -2  -9   1  137.88    7.76
  -2  -9   1  155.93    6.30
   1   9  -1   26.58    2.71
  -1  -9   1   32.89    3.99
  -1  -9   1   26.37    2.77
   0  -9   1  185.76    6.78
   0   9  -1  200.42    7.20
   0  -9   1  190.20    8.43
   1  -9   1   22.59    2.43
   1  -9   1   19.91    3.04
   2  -9   1   75.56    4.03
   2  -9   1   73.45    4.73
  -2   9  -1   81.52    5.01
   3  -9   1    4.56    1.56
   3  -9   1    2.40    1.58
  -3   9  -1    4.90    2.48
   4  -9   1   11.04    2.11
   4  -9   1   16.92    2.63
  -4   9  -1   22.07    3.39
   5  -9   1   26.39    2.77
   5  -9   1   20.04    2.88
  -5   9  -1   24.22    3.62
  -6   9  -1  167.21    8.31
  -7   9  -1    0.41    2.59
  -8   9  -1    1.32    2.73
  -9   9  -1  155.79    9.15
 -10   9  -1    4.28    3.16
 -11   9  -1    9.59    4.17
 -12   9  -1    0.82    3.28
 -13   9  -1   15.20    4.65
 -14   9  -1    4.80    4.02
 -15   9  -1    4.10    4.32
 -16   9  -1    3.59    4.46
 -17   9  -1   -3.00    4.13
 -18   9  -1   -1.74    5.17
 -12  -8   1    1.23    2.42
 -11  -8   1   34.56    4.80
 -10  -8   1   11.61    2.91
  -9  -8   1    2.37    1.87
  -8  -8   1   29.05    3.69
  -7  -8   1   18.86    3.00
  -6  -8   1   41.32    3.81
  -5  -8   1    2.39    2.21
  -5  -8   1    4.01    1.83
  -4  -8   1    0.25    1.51
  -4  -8   1    1.00    1.52
  -3  -8   1   34.57    3.07
  -3  -8   1   33.39    4.28
   2   8  -1   11.01    1.84
  -2  -8   1    9.52    1.95
  -2  -8   1   13.31    2.85
   1   8  -1   97.20    4.34
  -1  -8   1   87.98    4.35
  -1  -8   1   89.27    5.49
   0  -8   1    0.73    1.49
   0  -8   1   -0.04    1.14
   0   8  -1   -0.61    1.58
   1  -8   1   68.48    4.48
   1  -8   1   73.53    3.80
  -2   8  -1  142.16    6.36
   2  -8   1  153.72    6.54
   2  -8   1  148.28    5.50
  -3   8  -1    3.84    2.07
   3  -8   1    3.13    1.59
   3  -8   1    2.59    1.46
   4  -8   1  151.87    5.81
   4  -8   1  153.52    6.48
  -4   8  -1  153.78    7.12
   5  -8   1   -0.89    1.08
  -5   8  -1    0.99    2.08
   5  -8   1    3.19    1.54
  -6   8  -1   69.66    5.19
  -7   8  -1   18.89    3.54
  -8   8  -1   12.44    3.47
  -9   8  -1   45.41    5.14
 -10   8  -1    4.60    3.34
 -11   8  -1    3.65    3.37
 -12   8  -1   -0.15    2.96
 -13   8  -1   21.47    5.12
 -14   8  -1   23.83    5.41
 -15   8  -1   16.40    5.41
 -16   8  -1   -3.12    3.42
 -17   8  -1    0.85    4.10
 -14  -7   1   -0.09    3.60
 -13  -7   1    5.07    3.11
 -12  -7   1    1.38    2.43
 -11  -7   1   -0.93    1.92
 -10  -7   1    1.78    1.99
  -9  -7   1   18.40    3.30
  -8  -7   1    0.13    1.55
  -7  -7   1    0.98    1.58
  -6  -7   1  149.91    6.74
  -5  -7   1    7.29    1.93
  -4  -7   1  148.61    7.80
  -4  -7   1  148.14    6.09
  -3  -7   1   15.45    2.22
  -3  -7   1   18.48    3.19
   3   7  -1   13.97    1.68
   2   7  -1   -0.04    1.29
  -2  -7   1    0.85    1.51
  -2  -7   1    0.83    1.17
  -1  -7   1    3.01    1.66
  -1  -7   1    1.46    1.23
   1   7  -1    0.46    1.39
   0  -7   1    0.09    1.28
   0  -7   1    0.47    1.05
   0   7  -1    0.90    1.49
   1  -7   1   11.75    2.17
   1  -7   1   13.90    1.79
   2  -7   1   95.36    4.07
   2  -7   1  102.09    4.83
  -2   7  -1   91.80    4.79
   3  -7   1   11.48    2.03
   3  -7   1   14.74    1.90
  -3   7  -1   15.22    2.52
   4  -7   1    4.30    1.50
  -4   7  -1    7.80    2.35
   4  -7   1    5.89    1.70
  -5   7  -1   38.90    3.80
  -6   7  -1   22.16    3.38
  -7   7  -1   32.98    3.97
  -8   7  -1   21.46    3.82
  -9   7  -1   88.86    6.80
 -10   7  -1    2.73    3.24
 -11   7  -1    5.85    3.67
 -12   7  -1   92.71    7.56
 -13   7  -1    2.22    3.37
 -14   7  -1    1.49    3.65
 -15   7  -1    3.61    3.87
 -16   7  -1   21.57    5.68
 -17   7  -1    3.34    4.93
 -15  -6   1   10.91    4.61
 -14  -6   1   -0.65    2.68
 -13  -6   1   21.21    4.31
 -12  -6   1    4.01    2.48
 -11  -6   1   -2.97    1.60
 -10  -6   1   10.92    2.94
  -9  -6   1    1.42    1.64
  -8  -6   1    1.52    1.63
  -7  -6   1  174.42    7.51
  -6  -6   1   20.81    2.80
  -5  -6   1  119.33    5.48
  -4  -6   1    2.77    1.39
   4   6  -1    2.90    1.18
  -3  -6   1    2.78    1.26
   3   6  -1    0.12    1.01
   2   6  -1   43.19    2.50
  -2  -6   1   40.98    3.65
  -2  -6   1   38.86    2.74
  -1  -6   1  119.11    4.45
  -1  -6   1  105.24    5.40
   1   6  -1  104.20    4.07
   0  -6   1   26.85    2.76
   0   6  -1   21.22    2.12
   0  -6   1   23.35    2.07
   1  -6   1  114.92    5.09
  -1   6  -1  115.89    4.65
   1  -6   1  108.97    4.19
   2  -6   1   14.48    1.75
   2  -6   1   13.28    2.01
  -2   6  -1    9.93    1.99
   3  -6   1  153.69    5.82
   3  -6   1  149.88    5.26
  -3   6  -1  155.39    6.41
  -4   6  -1    1.13    1.73
   4  -6   1    1.64    1.17
   4  -6   1    0.42    1.20
  -5   6  -1    7.24    2.24
  -6   6  -1   14.07    2.84
  -7   6  -1  233.22    9.56
  -8   6  -1   52.83    4.88
  -9   6  -1  128.84    7.51
 -10   6  -1    7.09    3.18
 -11   6  -1    5.74    3.46
 -12   6  -1    3.07    3.42
 -13   6  -1   19.07    4.60
 -14   6  -1   14.97    4.54
 -15   6  -1    1.60    4.04
 -16   6  -1    9.86    4.95
 -17   6  -1   -0.47    1.36
 -15  -5   1   -4.86    2.60
 -14  -5   1   29.92    5.40
 -13  -5   1    0.15    2.40
 -12  -5   1   12.23    3.57
 -11  -5   1   -1.79    1.95
 -10  -5   1   89.44    6.18
  -9  -5   1   53.15    4.85
  -8  -5   1  228.23    9.23
  -7  -5   1    2.36    1.55
  -6  -5   1   69.02    4.33
  -5  -5   1   13.34    2.10
  -4  -5   1  285.36    8.70
   3   5  -1   15.05    1.27
  -3  -5   1   12.99    1.84
  -2  -5   1  195.04    6.19
  -2  -5   1  202.75    7.59
   2   5  -1  188.75    5.41
  -1  -5   1   53.46    3.65
  -1  -5   1   58.78    2.90
   1   5  -1   54.89    2.74
   0  -5   1   26.20    2.51
   0  -5   1   21.55    1.81
   0   5  -1   20.18    1.93
  -1   5  -1   29.82    2.44
   1  -5   1   25.90    2.33
   1  -5   1   27.93    2.08
   2  -5   1   11.92    1.71
  -2   5  -1   13.03    2.11
   2  -5   1    9.73    1.49
   3  -5   1  509.47   12.31
  -3   5  -1  503.34   14.07
   3  -5   1  514.97   13.24
  -4   5  -1   25.26    2.86
  -5   5  -1   59.03    4.24
  -6   5  -1  433.63   13.59
  -7   5  -1    3.18    2.12
  -8   5  -1   86.35    5.77
  -9   5  -1    5.67    2.74
 -10   5  -1    1.69    2.64
 -11   5  -1    3.71    3.01
 -12   5  -1    5.76    3.37
 -13   5  -1   11.75    4.13
 -14   5  -1    8.41    4.09
 -15   5  -1   72.85    7.52
 -16   5  -1    3.07    2.94
 -17   5  -1    9.52    3.80
 -15  -4   1    0.57    2.86
 -14  -4   1    2.09    2.60
 -13  -4   1   22.79    4.24
 -12  -4   1    1.75    2.23
 -11  -4   1   56.56    5.51
 -10  -4   1    0.56    1.73
  -9  -4   1  139.27    7.22
  -8  -4   1    0.12    1.43
  -7  -4   1   16.95    2.67
  -6  -4   1    9.15    2.06
  -6  -4   1   10.17    1.35
  -5  -4   1    1.55    0.85
  -5  -4   1    0.52    1.06
  -5  -4   1    1.46    0.81
  -4  -4   1    4.26    1.33
   3   4  -1  188.19    4.88
  -3  -4   1  190.96    6.14
  -2  -4   1  140.45    4.88
   2   4  -1  153.91    4.21
  -1  -4   1  409.75   11.65
  -1  -4   1  431.69   10.31
   1   4  -1  428.68   10.29
   0  -4   1  472.50   11.05
   0   4  -1  477.18   11.77
   0  -4   1  471.42   12.44
   1  -4   1  321.25    8.85
   1  -4   1  324.96    8.07
  -1   4  -1  323.00    8.95
   2  -4   1    0.20    0.98
  -2   4  -1    1.07    1.55
   2  -4   1    0.72    1.01
  -3   4  -1  158.45    6.09
   3  -4   1  153.25    4.96
  -4   4  -1   91.02    4.82
  -5   4  -1    6.98    2.15
  -6   4  -1   61.10    4.27
  -7   4  -1  325.81   11.43
  -8   4  -1  176.61    8.18
  -9   4  -1    2.02    2.34
 -10   4  -1    0.70    2.44
 -11   4  -1   30.15    4.58
 -12   4  -1   25.71    4.65
 -13   4  -1   62.40    6.42
 -14   4  -1   24.09    4.98
 -15   4  -1   42.31    5.90
 -16   4  -1   20.06    4.64
 -17   4  -1    1.89    2.85
 -16  -3   1   -0.37    2.80
 -15  -3   1    2.77    2.97
 -14  -3   1   11.21    3.75
 -13  -3   1   12.27    3.42
 -12  -3   1   48.50    5.50
 -11  -3   1    1.59    1.91
 -10  -3   1   65.56    5.37
  -9  -3   1   37.58    4.03
  -8  -3   1    2.65    1.56
  -7  -3   1   82.51    3.85
  -7  -3   1   90.06    4.94
  -6  -3   1    2.55    1.16
  -6  -3   1    1.21    1.36
  -5  -3   1   63.26    2.72
  -5  -3   1   56.73    3.55
  -4  -3   1  109.88    3.06
  -4  -3   1  105.44    3.38
  -4  -3   1  117.14    4.63
  -3  -3   1  105.84    4.18
   2   3  -1   36.69    1.66
  -2  -3   1   39.69    2.40
   1   3  -1  194.11    5.09
  -1  -3   1  193.40    5.37
   0  -3   1  651.12   14.35
   0  -3   1  665.52   15.76
  -1   3  -1  398.01   10.44
   1  -3   1  417.81   10.17
   1  -3   1  411.04    9.47
  -2   3  -1   88.98    3.96
   2  -3   1   81.51    3.00
   2  -3   1   82.00    3.07
  -3   3  -1   15.92    2.24
  -4   3  -1  556.42   15.03
  -5   3  -1  117.33    5.56
  -6   3  -1   24.33    2.98
  -7   3  -1    0.46    1.73
  -8   3  -1   42.95    4.18
  -9   3  -1   41.55    4.32
 -10   3  -1   50.50    5.02
 -11   3  -1   21.98    4.08
 -12   3  -1    2.43    3.04
 -13   3  -1   -4.76    2.55
 -14   3  -1   32.15    4.92
 -15   3  -1   10.54    3.19
 -16   3  -1    0.70    2.78
 -17   3  -1    7.63    3.87
 -16  -2   1   -0.22    2.96
 -15  -2   1   32.87    5.49
 -14  -2   1    2.29    2.47
 -13  -2   1  102.60    7.36
 -12  -2   1    8.34    2.86
 -11  -2   1   -2.30    1.33
 -10  -2   1   18.29    3.33
  -9  -2   1   -0.37    1.27
  -8  -2   1   27.02    3.28
  -8  -2   1   29.57    2.67
  -7  -2   1  282.93    8.55
  -7  -2   1  286.25    9.60
  -6  -2   1    3.55    1.55
  -6  -2   1    7.62    1.45
  -5  -2   1  424.30   10.65
  -5  -2   1  410.97   11.37
  -4  -2   1    0.05    0.91
  -4  -2   1    0.61    0.85
  -3  -2   1    0.50    0.92
  -3  -2   1    0.07    0.66
  -2  -2   1  486.13   11.34
   1   2  -1  157.26    4.01
  -1  -2   1  160.87    4.35
   0  -2   1    3.80    0.74
   0  -2   1    3.21    0.73
   1  -2   1   59.77    2.19
  -1   2  -1   65.36    2.72
   2  -2   1   22.68    1.62
  -2   2  -1   25.07    2.09
  -3   2  -1  259.68    8.02
  -4   2  -1    4.60    1.83
  -5   2  -1   91.22    4.74
  -6   2  -1   -0.03    1.54
  -7   2  -1  104.62    5.60
  -8   2  -1   66.40    4.71
  -9   2  -1   87.03    5.67
 -10   2  -1    5.29    2.66
 -11   2  -1   66.79    5.74
 -12   2  -1  106.89    7.08
 -13   2  -1    1.27    2.06
 -14   2  -1    1.95    2.33
 -15   2  -1    1.48    2.82
 -16   2  -1   -0.26    2.70
 -17   2  -1   -0.69    2.82
 -16  -1   1   12.74    4.08
 -15  -1   1   13.62    3.92
 -14  -1   1    2.18    2.44
 -13  -1   1    1.62    2.13
 -12  -1   1   24.63    4.00
 -11  -1   1    2.58    1.90
 -10  -1   1   91.50    5.96
  -9  -1   1  166.79    7.64
  -9  -1   1  158.75    6.70
  -8  -1   1    1.15    1.53
  -8  -1   1    1.97    1.49
  -7  -1   1    3.14    1.48
  -7  -1   1    2.78    1.52
  -6  -1   1  151.73    5.37
  -6  -1   1  143.86    5.85
  -5  -1   1   20.33    1.89
  -5  -1   1   22.11    2.29
  -4  -1   1  251.74    6.90
  -4  -1   1  260.72    7.52
  -3  -1   1  252.47    6.83
  -3  -1   1  247.04    6.37
  -2  -1   1    1.90    0.54
  -2  -1   1    1.42    0.78
  -1  -1   1  360.33    8.08
   0  -1   1 4039.91   82.05
   0  -1   1 4014.43   89.40
  -1   1  -1  127.67    3.90
   1  -1   1  126.01    3.32
  -2   1  -1  170.13    4.81
  -2   1  -1  173.19    5.37
  -3   1  -1   55.06    3.22
  -3   1  -1   60.00    2.95
  -4   1  -1   19.33    2.28
  -4   1  -1   19.98    2.04
  -5   1  -1   48.05    3.15
  -5   1  -1   45.06    3.35
  -6   1  -1  232.52    8.38
  -7   1  -1  107.67    5.53
  -8   1  -1  260.75    9.71
  -9   1  -1    2.07    2.10
 -10   1  -1   73.81    5.58
 -11   1  -1   51.68    5.11
 -11   1  -1   46.80    4.88
 -12   1  -1    3.92    2.18
 -13   1  -1   16.45    3.51
 -14   1  -1    4.98    3.13
 -15   1  -1   14.40    3.92
 -16   1  -1    6.10    3.51
 -17   1  -1    1.62    3.29
 -17   0   1    8.59    3.89
 -16   0   1    3.29    2.95
 -15   0   1    0.08    2.24
 -14   0   1   20.23    4.09
 -13   0   1   50.56    5.64
 -12   0   1   15.48    3.33
 -11   0   1  104.01    6.45
 -10   0   1   54.25    4.89
 -10   0   1   58.45    4.70
  -9   0   1    7.25    2.24
  -9   0   1    6.73    2.13
  -8   0   1   10.78    2.26
  -8   0   1   11.61    2.26
  -7   0   1   46.00    3.17
  -7   0   1   33.86    3.12
  -6   0   1   -1.29    1.04
  -6   0   1    0.69    1.20
  -5   0   1   -0.78    1.11
  -5   0   1   -0.47    1.21
  -4   0   1 1280.73   29.24
  -4   0   1 1283.63   27.75
  -3   0   1   47.35    2.35
  -3   0   1   47.68    2.33
  -2   0   1    1.45    0.74
  -2   0   1    2.05    0.76
  -1   0   1 2241.24   50.84
   0   0   1   -0.73    0.06
   0   0   1   -0.63    0.25
   1   0   1  541.85   12.61
   2   0   1  919.37   21.08
   3   0   1   18.81    2.01
  -4   0  -1   12.95    1.79
  -4   0  -1   11.64    1.87
  -5   0  -1  164.28    5.67
  -5   0  -1  172.30    6.37
  -6   0  -1   77.95    4.00
  -6   0  -1   82.54    4.45
  -7   0  -1  228.45    8.47
  -8   0  -1  182.48    7.66
  -9   0  -1    4.65    1.87
  -9   0  -1    5.54    2.44
 -10   0  -1    0.68    2.22
 -10   0  -1    1.72    1.93
 -11   0  -1   -1.29    1.38
 -12   0  -1    2.33    2.18
 -13   0  -1   -1.06    1.82
 -14   0  -1    1.85    2.52
 -15   0  -1   14.61    3.86
 -16   0  -1   -0.59    2.21
 -17   1   1   -3.99    2.42
 -16   1   1    2.58    3.04
 -15   1   1   -5.75    1.60
 -14   1   1   83.20    7.08
 -13   1   1    0.69    1.83
 -12   1   1    5.00    2.40
 -11   1   1    5.40    2.43
 -11   1   1    4.63    2.66
 -10   1   1  134.01    7.10
 -10   1   1  173.86    7.74
  -9   1   1    9.74    2.42
  -9   1   1    8.95    2.29
  -8   1   1  260.12    9.25
  -8   1   1  249.50    8.80
  -7   1   1    3.12    1.66
  -6   1   1   33.50    2.79
  -5   1   1    1.09    1.43
  -4   1   1   68.75    3.47
  -3   1   1   21.23    1.79
  -2   1   1  640.51   14.92
   1  -1  -1   23.59    1.18
  -1   1   1   23.81    1.20
   0   1   1 2004.04   44.72
   0  -1  -1 2032.65   44.20
   1   1   1   -0.01    0.15
   2   1   1   -0.26    0.56
   3   1   1  157.59    5.03
   4   1   1   43.32    2.69
  -5  -1  -1    1.81    1.29
  -5  -1  -1   -0.51    1.13
  -6  -1  -1  614.44   16.13
  -6  -1  -1  614.05   16.44
  -6  -1  -1  608.45   14.77
  -7  -1  -1    8.53    2.00
  -7  -1  -1   12.51    2.15
  -7  -1  -1   10.70    2.24
  -8  -1  -1   22.48    3.01
  -8  -1  -1   26.51    3.28
  -9  -1  -1    7.01    2.49
  -9  -1  -1    6.62    2.24
 -10  -1  -1   29.11    3.98
 -11  -1  -1   26.74    4.07
 -12  -1  -1   92.63    6.66
 -13  -1  -1   14.81    3.79
 -14  -1  -1   53.00    6.11
 -15  -1  -1    2.78    3.00
 -16  -1  -1    0.80    2.96
 -17   2   1    6.76    3.40
 -16   2   1    3.68    2.95
 -15   2   1   -0.31    2.18
 -14   2   1    4.99    2.50
 -13   2   1   80.04    6.18
 -12   2   1   31.36    4.50
 -12   2   1   40.09    4.71
 -11   2   1  168.02    8.16
 -11   2   1  169.61    8.24
 -10   2   1   40.92    4.22
  -9   2   1    1.16    2.00
  -8   2   1    3.19    1.97
  -7   2   1  533.99   15.00
  -6   2   1  186.99    6.87
  -5   2   1 1468.90   34.34
  -4   2   1   17.01    2.26
  -3   2   1  930.56   21.89
  -2   2   1  395.30   10.00
   1  -2  -1  115.18    2.85
  -1   2   1  120.49    3.80
   1  -2  -1  117.78    3.77
   0  -2  -1   70.76    2.90
   0   2   1   60.76    2.32
   0  -2  -1   70.24    1.91
  -1  -2  -1  975.58   20.42
   2   2   1  231.70    6.50
  -2  -2  -1  231.88    6.22
  -3  -2  -1   13.72    1.64
   3   2   1   11.31    1.67
   4   2   1   69.78    3.37
  -4  -2  -1   65.17    3.46
  -5  -2  -1   62.10    3.66
   5   2   1   60.80    3.45
  -6  -2  -1   23.84    2.36
  -6  -2  -1   26.38    2.86
  -6  -2  -1   24.89    2.48
  -7  -2  -1   -0.22    1.32
  -7  -2  -1   -0.26    1.40
  -7  -2  -1   -0.30    1.32
  -8  -2  -1    5.27    2.00
  -8  -2  -1    6.03    2.17
  -9  -2  -1  297.81   11.03
 -10  -2  -1    9.04    2.68
 -11  -2  -1  215.42    9.92
 -12  -2  -1   -1.77    1.76
 -13  -2  -1    2.98    2.36
 -14  -2  -1   31.40    5.01
 -15  -2  -1    8.31    3.45
 -16  -2  -1    4.45    3.33
 -17   3   1    0.91    2.63
 -16   3   1   -1.19    2.50
 -15   3   1   22.24    4.45
 -14   3   1   83.86    6.42
 -13   3   1    4.44    2.60
 -13   3   1    4.19    2.95
 -12   3   1    7.98    3.32
 -12   3   1   10.44    2.95
 -11   3   1   29.26    4.10
 -10   3   1  110.95    6.54
  -9   3   1    4.64    2.28
  -8   3   1  127.27    6.26
  -7   3   1  101.30    5.31
  -6   3   1  383.84   11.54
  -5   3   1    9.19    2.04
  -4   3   1   31.73    2.78
  -3   3   1   89.21    4.25
   2  -3  -1    9.43    1.42
  -2   3   1   12.98    1.79
  -1   3   1    9.96    1.56
   1  -3  -1   13.33    1.52
   1  -3  -1   11.55    0.90
   0  -3  -1    6.34    1.44
   0  -3  -1    7.32    0.85
  -1  -3  -1  121.36    3.62
  -1  -3  -1  111.52    4.78
   1   3   1  119.52    4.14
  -2  -3  -1   98.31    3.66
   2   3   1  100.05    3.73
  -3  -3  -1  100.85    4.09
   3   3   1  109.02    4.04
  -4  -3  -1   32.40    2.60
   4   3   1   32.78    2.56
   5   3   1    5.15    1.62
  -5  -3  -1    4.85    1.42
  -6  -3  -1    2.40    1.35
  -7  -3  -1   43.93    3.12
  -7  -3  -1   38.17    3.12
  -7  -3  -1   41.37    3.68
  -8  -3  -1   43.45    4.09
  -9  -3  -1   39.19    4.19
 -10  -3  -1   20.11    3.51
 -11  -3  -1    8.12    2.69
 -12  -3  -1    6.46    2.50
 -13  -3  -1   48.31    5.80
 -14  -3  -1   -2.16    2.20
 -15  -3  -1   -1.09    2.86
 -18   4   1    1.61    3.27
 -17   4   1    3.73    3.50
 -16   4   1   66.12    6.93
 -15   4   1    7.31    3.05
 -14   4   1   -0.28    2.79
 -14   4   1   -1.33    1.99
 -13   4   1    9.08    3.50
 -12   4   1    3.94    3.15
 -11   4   1   14.89    3.59
 -10   4   1   14.20    3.24
  -9   4   1   33.59    3.78
  -8   4   1   25.38    3.31
  -7   4   1  504.45   14.85
  -6   4   1   17.62    2.53
  -5   4   1   23.05    2.76
  -4   4   1  643.49   16.82
   3  -4  -1  168.11    5.77
  -3   4   1  171.63    6.18
  -2   4   1  348.32    9.84
   2  -4  -1  349.18    8.19
   2  -4  -1  359.53    9.83
  -1   4   1    3.81    1.62
   1  -4  -1   -0.30    1.09
   1  -4  -1    1.27    0.85
   0  -4  -1  873.23   21.62
   0  -4  -1  894.69   18.72
  -1  -4  -1    5.38    1.04
  -1  -4  -1    4.95    1.69
   1   4   1    5.54    1.46
  -2  -4  -1   20.45    1.78
   2   4   1   18.26    1.84
  -3  -4  -1   23.76    2.10
   3   4   1   23.14    1.98
  -4  -4  -1    3.27    1.29
   4   4   1    1.38    1.32
  -5  -4  -1   13.84    2.14
   5   4   1   10.30    1.84
   6   4   1   17.36    2.30
  -6  -4  -1   18.96    2.60
  -7  -4  -1    3.84    1.80
  -8  -4  -1    1.79    1.66
  -9  -4  -1   12.15    2.86
 -10  -4  -1    6.36    2.33
 -11  -4  -1    4.30    2.42
 -12  -4  -1    0.35    2.03
 -13  -4  -1   30.21    4.98
 -14  -4  -1    1.34    2.88
 -15  -4  -1    7.55    3.99
 -18   5   1   -0.31    1.75
 -17   5   1    0.55    2.25
 -16   5   1    5.30    3.01
 -15   5   1   20.10    4.23
 -15   5   1   23.11    4.99
 -14   5   1   -1.92    2.84
 -13   5   1   19.35    4.26
 -12   5   1   25.96    4.65
 -11   5   1  103.07    6.98
 -10   5   1   81.44    6.05
  -9   5   1    4.72    2.60
  -8   5   1   19.97    3.25
  -7   5   1    9.96    2.64
  -6   5   1  201.33    7.94
  -5   5   1  159.53    6.69
  -4   5   1    2.47    1.67
   4  -5  -1    0.59    1.15
   3  -5  -1  471.61   11.05
  -3   5   1  474.03   12.99
   3  -5  -1  476.92   12.91
   2  -5  -1   11.52    1.83
   2  -5  -1   15.96    1.40
  -2   5   1   14.29    2.13
  -1   5   1   46.83    3.12
   1  -5  -1   42.64    3.21
   1  -5  -1   48.13    2.20
   0  -5  -1   58.39    2.53
   0  -5  -1   62.87    3.74
  -1  -5  -1  182.10    5.27
   1   5   1  168.89    5.67
  -1  -5  -1  167.95    6.89
   2   5   1   11.44    1.68
  -2  -5  -1   15.53    1.65
  -2  -5  -1    9.65    2.20
   3   5   1  108.13    4.20
  -3  -5  -1   96.88    4.16
   4   5   1  216.39    6.72
  -4  -5  -1  209.67    7.16
  -5  -5  -1  138.54    5.98
   5   5   1  143.81    5.30
  -6  -5  -1  136.52    6.15
  -7  -5  -1   28.96    3.33
  -8  -5  -1  153.33    7.35
  -9  -5  -1    4.75    2.27
 -10  -5  -1   29.70    4.16
 -11  -5  -1   28.96    4.34
 -12  -5  -1   54.85    5.89
 -13  -5  -1    2.16    2.45
 -14  -5  -1  101.19    8.49
 -15  -5  -1    1.12    4.50
 -18   6   1    0.12    1.66
 -17   6   1   -3.87    1.76
 -16   6   1   -3.22    3.37
 -16   6   1    0.56    2.56
 -15   6   1    1.32    3.48
 -14   6   1    4.46    3.61
 -13   6   1    8.33    3.71
 -12   6   1   -1.80    3.11
 -11   6   1   34.27    4.73
 -10   6   1   38.25    4.71
  -9   6   1   57.86    5.08
  -8   6   1    8.49    2.78
  -7   6   1    4.37    2.40
  -6   6   1   40.35    3.81
  -5   6   1   15.91    2.63
   4  -6  -1  122.34    5.30
  -4   6   1  114.11    5.63
  -3   6   1  250.56    8.40
   3  -6  -1  248.24    6.66
   3  -6  -1  234.58    8.11
   2  -6  -1  207.76    7.46
   2  -6  -1  212.86    5.95
  -2   6   1  213.16    7.33
   1  -6  -1   58.18    3.77
  -1   6   1   59.13    3.49
   1  -6  -1   60.53    2.70
   0  -6  -1    3.16    1.13
   0   6   1    3.64    1.35
   0  -6  -1    2.55    1.53
  -1  -6  -1   60.50    3.03
   1   6   1   68.11    3.58
  -1  -6  -1   77.52    4.72
   2   6   1    1.85    1.44
  -2  -6  -1    0.76    1.48
  -2  -6  -1    2.44    1.14
  -3  -6  -1  627.20   15.68
   3   6   1  656.24   16.09
  -3  -6  -1  648.92   19.11
  -4  -6  -1  215.06    7.47
   4   6   1  231.22    7.04
  -5  -6  -1  166.87    6.56
  -6  -6  -1   97.76    5.27
  -7  -6  -1   63.84    4.64
  -8  -6  -1   60.30    4.90
  -9  -6  -1   51.09    4.88
 -10  -6  -1    2.62    2.00
 -11  -6  -1  110.02    7.25
 -12  -6  -1    6.30    2.96
 -13  -6  -1   30.79    5.14
 -18   7   1    1.13    1.67
 -17   7   1   -1.57    2.34
 -17   7   1   10.18    4.76
 -16   7   1    0.76    3.75
 -15   7   1   46.84    6.27
 -14   7   1   -0.51    3.12
 -13   7   1    1.00    3.01
 -12   7   1   62.25    6.26
 -11   7   1   22.74    4.51
 -10   7   1   39.42    4.92
  -9   7   1    9.20    3.17
  -8   7   1   27.67    3.92
  -7   7   1  238.50    9.62
  -6   7   1  110.69    6.14
  -5   7   1  170.96    7.44
   5  -7  -1  171.12    6.82
   4  -7  -1   40.32    2.61
   4  -7  -1   39.45    3.17
  -4   7   1   39.58    3.44
   3  -7  -1    6.81    1.36
   3  -7  -1    6.67    1.89
  -3   7   1    6.47    2.07
  -2   7   1   70.42    4.38
   2  -7  -1   71.51    4.30
   2  -7  -1   71.78    3.16
  -1   7   1    1.73    1.57
   1  -7  -1    0.42    1.44
   1  -7  -1    2.36    1.04
   0  -7  -1  101.69    3.89
   0  -7  -1  102.15    5.60
   0   7   1   94.74    4.64
  -1  -7  -1   15.01    2.80
   1   7   1   12.55    2.02
  -1  -7  -1   14.30    1.71
   2   7   1  122.46    5.02
  -2  -7  -1  129.70    4.91
  -2  -7  -1  117.55    6.57
  -3  -7  -1   79.91    4.01
  -3  -7  -1   88.21    5.83
   3   7   1   81.92    4.03
  -4  -7  -1    0.77    1.33
  -4  -7  -1    2.57    1.85
  -5  -7  -1   17.07    2.50
  -5  -7  -1   16.58    3.59
  -6  -7  -1   15.85    2.61
  -7  -7  -1   64.01    4.50
  -8  -7  -1   33.14    3.83
  -9  -7  -1    2.48    1.92
 -10  -7  -1   91.94    6.25
 -11  -7  -1   -0.62    2.17
 -18   8   1    0.73    1.70
 -18   8   1   -4.79    4.52
 -17   8   1   -2.95    3.71
 -16   8   1   65.99    7.49
 -15   8   1   -1.89    3.62
 -14   8   1   89.34    7.86
 -13   8   1   -2.06    3.26
 -12   8   1   17.39    4.47
 -11   8   1    7.79    3.68
 -10   8   1    1.17    2.95
  -9   8   1   23.71    4.31
  -8   8   1  140.23    7.54
  -7   8   1   16.29    3.47
  -6   8   1    7.72    2.89
  -5   8   1   32.42    3.71
   5  -8  -1   29.16    3.26
  -4   8   1  158.75    7.10
   4  -8  -1  151.71    5.36
   4  -8  -1  159.09    6.89
   3  -8  -1   27.70    3.13
   3  -8  -1   28.70    2.22
  -3   8   1   26.33    3.24
   2  -8  -1   18.35    1.91
  -2   8   1   17.04    2.64
   2  -8  -1   19.86    2.86
   1  -8  -1   20.31    1.94
  -1   8   1   19.40    2.32
   1  -8  -1   18.42    2.89
   0  -8  -1   27.38    3.53
   0  -8  -1   25.02    2.21
   0   8   1   27.85    2.80
  -1  -8  -1  141.50    7.38
   1   8   1  152.47    5.94
  -1  -8  -1  159.06    5.60
   2   8   1    1.88    1.76
  -2  -8  -1    3.39    1.44
  -2  -8  -1    3.92    1.98
  -3  -8  -1  100.45    6.68
  -3  -8  -1   97.66    4.70
  -4  -8  -1    3.86    1.69
  -4  -8  -1    5.21    2.49
  -5  -8  -1    3.90    2.23
  -5  -8  -1    4.31    1.73
  -6  -8  -1    6.64    2.81
  -6  -8  -1    6.32    1.94
  -7  -8  -1   49.48    4.27
  -7  -8  -1   48.73    6.14
  -8  -8  -1   29.49    3.80
  -9  -8  -1   33.55    4.20
 -18   9   1   -1.36    4.20
 -16   9   1   -2.25    3.50
 -15   9   1   -2.30    3.23
 -14   9   1   12.35    4.56
 -13   9   1    6.19    3.61
 -12   9   1   58.48    6.48
 -11   9   1   -1.24    3.29
 -10   9   1   13.64    4.27
  -9   9   1   24.52    4.31
  -8   9   1   41.17    4.80
  -7   9   1  149.07    7.97
   6  -9  -1  115.03    6.06
  -6   9   1  112.91    6.71
   5  -9  -1   58.93    4.40
   5  -9  -1   64.71    3.56
  -5   9   1   62.55    5.17
  -4   9   1   31.74    3.69
   4  -9  -1   26.37    3.21
   4  -9  -1   29.60    2.48
  -3   9   1    6.62    2.50
   3  -9  -1    6.87    1.57
   3  -9  -1    3.03    1.68
  -2   9   1    8.46    2.46
   2  -9  -1    5.52    1.92
   2  -9  -1    8.08    1.72
   1  -9  -1   -0.01    1.47
   1  -9  -1    1.22    1.26
  -1   9   1    0.43    0.62
   0  -9  -1  238.42   10.06
   0   9   1  245.14    8.51
   0  -9  -1  240.19    7.56
  -1  -9  -1   -1.16    1.37
  -1  -9  -1    1.20    1.34
   1   9   1    3.74    2.02
  -2  -9  -1  184.11    9.33
  -2  -9  -1  187.92    6.75
  -3  -9  -1   -0.80    1.29
  -3  -9  -1   -0.79    1.60
  -4  -9  -1   94.94    5.05
  -4  -9  -1   93.32    6.94
  -5  -9  -1    2.30    2.41
  -5  -9  -1    1.01    1.48
  -6  -9  -1   37.16    5.48
  -6  -9  -1   41.10    3.84
  -7  -9  -1   -2.51    2.21
  -8  -9  -1   24.78    5.42
  -9  -9  -1    0.38    3.01
 -10  -9  -1    3.41    3.58
 -11  -9  -1   12.90    4.86
 -18  10   1    5.99    5.43
 -17  10   1   -5.88    3.41
 -16  10   1   10.38    4.51
 -15  10   1   -3.48    3.30
 -14  10   1    0.16    3.54
 -13  10   1   33.13    5.68
 -12  10   1    6.35    3.44
 -11  10   1    6.74    3.82
 -10  10   1    7.60    3.89
  -9  10   1   17.62    4.38
  -8  10   1   34.39    4.95
  -7  10   1   39.34    4.72
   6 -10  -1    5.55    2.02
  -6  10   1    0.33    2.74
   5 -10  -1    0.94    1.50
  -5  10   1    1.52    2.64
   5 -10  -1   -0.82    1.49
   4 -10  -1    1.91    1.67
  -4  10   1   -1.15    2.45
   4 -10  -1    1.97    1.49
   3 -10  -1   37.66    2.85
   3 -10  -1   37.22    3.99
  -3  10   1   35.22    3.99
  -2  10   1  127.85    6.38
   2 -10  -1  120.15    6.74
   2 -10  -1  128.98    5.19
   1 -10  -1  250.22    7.85
   1 -10  -1  241.66   10.21
   0 -10  -1    4.05    1.76
   0 -10  -1    5.38    2.34
  -1 -10  -1   34.49    4.63
  -1 -10  -1   37.96    3.13
  -2 -10  -1    1.65    1.73
  -2 -10  -1   -0.81    1.73
  -3 -10  -1    1.36    1.91
  -4 -10  -1    2.20    2.49
  -5 -10  -1    3.68    2.77
  -6 -10  -1   24.91    5.00
  -7 -10  -1   13.21    4.20
  -8 -10  -1    2.20    3.08
  -9 -10  -1    3.36    3.72
 -10 -10  -1    6.50    3.98
 -18  11   1   -4.22    4.34
 -17  11   1   13.47    5.60
 -16  11   1   17.68    5.71
 -15  11   1    4.88    4.20
 -14  11   1    0.31    3.54
 -13  11   1   19.57    5.00
 -12  11   1   34.58    5.72
 -11  11   1   32.85    5.38
 -10  11   1    1.87    3.48
  -9  11   1    8.04    3.75
  -8  11   1    7.80    3.70
  -7  11   1    0.63    3.27
  -6  11   1   47.00    5.09
   6 -11  -1   53.67    4.90
   5 -11  -1   12.99    2.32
  -5  11   1   12.00    3.54
   5 -11  -1   13.09    2.84
   4 -11  -1  108.09    6.49
  -4  11   1  110.14    6.73
   4 -11  -1  115.30    5.15
  -3  11   1   51.54    4.84
   3 -11  -1   46.37    4.65
   3 -11  -1   47.60    3.43
   2 -11  -1   83.60    4.43
  -2  11   1   81.75    5.67
   2 -11  -1   75.97    5.66
   1 -11  -1   42.73    4.74
  -1  11   1   22.06    3.10
   0  11   1    7.20    2.69
   0 -11  -1    3.88    2.17
  -1 -11  -1    4.61    2.51
  -2 -11  -1   48.63    5.79
  -3 -11  -1   16.39    4.12
  -4 -11  -1    0.79    2.32
  -5 -11  -1    6.97    3.41
  -6 -11  -1   11.42    4.05
  -7 -11  -1    9.45    3.72
  -8 -11  -1    5.34    3.30
  -9 -11  -1    1.93    3.39
 -17  12   1    0.15    4.38
 -16  12   1   22.27    6.26
 -15  12   1    1.96    4.28
 -14  12   1   41.37    6.69
 -13  12   1    2.85    3.95
 -12  12   1   38.10    6.13
 -11  12   1   15.55    4.63
 -10  12   1    1.37    3.49
  -9  12   1   -1.23    3.10
  -8  12   1   -3.23    3.05
   7 -12  -1    8.48    2.83
  -7  12   1   11.84    3.94
  -6  12   1  126.46    7.97
   6 -12  -1  143.40    7.62
   5 -12  -1  109.42    5.47
   5 -12  -1  106.06    6.68
  -5  12   1  114.67    7.36
   4 -12  -1   42.70    4.72
  -4  12   1   51.56    5.10
   3 -12  -1    3.74    2.15
  -3  12   1    3.40    3.04
  -2  12   1    3.57    2.82
   2 -12  -1    5.35    2.32
   1 -12  -1    1.73    1.89
  -1  12   1    1.53    2.45
   0 -12  -1   57.65    6.04
  -1 -12  -1   10.49    3.21
  -2 -12  -1   10.72    3.27
  -3 -12  -1    5.64    2.97
  -4 -12  -1    0.76    2.74
  -5 -12  -1    1.68    3.30
  -6 -12  -1    3.71    3.22
  -7 -12  -1    0.08    3.16
  -8 -12  -1   -1.08    1.86
 -17  13   1   29.01    6.90
 -16  13   1   -1.20    4.24
 -15  13   1    0.75    3.98
 -14  13   1    0.63    3.84
 -13  13   1    0.40    3.46
 -12  13   1   -1.78    3.42
 -11  13   1   16.71    4.80
 -10  13   1    1.05    3.37
  -9  13   1    2.37    3.48
  -8  13   1    8.02    3.65
  -7  13   1   18.95    4.40
   7 -13  -1   18.83    3.77
   6 -13  -1   60.72    5.76
  -6  13   1   63.31    6.13
  -5  13   1    8.47    3.68
   5 -13  -1    4.41    2.54
  -4  13   1   12.07    3.85
   4 -13  -1   20.20    4.09
  -3  13   1   37.65    4.47
   3 -13  -1   38.82    4.89
   2 -13  -1    2.77    2.11
  -2  13   1   -0.62    0.98
   1 -13  -1   44.02    5.46
   0 -13  -1    1.74    1.98
  -1 -13  -1    6.91    3.03
  -2 -13  -1   -0.51    2.01
  -3 -13  -1   -0.94    2.40
  -4 -13  -1    6.41    3.39
  -5 -13  -1   -0.15    2.68
  -6 -13  -1   -2.42    2.38
  -7 -13  -1   -1.46    1.82
 -16  14   1   21.86    6.48
 -15  14   1   -2.75    3.74
 -14  14   1    0.52    4.16
 -13  14   1    5.84    4.54
 -12  14   1    4.73    4.21
 -11  14   1    1.10    3.63
 -10  14   1   16.43    4.77
  -9  14   1   -1.04    3.13
  -8  14   1   60.53    6.46
  -7  14   1   17.37    4.45
   7 -14  -1   16.50    3.88
  -6  14   1   -2.47    2.80
   6 -14  -1   -0.28    2.06
  -5  14   1   -1.74    2.85
   5 -14  -1    5.65    2.57
  -4  14   1   49.44    5.29
   4 -14  -1   46.64    5.56
  -3  14   1   -1.13    2.60
   3 -14  -1    3.65    2.39
   2 -14  -1    4.39    2.60
   1 -14  -1    6.45    2.88
   0 -14  -1   59.06    6.62
  -1 -14  -1    1.89    2.37
  -2 -14  -1   22.51    4.70
  -3 -14  -1   17.86    4.76
  -4 -14  -1    4.72    3.21
  -5 -14  -1   -3.69    1.61
  -6 -14  -1   -1.10    1.96
 -15  15   1    2.44    4.87
 -14  15   1   -0.91    4.07
 -13  15   1    0.26    4.23
 -12  15   1    7.44    4.50
 -11  15   1   69.96    7.40
 -10  15   1    7.11    4.14
  -9  15   1   42.34    5.97
  -8  15   1    2.29    3.82
   8 -15  -1    7.48    3.19
   7 -15  -1   26.29    4.62
  -7  15   1   21.61    4.93
  -6  15   1    6.51    3.60
   6 -15  -1   10.68    3.46
  -5  15   1   21.39    4.60
   5 -15  -1   15.18    3.69
  -4  15   1   -1.12    2.88
   4 -15  -1    1.11    2.31
   3 -15  -1   35.32    5.37
   2 -15  -1    4.80    2.71
   1 -15  -1   12.39    3.85
   0 -15  -1    3.33    3.04
  -1 -15  -1    6.74    3.12
  -2 -15  -1   15.98    4.08
  -3 -15  -1    0.36    3.15
  -4 -15  -1   -1.87    1.36
  -5 -15  -1   -1.32    2.11
 -15  16   1   -1.24    2.39
 -14  16   1   -0.77    2.21
 -13  16   1    0.17    4.24
 -12  16   1   29.46    6.20
 -11  16   1   19.33    5.31
 -10  16   1    0.24    3.60
  -9  16   1    0.71    3.77
  -8  16   1    3.96    3.92
   8 -16  -1    7.17    3.36
   7 -16  -1   -1.67    2.48
  -7  16   1    0.53    3.32
  -6  16   1   67.01    6.61
   6 -16  -1   78.96    7.34
  -5  16   1    0.36    3.36
   5 -16  -1   -1.53    2.42
   4 -16  -1   22.78    4.67
   3 -16  -1    5.47    3.19
   2 -16  -1   -2.10    2.35
   1 -16  -1    0.29    2.62
   0 -16  -1    8.91    3.29
  -1 -16  -1   -0.32    2.26
  -2 -16  -1    1.06    2.44
  -3 -16  -1    0.00    1.77
 -14  17   1   -1.51    2.70
 -13  17   1   -2.64    2.28
 -12  17   1   -2.08    3.87
 -11  17   1    0.75    4.22
 -10  17   1    3.89    4.74
  -9  17   1   13.02    4.82
  -8  17   1    5.24    4.12
   8 -17  -1    2.41    2.79
  -7  17   1   24.28    5.24
   7 -17  -1   26.12    5.31
   6 -17  -1   15.27    4.30
   5 -17  -1    2.01    2.92
   4 -17  -1    0.93    2.58
   3 -17  -1   -1.30    2.61
   2 -17  -1    1.77    2.79
   1 -17  -1    4.02    3.17
   0 -17  -1    0.89    1.87
  -1 -17  -1   -0.99    1.52
  -2 -17  -1    2.18    2.10
 -13  18   1   -4.30    2.30
 -12  18   1   -2.69    3.75
 -11  18   1   10.96    5.07
 -10  18   1    1.83    4.34
  -9  18   1    1.35    4.00
  -8  18   1    4.68    4.36
   8 -18  -1    9.06    3.93
   7 -18  -1   -0.45    2.77
   6 -18  -1   42.34    6.48
   5 -18  -1    6.93    3.73
   4 -18  -1    1.49    2.91
   3 -18  -1   -2.86    2.60
   2 -18  -1    6.90    3.25
   1 -18  -1    0.99    3.33
   0 -18  -1    0.58    2.11
 -11  19   1   -2.10    4.55
 -10  19   1    0.27    4.04
  -9  19   1    2.44    4.67
   8 -19  -1    5.98    3.54
   7 -19  -1    7.78    3.94
   6 -19  -1   -0.05    2.86
   4 -19  -1    3.65    3.82
   3 -19  -1   46.30    7.74
   8 -20  -1   -0.82    4.55
   7 -20  -1    6.70    5.30
   6 -20  -1   -1.24    4.47
   1 -19   2    2.03    4.11
   2 -19   2    1.18    3.27
   3 -19   2   14.17    4.51
   4 -19   2    8.98    4.44
   5 -19   2   16.41    4.79
  -9  19  -2   12.37    5.50
 -10  19  -2   -2.47    4.10
 -11  19  -2   -7.38    4.41
  -1 -18   2   -0.19    3.53
   0 -18   2   13.92    4.11
   1 -18   2    1.53    2.83
   2 -18   2    5.91    3.47
   3 -18   2   26.61    5.41
   4 -18   2    9.06    3.92
   5 -18   2   22.68    4.97
   6 -18   2   24.38    5.07
   7 -18   2    2.93    3.62
  -8  18  -2    2.99    4.04
  -9  18  -2    6.74    4.44
 -10  18  -2   -3.50    3.79
 -11  18  -2   12.10    5.33
 -12  18  -2   -5.23    4.81
  -3 -17   2   14.80    4.99
  -1 -17   2   13.79    4.21
   0 -17   2   50.77    6.92
   1 -17   2    4.18    3.29
   2 -17   2   52.62    6.79
   3 -17   2    4.36    3.16
   4 -17   2   13.82    4.03
   5 -17   2    0.71    2.58
   6 -17   2    0.50    2.84
   7 -17   2    6.19    3.53
  -7  17  -2    3.80    3.72
  -8  17  -2    7.70    4.34
  -9  17  -2   -0.87    3.63
 -10  17  -2   -2.33    3.75
 -11  17  -2   -5.26    3.99
 -12  17  -2   -1.07    2.11
 -13  17  -2   -2.89    2.41
  -4 -16   2   27.46    5.90
  -3 -16   2   -0.40    2.60
  -2 -16   2    0.47    2.64
  -1 -16   2   52.19    6.84
   0 -16   2   26.24    5.24
   1 -16   2   26.61    5.00
   2 -16   2   19.60    4.36
   3 -16   2   12.96    4.05
   4 -16   2    2.70    2.49
   5 -16   2    5.27    3.02
   6 -16   2   17.27    4.23
  -6  16  -2    7.19    4.21
  -7  16  -2   36.97    5.87
   7 -16   2   55.12    6.06
  -8  16  -2    8.32    4.31
  -9  16  -2   -2.16    3.46
 -10  16  -2    0.53    3.64
 -11  16  -2    5.64    4.58
 -12  16  -2    0.10    4.61
 -13  16  -2   -0.06    2.33
 -14  16  -2   -2.95    2.55
  -6 -15   2    1.90    2.18
  -5 -15   2   -0.34    1.63
  -4 -15   2    3.15    3.52
  -3 -15   2    2.52    2.74
  -2 -15   2   21.41    4.84
  -1 -15   2   25.03    5.01
   0 -15   2   70.93    7.11
   1 -15   2    1.19    2.46
   2 -15   2   18.21    4.07
   3 -15   2    2.85    2.52
  -4  15  -2   12.30    3.82
   4 -15   2   11.10    3.23
   5 -15   2    4.05    2.51
  -5  15  -2   -0.06    3.21
   6 -15   2    0.72    2.45
  -6  15  -2    1.62    3.53
  -7  15  -2   39.64    5.67
   7 -15   2   31.17    4.32
   7 -15   2   34.59    5.01
  -8  15  -2   -0.21    3.53
  -9  15  -2    0.09    3.49
 -10  15  -2    9.51    4.62
 -11  15  -2    0.94    3.92
 -12  15  -2    3.42    4.20
 -13  15  -2   -4.20    3.99
 -14  15  -2   -2.65    2.04
 -15  15  -2   -0.85    4.48
  -7 -14   2   -0.15    2.17
  -6 -14   2   -0.16    2.28
  -5 -14   2    1.15    3.13
  -4 -14   2   -3.34    2.37
  -3 -14   2   32.30    5.72
  -2 -14   2   -1.85    2.18
  -1 -14   2   80.65    7.67
   0 -14   2    2.49    2.20
   1 -14   2    5.93    2.75
   2 -14   2    2.85    2.11
  -3  14  -2   11.70    3.62
   3 -14   2   18.47    3.90
  -4  14  -2   26.90    4.26
   4 -14   2   24.57    3.52
   4 -14   2   25.59    4.21
   5 -14   2   59.47    4.94
  -5  14  -2   53.51    5.76
   5 -14   2   62.51    5.80
  -6  14  -2   27.45    4.66
   6 -14   2   24.68    4.22
   6 -14   2   27.79    3.81
   7 -14   2   14.02    3.15
  -7  14  -2   11.96    4.10
  -8  14  -2    1.76    3.30
  -9  14  -2    1.76    3.40
 -10  14  -2    4.21    3.96
 -11  14  -2   40.73    6.55
 -12  14  -2   -1.13    3.61
 -13  14  -2   28.21    6.39
 -14  14  -2   18.01    5.70
 -15  14  -2    1.10    4.44
  -8 -13   2   -3.32    1.68
  -7 -13   2    2.23    3.22
  -6 -13   2   12.87    4.47
  -5 -13   2   32.64    6.01
  -4 -13   2   29.09    5.34
  -3 -13   2   36.36    5.69
  -2 -13   2   -0.61    2.59
  -1 -13   2    3.69    2.51
   0 -13   2   13.91    3.36
   0 -13   2   18.63    3.18
   1 -13   2    4.23    2.22
   1 -13   2    5.68    2.40
   2 -13   2   30.05    4.69
   2 -13   2   24.68    3.38
   3 -13   2   23.24    3.31
   3 -13   2   25.05    3.98
  -3  13  -2   22.85    3.99
   4 -13   2   14.29    2.99
  -4  13  -2   16.55    3.93
   4 -13   2   11.06    2.99
   5 -13   2  107.66    6.15
   5 -13   2  100.01    6.47
  -5  13  -2   95.90    7.19
  -6  13  -2   16.73    4.30
   6 -13   2   26.62    3.98
   6 -13   2   23.34    3.52
  -7  13  -2   -4.41    2.74
  -8  13  -2    3.95    3.55
  -9  13  -2    4.24    3.69
 -10  13  -2   57.09    6.99
 -11  13  -2   27.54    5.89
 -12  13  -2   16.92    5.34
 -13  13  -2   11.94    4.66
 -14  13  -2   12.13    5.25
 -15  13  -2    6.38    4.76
 -16  13  -2   12.14    5.74
  -9 -12   2    0.18    1.87
  -8 -12   2    4.11    3.64
  -7 -12   2   37.64    6.47
  -6 -12   2   17.50    4.72
  -5 -12   2   32.07    5.54
  -4 -12   2   26.98    4.98
  -3 -12   2   -2.59    1.56
  -3 -12   2    2.11    2.43
  -2 -12   2   -0.34    1.66
  -2 -12   2   -3.96    1.54
  -1 -12   2   -1.46    1.51
  -1 -12   2    1.19    1.88
   0 -12   2    1.33    1.95
   0 -12   2    5.05    2.19
   1 -12   2   20.26    3.68
   1 -12   2   33.21    3.65
  -1  12  -2   22.34    3.51
   2 -12   2   52.96    5.04
   2 -12   2   68.31    4.72
   3 -12   2    0.28    1.55
   3 -12   2   -0.09    1.77
  -3  12  -2    1.25    2.95
   4 -12   2   14.53    2.86
   4 -12   2   19.66    3.29
  -4  12  -2   22.99    4.09
  -5  12  -2    0.90    3.02
   5 -12   2   -3.23    1.45
   5 -12   2    0.19    2.11
   6 -12   2    3.38    2.21
   6 -12   2    4.19    2.30
  -6  12  -2    1.08    3.36
  -7  12  -2   -3.15    3.24
  -8  12  -2   53.39    6.14
  -9  12  -2   62.08    6.68
 -10  12  -2    2.09    3.02
 -11  12  -2   30.01    5.74
 -12  12  -2   -4.86    3.33
 -13  12  -2   -2.36    3.53
 -14  12  -2    4.45    4.53
 -15  12  -2    8.55    5.13
 -16  12  -2   -0.20    4.68
 -10 -11   2   -0.44    1.45
  -9 -11   2    0.42    2.87
  -8 -11   2   -0.39    2.35
  -7 -11   2   20.67    4.58
  -6 -11   2    7.17    3.31
  -6 -11   2    4.01    2.26
  -5 -11   2   43.99    5.96
  -5 -11   2   36.07    3.91
  -4 -11   2   36.82    3.84
  -4 -11   2   26.22    4.77
  -3 -11   2   15.62    2.89
  -3 -11   2   14.38    3.50
  -2 -11   2   -2.99    1.57
  -2 -11   2    0.67    1.83
  -1 -11   2   15.88    3.49
  -1 -11   2   20.95    3.03
   0 -11   2    4.49    2.00
   0 -11   2    6.79    2.35
   1 -11   2   14.36    2.63
   1 -11   2   13.65    2.94
  -1  11  -2   12.54    2.99
   2 -11   2   33.15    3.93
  -2  11  -2   36.78    4.01
   2 -11   2   34.90    3.45
   3 -11   2   53.88    4.12
  -3  11  -2   61.65    5.15
   3 -11   2   56.80    4.53
   4 -11   2   24.79    3.11
   4 -11   2   27.89    3.55
  -4  11  -2   37.67    4.51
   5 -11   2  124.57    6.06
  -5  11  -2  128.04    7.65
   5 -11   2  128.03    6.59
   6 -11   2    5.45    2.09
  -6  11  -2    9.36    3.54
   6 -11   2    5.86    2.28
  -7  11  -2   24.79    4.62
  -8  11  -2    4.76    3.51
  -9  11  -2   23.57    4.86
 -10  11  -2   39.02    5.86
 -11  11  -2    8.83    4.14
 -12  11  -2    3.30    3.81
 -13  11  -2    0.85    3.62
 -14  11  -2   11.80    5.03
 -15  11  -2   -8.36    3.52
 -16  11  -2   12.95    5.72
 -17  11  -2    2.57    5.42
 -11 -10   2    2.31    1.92
 -10 -10   2    4.47    3.14
  -9 -10   2    3.36    2.84
  -9 -10   2    1.33    2.21
  -8 -10   2    1.54    2.54
  -8 -10   2    5.22    2.42
  -7 -10   2   12.37    3.68
  -7 -10   2   11.45    2.75
  -6 -10   2    2.01    2.33
  -6 -10   2    2.25    1.79
  -5 -10   2   -0.31    1.77
  -5 -10   2   -0.40    1.65
  -4 -10   2   31.11    4.77
  -4 -10   2   24.99    3.28
  -3 -10   2   17.00    2.91
  -3 -10   2   22.29    4.09
  -2 -10   2   16.52    2.72
  -2 -10   2   14.86    3.34
  -1 -10   2  183.22    8.99
  -1 -10   2  193.04    7.47
   0 -10   2   26.70    2.94
   0  10  -2   24.26    3.00
   0 -10   2   25.82    3.73
   1 -10   2   89.56    4.79
  -1  10  -2   82.23    4.87
   1 -10   2   87.67    5.47
  -2  10  -2   58.11    4.59
   2 -10   2   57.89    4.30
   2 -10   2   63.89    4.06
   3 -10   2   -0.52    1.36
  -3  10  -2    0.99    2.28
   3 -10   2    0.33    1.50
   4 -10   2    1.88    1.62
  -4  10  -2    1.74    2.69
   4 -10   2    0.58    1.63
   5 -10   2   69.14    4.66
  -5  10  -2   68.53    5.72
   5 -10   2   73.23    4.54
   6 -10   2   67.57    4.61
  -6  10  -2   78.85    6.29
  -7  10  -2  134.58    8.01
  -8  10  -2   47.32    5.65
  -9  10  -2    1.01    3.24
 -10  10  -2  105.41    8.30
 -11  10  -2    3.27    3.19
 -12  10  -2   13.64    4.74
 -13  10  -2   52.93    7.15
 -14  10  -2    1.36    4.02
 -15  10  -2   40.46    7.12
 -16  10  -2    8.51    5.07
 -17  10  -2    3.74    5.63
 -12  -9   2    2.84    2.85
 -11  -9   2   89.03    6.63
 -10  -9   2    6.19    2.62
  -9  -9   2    0.03    1.84
  -8  -9   2   -0.28    1.66
  -7  -9   2   -0.44    1.75
  -7  -9   2    0.83    1.93
  -6  -9   2    9.23    2.31
  -6  -9   2   12.65    3.47
  -5  -9   2   10.18    2.93
  -5  -9   2    9.82    2.40
  -4  -9   2   39.68    3.76
  -4  -9   2   35.42    4.77
  -3  -9   2   75.54    4.52
  -3  -9   2   67.49    5.50
  -2  -9   2   12.74    2.96
  -2  -9   2    9.84    2.22
  -1  -9   2  155.49    6.31
  -1  -9   2  153.22    7.55
   1   9  -2  154.67    5.91
   0  -9   2   92.96    5.61
   0   9  -2   91.09    4.79
   0  -9   2   96.61    4.80
   1  -9   2   14.20    2.64
   1  -9   2   18.65    2.43
  -2   9  -2   45.63    3.81
   2  -9   2   44.25    3.41
   2  -9   2   43.22    3.58
   3  -9   2  103.39    4.86
   3  -9   2  105.08    5.41
  -3   9  -2  102.02    5.81
   4  -9   2   36.04    3.19
  -4   9  -2   45.02    4.32
   4  -9   2   40.39    3.57
  -5   9  -2  386.37   13.53
   5  -9   2  390.20   12.21
   5  -9   2  391.33   11.56
  -6   9  -2  161.65    8.31
  -7   9  -2   53.33    5.40
  -8   9  -2    0.89    2.72
  -9   9  -2   15.60    3.99
 -10   9  -2    5.01    3.65
 -11   9  -2   35.01    5.65
 -12   9  -2   -1.51    3.14
 -13   9  -2   -0.29    3.43
 -14   9  -2   25.96    6.08
 -15   9  -2    0.87    4.27
 -16   9  -2    0.16    4.02
 -17   9  -2   -3.82    4.32
 -18   9  -2   -0.05    5.27
 -13  -8   2    1.16    3.00
 -12  -8   2   79.19    7.01
 -11  -8   2    2.65    2.21
 -10  -8   2   18.42    3.74
  -9  -8   2   24.20    3.79
  -8  -8   2   11.07    2.65
  -7  -8   2   20.66    3.15
  -6  -8   2   49.35    4.18
  -5  -8   2    3.28    1.98
  -5  -8   2    2.11    1.77
  -4  -8   2  117.56    7.10
  -4  -8   2  125.46    5.82
  -3  -8   2    9.84    2.61
  -3  -8   2    6.87    1.89
  -2  -8   2   -0.95    1.15
  -2  -8   2   -0.85    1.13
   2   8  -2    0.15    1.35
   1   8  -2    6.12    1.68
  -1  -8   2    0.68    1.33
  -1  -8   2    1.77    1.40
   0  -8   2  180.89    7.71
   0  -8   2  186.23    6.65
   0   8  -2  189.17    6.72
   1  -8   2    2.09    1.33
   1  -8   2    0.13    1.26
  -1   8  -2   -0.27    0.56
  -2   8  -2   89.59    5.11
   2  -8   2   84.55    4.24
   2  -8   2   88.52    4.75
  -3   8  -2  158.31    7.05
   3  -8   2  160.30    6.51
   3  -8   2  160.84    6.05
   4  -8   2    1.19    1.35
  -4   8  -2    3.17    2.13
   4  -8   2    3.88    1.63
   5  -8   2    5.86    1.81
  -5   8  -2   10.45    2.84
  -6   8  -2   10.58    3.05
  -7   8  -2   13.75    3.37
  -8   8  -2   -0.25    2.68
  -9   8  -2   39.37    5.11
 -10   8  -2    6.66    3.72
 -11   8  -2   49.33    6.18
 -12   8  -2    3.46    3.45
 -13   8  -2    8.97    4.15
 -14   8  -2   11.07    4.81
 -15   8  -2    4.04    3.98
 -16   8  -2    2.05    4.36
 -17   8  -2    3.77    5.06
 -14  -7   2    2.13    3.08
 -13  -7   2    0.04    2.36
 -12  -7   2   25.61    4.57
 -11  -7   2   14.71    3.34
 -10  -7   2   44.27    4.85
  -9  -7   2    7.07    2.38
  -8  -7   2    1.98    1.72
  -7  -7   2  104.81    5.85
  -6  -7   2   12.54    2.52
  -5  -7   2   75.37    4.50
  -4  -7   2    3.15    1.61
   3   7  -2   67.50    2.86
  -3  -7   2   68.03    3.94
  -3  -7   2   66.04    4.89
  -2  -7   2   18.09    2.93
   2   7  -2   19.25    1.79
  -2  -7   2   20.46    2.31
   1   7  -2  232.10    7.10
  -1  -7   2  233.14    7.47
  -1  -7   2  234.98    8.87
   0  -7   2    0.10    1.28
   0   7  -2    1.16    1.48
   0  -7   2    0.13    1.14
   1  -7   2   43.49    3.34
   1  -7   2   41.93    2.91
   2  -7   2   39.00    2.86
  -2   7  -2   41.71    3.46
   2  -7   2   39.46    3.00
  -3   7  -2  100.90    5.36
   3  -7   2   93.53    4.53
   3  -7   2   92.93    4.30
  -4   7  -2    1.26    1.93
   4  -7   2   -0.66    1.06
   4  -7   2    1.64    1.40
   5  -7   2   21.53    2.51
  -5   7  -2   20.41    3.12
  -6   7  -2   33.67    3.88
  -7   7  -2    9.23    2.75
  -8   7  -2   -2.52    2.19
  -9   7  -2   -1.25    2.78
 -10   7  -2   16.40    4.23
 -11   7  -2   56.53    6.17
 -12   7  -2   -2.71    2.94
 -13   7  -2   75.56    7.57
 -14   7  -2   -1.41    3.37
 -15   7  -2   -6.97    3.20
 -16   7  -2    3.39    4.27
 -17   7  -2    4.17    4.75
 -15  -6   2   -1.83    2.88
 -14  -6   2    5.94    3.02
 -13  -6   2    7.63    3.11
 -12  -6   2    0.83    2.24
 -11  -6   2    8.75    2.75
 -10  -6   2    3.76    2.02
  -9  -6   2    7.22    2.41
  -8  -6   2   26.22    3.57
  -7  -6   2   10.48    2.33
  -6  -6   2  118.83    5.81
  -5  -6   2    1.62    1.40
  -4  -6   2    2.48    1.36
  -3  -6   2  251.25    8.13
   3   6  -2  258.39    6.51
   2   6  -2  155.38    4.85
  -2  -6   2  166.20    5.91
  -2  -6   2  164.71    7.01
   1   6  -2    7.08    1.48
  -1  -6   2    7.63    1.66
  -1  -6   2    6.54    1.89
   0   6  -2   90.97    4.03
   0  -6   2   88.11    3.92
   0  -6   2   91.94    4.55
   1  -6   2   44.99    2.99
   1  -6   2   37.29    2.65
   2  -6   2   78.22    3.68
   2  -6   2   71.67    3.67
  -2   6  -2   75.05    4.23
   3  -6   2  194.18    6.45
  -3   6  -2  188.88    7.44
   3  -6   2  204.92    6.72
   4  -6   2    3.51    1.47
  -4   6  -2    2.41    1.90
  -5   6  -2   -0.73    1.67
  -6   6  -2  147.58    7.41
  -7   6  -2   23.36    3.58
  -8   6  -2   70.66    5.77
  -9   6  -2   27.40    4.30
 -10   6  -2   16.78    4.10
 -11   6  -2   -0.09    3.08
 -12   6  -2    9.34    3.91
 -13   6  -2   20.60    4.84
 -14   6  -2    3.64    3.78
 -15   6  -2  100.47    8.96
 -16   6  -2   10.30    4.79
 -15  -5   2    5.09    3.52
 -14  -5   2   -0.63    2.55
 -13  -5   2    0.70    2.25
 -12  -5   2   -2.08    1.92
 -11  -5   2   20.29    3.82
 -10  -5   2    1.68    1.91
  -9  -5   2  159.93    7.89
  -8  -5   2    1.17    1.61
  -7  -5   2   10.41    2.39
  -6  -5   2   20.45    2.71
  -5  -5   2   29.69    2.85
  -4  -5   2   66.42    3.70
  -3  -5   2   49.74    3.11
  -2  -5   2   29.42    2.27
   2   5  -2   23.58    1.71
  -1  -5   2  294.12    8.09
   1   5  -2  281.13    7.70
  -1  -5   2  298.74    9.23
   0   5  -2   29.31    2.30
   0  -5   2   26.72    2.47
   0  -5   2   32.59    2.37
  -1   5  -2  169.27    6.05
   1  -5   2  178.05    5.53
   1  -5   2  168.53    5.81
   2  -5   2   40.07    2.46
   2  -5   2   35.57    2.57
  -2   5  -2   31.62    2.97
   3  -5   2   74.02    3.29
   3  -5   2   74.31    3.61
  -3   5  -2   76.22    4.49
  -4   5  -2    6.30    2.10
   4  -5   2    7.01    1.58
  -5   5  -2   22.61    3.09
  -6   5  -2    5.75    2.32
  -7   5  -2   33.19    3.91
  -8   5  -2    4.95    2.62
  -9   5  -2    1.32    2.61
 -10   5  -2   48.84    5.39
 -11   5  -2   49.52    5.58
 -12   5  -2   52.22    6.05
 -13   5  -2  115.55    8.36
 -14   5  -2   20.04    4.93
 -15   5  -2    8.18    4.63
 -17   5  -2   -2.25    2.72
 -16  -4   2    4.75    3.75
 -15  -4   2    3.78    3.12
 -14  -4   2   21.82    4.63
 -13  -4   2   -0.60    2.13
 -12  -4   2  133.45    8.22
 -11  -4   2   12.81    3.30
 -10  -4   2  135.60    7.37
  -9  -4   2   61.81    5.08
  -8  -4   2   21.33    3.11
  -7  -4   2  186.30    7.65
  -6  -4   2   23.88    2.81
  -5  -4   2  122.62    5.23
  -4  -4   2  498.95   12.97
  -3  -4   2  101.67    4.31
  -2  -4   2  325.21    8.81
   2   4  -2  326.31    7.82
   1   4  -2    5.53    1.21
  -1  -4   2    3.89    1.24
  -1  -4   2    0.41    1.16
   0  -4   2  375.52   10.15
   0  -4   2  381.23    9.47
  -1   4  -2   71.41    3.67
   1  -4   2   83.16    3.45
   2  -4   2   81.38    3.53
  -2   4  -2   79.46    4.12
  -3   4  -2  129.84    5.73
   3  -4   2  136.19    4.81
  -4   4  -2  825.15   21.56
  -5   4  -2   18.98    2.88
  -6   4  -2   15.68    2.94
  -7   4  -2    3.92    2.22
  -8   4  -2   22.37    3.52
  -9   4  -2   -0.64    2.26
 -10   4  -2   37.15    4.98
 -11   4  -2    6.92    3.54
 -12   4  -2    8.25    3.52
 -13   4  -2   33.67    5.46
 -14   4  -2    9.16    3.96
 -16   4  -2    1.11    3.03
 -17   4  -2    2.60    3.45
 -16  -3   2   10.45    4.19
 -15  -3   2   33.95    5.67
 -14  -3   2   -0.17    2.37
 -13  -3   2  181.79    9.76
 -12  -3   2   25.25    4.39
 -11  -3   2    2.11    2.12
 -10  -3   2   17.92    3.28
  -9  -3   2   40.72    4.19
  -8  -3   2   15.15    2.74
  -7  -3   2   84.61    3.48
  -7  -3   2   80.99    4.67
  -6  -3   2    3.64    1.04
  -6  -3   2    2.49    1.32
  -5  -3   2  159.71    6.15
  -4  -3   2  158.43    5.71
  -3  -3   2    3.75    1.18
  -2  -3   2   38.16    2.47
   1   3  -2   27.75    1.80
  -1  -3   2   29.11    1.97
  -1   3  -2  577.79   14.67
   1  -3   2  592.94   13.33
  -2   3  -2  132.41    5.27
  -2   3  -2  130.96    4.57
   2  -3   2  132.21    4.45
  -3   3  -2   22.73    2.58
  -3   3  -2   23.73    2.28
   3  -3   2   21.26    1.94
  -4   3  -2  214.24    7.92
  -5   3  -2   44.42    3.63
  -6   3  -2  165.59    7.39
  -7   3  -2  138.91    6.95
  -8   3  -2    0.67    2.10
  -9   3  -2    2.59    2.41
 -10   3  -2    2.32    2.50
 -11   3  -2    4.93    3.15
 -12   3  -2   47.85    5.69
 -13   3  -2   10.59    4.07
 -15   3  -2    2.75    2.72
 -16   3  -2    1.46    3.09
 -17   3  -2    8.44    4.08
 -16  -2   2   28.18    5.60
 -15  -2   2   11.55    3.82
 -14  -2   2    7.20    3.17
 -13  -2   2   -0.47    1.88
 -12  -2   2    8.66    2.91
 -11  -2   2   90.36    6.24
 -10  -2   2   11.18    2.76
  -9  -2   2   22.01    3.27
  -8  -2   2    8.04    1.86
  -8  -2   2    6.86    1.95
  -7  -2   2   -1.11    1.12
  -7  -2   2    0.58    1.30
  -6  -2   2  158.11    5.04
  -6  -2   2  159.03    6.28
  -5  -2   2   44.33    2.23
  -5  -2   2   49.57    3.25
  -4  -2   2    9.33    1.61
  -4  -2   2    8.05    0.93
  -3  -2   2  165.83    5.38
  -2  -2   2    5.03    1.18
  -1  -2   2  257.81    6.52
  -1  -2   2  259.86    6.42
   0  -2   2   73.97    2.61
   0  -2   2   66.20    2.35
  -1   2  -2  102.71    4.04
   1  -2   2  105.63    2.92
  -1   2  -2  105.76    3.63
   1  -2   2  111.20    3.48
  -2   2  -2    1.14    1.15
  -2   2  -2    0.72    1.28
   2  -2   2    1.37    1.08
  -3   2  -2  256.92    7.45
  -3   2  -2  267.46    8.47
  -4   2  -2    8.47    1.88
  -4   2  -2    8.38    1.99
  -5   2  -2  129.00    5.30
  -5   2  -2  118.08    5.66
  -6   2  -2   12.27    2.30
  -6   2  -2   11.41    2.40
  -7   2  -2    7.85    2.44
  -8   2  -2  165.29    7.79
  -9   2  -2    0.23    2.21
 -10   2  -2   32.76    4.37
 -11   2  -2  137.09    8.26
 -12   2  -2    3.65    2.99
 -13   2  -2    0.67    1.91
 -14   2  -2   16.79    3.96
 -15   2  -2    7.74    3.51
 -16   2  -2    3.40    3.10
 -17  -1   2   10.79    4.30
 -16  -1   2   30.61    5.77
 -15  -1   2    3.94    2.89
 -14  -1   2   10.25    3.24
 -13  -1   2   27.32    4.50
 -12  -1   2   15.48    3.45
 -11  -1   2   38.82    4.53
 -10  -1   2    0.60    1.54
  -9  -1   2   32.23    3.08
  -9  -1   2   26.65    3.44
  -8  -1   2    3.27    1.64
  -8  -1   2    1.62    1.65
  -7  -1   2   54.00    3.27
  -7  -1   2   56.84    3.72
  -6  -1   2  156.69    5.28
  -6  -1   2  152.96    6.00
  -5  -1   2    1.78    1.10
  -5  -1   2    0.08    0.99
  -4  -1   2  170.28    5.65
  -4  -1   2  176.41    4.91
  -3  -1   2  237.82    6.64
  -3  -1   2  241.87    6.06
  -2  -1   2  319.34    7.69
  -2  -1   2  330.76    7.94
  -1  -1   2   80.89    2.52
  -1  -1   2   78.84    2.58
   0  -1   2    3.14    0.66
   0  -1   2    1.72    0.85
   1  -1   2   66.28    2.94
   1  -1   2   70.08    2.45
   2  -1   2    3.96    1.52
   3  -1   2  193.34    6.50
  -4   1  -2    1.41    1.56
  -4   1  -2    2.61    1.46
  -5   1  -2   34.59    2.89
  -5   1  -2   27.54    2.88
  -6   1  -2   -0.53    1.39
  -6   1  -2    3.24    1.77
  -7   1  -2  179.90    7.01
  -7   1  -2  187.53    7.86
  -8   1  -2   34.04    3.85
  -9   1  -2   50.59    4.71
 -10   1  -2    1.21    2.48
 -11   1  -2    6.21    2.95
 -12   1  -2   13.89    3.48
 -13   1  -2   10.07    2.87
 -14   1  -2    2.09    2.36
 -15   1  -2    7.83    3.43
 -16   1  -2   -1.50    3.10
 -17   0   2    6.30    3.37
 -16   0   2   38.48    5.88
 -15   0   2   13.47    3.90
 -14   0   2   18.21    4.29
 -13   0   2    4.76    2.28
 -12   0   2   31.84    4.43
 -11   0   2   -0.96    1.69
 -10   0   2  322.42   10.80
 -10   0   2  321.04   11.60
  -9   0   2   46.75    4.15
  -9   0   2   51.58    3.98
  -8   0   2  139.23    5.91
  -8   0   2  157.45    6.73
  -7   0   2   18.92    2.56
  -7   0   2   22.27    2.39
  -6   0   2  175.38    6.40
  -6   0   2  165.38    5.81
  -5   0   2   93.65    4.10
  -5   0   2   91.08    3.76
  -4   0   2  440.26   10.85
  -4   0   2  428.79   10.88
  -3   0   2   53.35    2.49
  -3   0   2   47.91    2.45
  -2   0   2  134.97    3.88
  -2   0   2  140.58    3.92
  -1   0   2   85.62    2.38
  -1   0   2   85.03    2.70
   0   0  -2  420.31    9.71
   0   0   2  419.47   10.14
   1   0   2  425.34   10.59
   2   0   2  196.85    6.12
   3   0   2   29.71    2.56
   4   0   2  385.47   10.75
  -5   0  -2   28.82    2.59
  -5   0  -2   27.43    2.79
  -6   0  -2  759.71   18.10
  -6   0  -2  747.75   20.05
  -7   0  -2    1.58    1.59
  -7   0  -2    2.14    1.69
  -8   0  -2    1.57    1.90
  -8   0  -2    5.72    2.22
  -9   0  -2    2.89    2.15
 -10   0  -2   14.41    3.05
 -10   0  -2   20.26    3.57
 -11   0  -2   24.78    3.93
 -12   0  -2   31.21    4.51
 -13   0  -2    0.78    2.24
 -14   0  -2   30.03    5.15
 -15   0  -2    5.09    3.05
 -16   0  -2    0.41    2.93
 -17   1   2    0.85    2.61
 -16   1   2   -3.75    2.13
 -15   1   2    8.98    3.42
 -14   1   2   10.78    3.24
 -13   1   2   39.03    5.03
 -12   1   2   51.58    5.25
 -11   1   2  262.64    9.85
 -11   1   2  236.02   10.12
 -10   1   2   67.98    4.83
 -10   1   2   65.14    5.14
  -9   1   2    1.28    1.46
  -9   1   2   -0.93    1.81
  -8   1   2    0.36    1.27
  -8   1   2    1.24    1.73
  -7   1   2   76.53    4.28
  -7   1   2   76.79    4.19
  -6   1   2  121.41    5.04
  -6   1   2  127.74    5.21
  -5   1   2  598.08   14.99
  -5   1   2  586.07   14.46
  -4   1   2   44.78    2.63
  -4   1   2   42.00    3.07
  -3   1   2  386.90    9.15
  -3   1   2  384.55    9.78
  -2   1   2   27.15    1.31
  -2   1   2   32.18    1.97
   1  -1  -2  241.71    6.05
  -1   1   2  229.29    6.19
  -1   1   2  235.77    5.22
   0   1   2  342.11    8.74
   0  -1  -2  345.97    8.58
   1   1   2 1154.63   26.26
   2   1   2 1085.08   25.19
   3   1   2  126.97    4.69
   4   1   2    4.17    1.03
   5   1   2    0.15    0.50
  -6  -1  -2   15.50    2.24
  -6  -1  -2   10.11    2.18
  -7  -1  -2   15.15    2.47
  -7  -1  -2   16.44    2.43
  -8  -1  -2   29.54    3.17
  -8  -1  -2   30.86    3.58
  -8  -1  -2   28.87    3.34
  -9  -1  -2  156.21    7.44
  -9  -1  -2  149.50    7.48
 -10  -1  -2   28.34    3.87
 -11  -1  -2   65.26    5.75
 -12  -1  -2   16.90    3.70
 -13  -1  -2   -1.51    1.92
 -14  -1  -2    5.96    3.08
 -15  -1  -2    6.16    3.37
 -16  -1  -2    3.23    3.05
 -17   2   2    3.15    3.35
 -16   2   2   27.26    5.20
 -15   2   2   26.52    4.90
 -14   2   2   92.22    6.76
 -13   2   2   57.27    5.78
 -12   2   2    5.33    3.12
 -12   2   2    6.19    2.36
 -11   2   2   15.75    3.22
 -11   2   2    7.53    2.42
 -10   2   2   -1.34    2.13
 -10   2   2   -2.43    1.34
  -9   2   2   48.89    4.08
  -9   2   2   43.98    3.83
  -8   2   2    6.23    2.18
  -7   2   2   42.12    3.41
  -6   2   2  515.54   13.98
  -5   2   2    6.08    1.81
  -4   2   2    1.09    1.64
  -3   2   2   59.89    3.26
  -2   2   2   75.63    3.33
   2  -2  -2   77.98    3.00
   1  -2  -2   21.15    1.63
  -1   2   2   22.75    1.87
   0  -2  -2 5220.93  109.42
   0   2   2 4989.27  111.46
   0  -2  -2 5006.61  103.76
  -1  -2  -2  742.67   15.94
   1   2   2  746.63   17.67
  -1  -2  -2  751.48   18.13
  -3  -2  -2   28.14    2.23
   4   2   2   92.26    4.14
  -4  -2  -2   86.28    4.08
  -5  -2  -2   -0.38    1.05
   5   2   2   -0.65    1.50
   6   2   2    1.98    1.88
  -6  -2  -2    0.18    1.13
  -7  -2  -2   29.11    3.11
  -7  -2  -2   29.76    2.99
  -7  -2  -2   25.17    3.06
  -8  -2  -2   14.16    2.63
  -8  -2  -2    9.10    2.36
  -8  -2  -2   12.65    2.43
  -9  -2  -2   -0.66    1.69
 -10  -2  -2   14.40    3.15
 -11  -2  -2   10.85    2.91
 -12  -2  -2   54.62    5.67
 -13  -2  -2   35.12    5.09
 -14  -2  -2   14.65    3.87
 -15  -2  -2    2.32    2.88
 -18   3   2    2.44    3.20
 -17   3   2   -0.51    2.84
 -16   3   2    7.59    3.25
 -15   3   2    3.40    2.65
 -14   3   2    9.86    3.20
 -13   3   2    6.42    2.68
 -13   3   2   13.07    3.54
 -12   3   2    5.98    2.48
 -12   3   2    6.35    3.01
 -11   3   2   16.02    3.08
 -11   3   2   24.27    3.68
 -10   3   2    4.25    2.41
  -9   3   2   86.83    5.29
  -8   3   2   42.58    3.70
  -7   3   2  556.16   15.58
  -6   3   2  161.62    6.45
  -5   3   2 1013.02   24.61
  -4   3   2 1244.17   29.27
  -3   3   2   45.51    3.49
   2  -3  -2 1539.50   34.56
  -2   3   2 1527.69   34.98
  -1   3   2  841.13   19.61
   1  -3  -2  829.03   17.18
   1  -3  -2  795.27   19.50
   0  -3  -2 1828.82   41.40
   0   3   2 1794.91   41.20
   0  -3  -2 1885.19   37.39
  -1  -3  -2 2480.65   56.36
  -1  -3  -2 2574.98   51.34
   2   3   2    4.68    1.49
  -2  -3  -2    3.71    1.08
  -3  -3  -2   19.88    1.90
   3   3   2   22.93    2.21
  -4  -3  -2  101.09    4.43
   4   3   2  101.92    4.56
  -5  -3  -2   57.11    3.52
   5   3   2   49.69    3.52
  -6  -3  -2   16.93    2.48
   6   3   2   17.87    2.55
  -7  -3  -2  158.24    6.80
  -7  -3  -2  162.34    6.19
  -7  -3  -2  170.78    7.24
  -8  -3  -2   -1.51    1.40
  -9  -3  -2   34.50    4.03
 -10  -3  -2    8.08    2.67
 -11  -3  -2   72.50    6.10
 -12  -3  -2    8.96    2.91
 -13  -3  -2   23.69    4.43
 -15  -3  -2   -7.04    2.16
 -18   4   2    1.06    1.92
 -17   4   2   -2.33    2.43
 -16   4   2    0.07    2.17
 -15   4   2   27.82    4.61
 -14   4   2    4.95    2.40
 -14   4   2    3.88    3.12
 -13   4   2    2.74    2.94
 -13   4   2    2.30    2.26
 -12   4   2   28.27    4.33
 -11   4   2  189.73    8.93
 -10   4   2  160.14    7.86
  -9   4   2   10.62    2.70
  -8   4   2  218.12    8.59
  -7   4   2  384.16   12.07
  -6   4   2    2.64    1.69
  -5   4   2  237.39    8.18
  -4   4   2   51.61    3.73
   3  -4  -2  103.63    4.36
  -3   4   2  104.76    4.62
  -2   4   2  759.01   18.81
   2  -4  -2  770.85   16.03
   2  -4  -2  755.31   18.77
   1  -4  -2 6277.12  135.76
  -1   4   2 6179.98  137.08
   1  -4  -2 6420.95  126.51
   0  -4  -2   47.20    3.29
   0  -4  -2   48.69    1.97
   0   4   2   48.73    3.09
  -1  -4  -2   10.12    1.18
  -1  -4  -2    7.41    1.82
  -2  -4  -2  155.26    4.93
   2   4   2  151.99    5.43
  -2  -4  -2  161.81    6.66
  -3  -4  -2   26.01    2.18
   3   4   2   27.02    2.38
  -4  -4  -2  180.83    6.36
   4   4   2  188.13    6.46
  -5  -4  -2   63.50    3.81
   5   4   2   75.83    4.03
  -6  -4  -2   98.50    5.12
   6   4   2   96.57    4.88
  -7  -4  -2    7.54    2.04
  -8  -4  -2   75.17    5.07
  -9  -4  -2   16.92    3.17
 -10  -4  -2    1.25    1.86
 -11  -4  -2    0.17    1.73
 -12  -4  -2   12.72    3.24
 -13  -4  -2   -0.50    2.22
 -14  -4  -2   40.15    6.05
 -15  -4  -2    3.06    3.40
 -18   5   2    0.06    1.60
 -17   5   2    5.18    3.09
 -16   5   2   12.27    3.46
 -15   5   2    6.73    3.88
 -15   5   2   12.55    3.52
 -14   5   2    4.30    3.34
 -14   5   2    2.05    2.29
 -13   5   2    0.84    2.93
 -12   5   2   12.99    3.73
 -11   5   2    2.63    2.83
 -10   5   2   54.20    5.00
  -9   5   2   13.80    3.11
  -8   5   2   74.42    5.19
  -7   5   2  112.85    5.95
  -6   5   2  277.16    9.40
  -5   5   2   46.05    3.81
  -4   5   2    1.52    1.82
   4  -5  -2    1.55    1.20
  -3   5   2  590.14   15.82
   3  -5  -2  606.22   15.80
  -2   5   2   27.57    2.68
   2  -5  -2   25.30    1.61
   2  -5  -2   27.82    2.55
   1  -5  -2  123.17    5.34
  -1   5   2  123.21    5.14
   1  -5  -2  129.87    3.62
   0   5   2    4.65    1.13
   0  -5  -2    7.69    2.01
   0  -5  -2    9.05    1.10
  -1  -5  -2   27.07    1.82
  -1  -5  -2   24.86    2.90
   1   5   2   23.54    2.20
   2   5   2  200.24    6.51
  -2  -5  -2  184.59    7.81
  -2  -5  -2  190.83    5.83
  -3  -5  -2   41.87    2.74
   3   5   2   39.90    2.98
  -3  -5  -2   39.05    3.93
   4   5   2   71.55    3.96
  -4  -5  -2   74.07    3.85
  -5  -5  -2  120.85    5.42
   5   5   2  126.85    5.41
  -6  -5  -2   48.81    3.88
  -7  -5  -2    6.26    2.10
  -8  -5  -2   68.73    4.94
  -9  -5  -2   -0.85    1.60
 -10  -5  -2    1.26    1.89
 -11  -5  -2   34.10    4.74
 -12  -5  -2    4.88    2.46
 -13  -5  -2   36.84    5.35
 -14  -5  -2    5.64    3.50
 -18   6   2   -2.27    1.37
 -17   6   2   -0.17    2.40
 -16   6   2   10.03    3.96
 -16   6   2   -0.05    2.19
 -15   6   2   15.55    3.91
 -15   6   2   21.98    4.72
 -14   6   2    0.94    3.24
 -13   6   2    2.15    3.11
 -12   6   2   95.49    7.16
 -11   6   2   32.21    4.77
 -10   6   2    1.55    2.83
  -9   6   2    2.31    2.66
  -8   6   2    3.22    2.57
  -7   6   2  252.43    9.49
  -6   6   2    2.30    1.96
  -5   6   2  224.42    8.24
  -4   6   2    3.76    1.99
   4  -6  -2    5.44    1.73
   3  -6  -2   51.28    2.44
  -3   6   2   52.47    3.84
   3  -6  -2   51.94    3.60
  -2   6   2    4.55    1.82
   2  -6  -2    3.36    0.96
   2  -6  -2    2.92    1.45
   1  -6  -2  150.66    6.40
  -1   6   2  142.16    5.75
   1  -6  -2  145.11    4.28
   0  -6  -2   61.63    4.27
   0  -6  -2   67.51    2.80
  -1  -6  -2    6.99    2.07
   1   6   2   12.90    2.05
  -2  -6  -2   15.29    2.79
  -2  -6  -2   15.03    1.73
   2   6   2   19.26    2.31
  -3  -6  -2   10.54    1.70
  -3  -6  -2   14.90    2.95
   3   6   2   10.59    2.04
  -4  -6  -2  114.17    6.91
   4   6   2  132.99    5.41
  -4  -6  -2  131.39    5.36
  -5  -6  -2    8.12    1.99
  -6  -6  -2   -0.54    1.20
  -7  -6  -2   37.47    3.81
  -8  -6  -2   -0.69    1.43
  -9  -6  -2    4.94    2.29
 -10  -6  -2   42.35    4.86
 -11  -6  -2   -2.17    1.92
 -12  -6  -2   16.90    3.69
 -18   7   2    0.98    1.33
 -17   7   2    9.26    3.74
 -17   7   2    6.75    4.61
 -16   7   2   31.56    5.63
 -16   7   2   27.58    4.96
 -15   7   2    3.59    3.55
 -14   7   2   29.75    5.12
 -13   7   2   47.95    5.70
 -12   7   2   -1.15    3.01
 -11   7   2   71.36    6.28
 -10   7   2   59.89    5.68
  -9   7   2    7.76    3.25
  -8   7   2   59.02    5.00
  -7   7   2   32.76    3.79
  -6   7   2    2.50    2.26
  -5   7   2   45.99    4.05
   5  -7  -2   49.65    3.61
  -4   7   2   10.65    2.46
   4  -7  -2    7.34    1.97
   3  -7  -2   17.06    1.63
   3  -7  -2   17.18    2.55
  -3   7   2   16.03    2.67
   2  -7  -2   57.51    4.02
  -2   7   2   54.98    3.88
   2  -7  -2   52.15    2.59
   1  -7  -2    1.36    1.39
  -1   7   2    0.24    1.69
   1  -7  -2    0.23    0.92
   0  -7  -2   45.27    2.47
   0  -7  -2   31.98    3.53
  -1  -7  -2  615.21   18.60
  -1  -7  -2  622.45   14.77
   1   7   2  647.04   16.51
  -2  -7  -2   39.98    2.77
   2   7   2   41.50    3.41
  -2  -7  -2   41.51    4.35
  -3  -7  -2  166.49    6.09
   3   7   2  179.63    6.55
  -3  -7  -2  171.74    8.54
  -4  -7  -2   10.36    1.93
  -4  -7  -2    4.55    2.12
  -5  -7  -2   30.45    3.05
  -5  -7  -2   26.32    4.33
  -6  -7  -2   13.29    2.50
  -6  -7  -2    9.60    3.21
  -7  -7  -2   48.28    4.16
  -8  -7  -2    2.49    1.79
  -9  -7  -2   33.81    4.22
 -18   8   2   -0.90    1.14
 -18   8   2   -8.26    3.89
 -17   8   2    4.07    4.15
 -17   8   2    2.08    3.18
 -16   8   2    0.03    3.46
 -15   8   2   19.58    4.85
 -14   8   2   34.56    5.36
 -13   8   2   21.12    4.57
 -12   8   2    0.54    3.21
 -11   8   2    2.97    3.32
 -10   8   2   28.44    4.58
  -9   8   2   65.52    5.84
  -8   8   2   52.73    5.15
  -7   8   2  194.81    8.73
  -6   8   2   13.97    3.13
  -5   8   2    5.39    2.30
   5  -8  -2    5.01    1.89
   4  -8  -2    7.72    1.43
   4  -8  -2    8.16    2.02
  -4   8   2    9.46    2.56
  -3   8   2   65.89    4.62
   3  -8  -2   52.47    3.95
   3  -8  -2   67.68    3.08
  -2   8   2  180.34    7.25
   2  -8  -2  179.72    5.52
   2  -8  -2  181.48    7.77
  -1   8   2    7.36    2.16
   1  -8  -2    4.06    1.24
   1  -8  -2    1.91    1.73
   0  -8  -2  149.19    7.46
   0  -8  -2  155.63    5.18
   1   8   2   31.18    3.05
  -1  -8  -2   27.44    3.75
   2   8   2  176.35    6.86
  -2  -8  -2  177.98    6.12
  -2  -8  -2  170.74    8.69
  -3  -8  -2   18.05    2.26
  -3  -8  -2   15.70    3.29
  -4  -8  -2    6.07    2.69
  -4  -8  -2    8.18    1.90
  -5  -8  -2   37.10    5.09
  -5  -8  -2   50.45    3.79
  -6  -8  -2   81.76    7.33
  -6  -8  -2   93.62    5.28
  -7  -8  -2   19.59    2.99
  -7  -8  -2   18.67    4.15
  -8  -8  -2   34.18    5.81
  -9  -8  -2    9.48    3.80
 -10  -8  -2    3.15    3.63
 -11  -8  -2    2.99    3.87
 -18   9   2   -2.07    1.41
 -18   9   2    2.26    4.56
 -17   9   2   -3.97    4.18
 -16   9   2    2.51    4.23
 -15   9   2   -2.63    3.22
 -14   9   2    6.28    3.83
 -13   9   2   74.29    7.01
 -12   9   2   20.82    4.76
 -11   9   2   27.68    5.03
 -10   9   2  122.66    8.04
  -9   9   2    2.43    3.07
  -8   9   2  142.50    7.96
  -7   9   2   15.06    3.60
   6  -9  -2    3.75    1.76
  -6   9   2    3.54    2.72
  -5   9   2    2.60    2.58
   5  -9  -2    2.69    1.76
   4  -9  -2   34.83    2.62
   4  -9  -2   35.15    3.73
  -4   9   2   37.10    3.88
   3  -9  -2    2.11    1.61
   3  -9  -2    1.67    1.24
  -3   9   2    0.48    2.20
  -2   9   2   84.24    5.09
   2  -9  -2   73.31    5.08
   2  -9  -2   78.31    3.55
  -1   9   2   49.44    3.93
   1  -9  -2   44.69    4.40
   1  -9  -2   52.18    2.99
   0  -9  -2    7.54    1.62
   0  -9  -2    6.26    2.34
   0   9   2   11.32    2.53
  -1  -9  -2    8.04    2.73
   1   9   2    7.51    2.39
  -1  -9  -2    8.06    1.74
  -2  -9  -2   -0.22    1.88
  -2  -9  -2    1.18    1.42
  -3  -9  -2   36.49    3.05
  -3  -9  -2   35.14    4.92
  -4  -9  -2    6.10    2.56
  -5  -9  -2   25.27    4.84
  -6  -9  -2    5.69    2.90
  -7  -9  -2   33.71    5.77
  -8  -9  -2   -1.28    2.36
  -9  -9  -2    1.64    2.90
 -10  -9  -2   -3.71    2.76
 -11  -9  -2    7.37    4.67
 -19  10   2   12.61    6.60
 -18  10   2   -3.85    4.35
 -17  10   2    7.10    4.91
 -16  10   2    8.28    4.43
 -15  10   2   24.17    5.54
 -14  10   2   13.79    4.83
 -13  10   2   37.48    5.76
 -12  10   2    0.65    3.44
 -11  10   2    5.19    3.78
 -10  10   2   59.19    6.17
  -9  10   2   36.74    5.06
  -8  10   2   -0.77    2.73
  -7  10   2   18.59    3.96
   6 -10  -2   -0.65    1.38
  -6  10   2    4.26    2.93
  -5  10   2   60.33    5.24
   5 -10  -2   57.23    4.87
  -4  10   2   33.02    4.02
   4 -10  -2   33.58    2.64
   4 -10  -2   29.06    3.70
   3 -10  -2  379.99   10.19
  -3  10   2  387.43   12.86
   3 -10  -2  385.09   13.34
   2 -10  -2   -0.39    1.29
  -2  10   2    0.09    2.42
   2 -10  -2    0.31    1.33
   1 -10  -2   31.01    4.04
   0  10   2   66.82    5.04
   0 -10  -2   53.87    5.29
   1  10   2    1.03    2.23
  -1 -10  -2   -0.48    1.47
  -2 -10  -2   16.12    3.58
  -3 -10  -2   68.29    6.65
  -4 -10  -2   51.19    6.34
  -5 -10  -2    6.93    3.31
  -6 -10  -2    2.76    2.86
  -7 -10  -2    3.14    3.24
  -8 -10  -2   27.61    5.85
  -9 -10  -2    5.61    3.99
 -10 -10  -2    4.53    4.28
 -18  11   2    3.76    5.11
 -17  11   2    0.56    4.49
 -16  11   2   19.53    5.44
 -15  11   2    8.02    4.38
 -14  11   2   52.71    6.75
 -13  11   2    4.29    3.73
 -12  11   2   10.81    4.05
 -11  11   2    1.10    3.18
 -10  11   2    0.50    2.98
  -9  11   2    3.42    3.60
  -8  11   2   11.26    4.00
   7 -11  -2   44.96    4.68
  -7  11   2   51.97    5.52
  -6  11   2   -2.10    2.91
   6 -11  -2    1.68    1.80
   5 -11  -2   60.11    3.69
  -5  11   2   64.49    5.65
   5 -11  -2   60.51    5.23
  -4  11   2   13.61    3.47
   4 -11  -2   12.97    2.08
   4 -11  -2    9.65    2.71
   3 -11  -2   -2.08    1.24
  -3  11   2    3.61    2.91
   2 -11  -2   -0.88    1.62
  -2  11   2    1.29    2.61
   1 -11  -2    4.79    2.15
  -1  11   2    2.05    0.79
   0  11   2    4.04    2.55
   0 -11  -2    0.39    1.87
  -1 -11  -2   91.59    6.92
  -2 -11  -2   19.03    4.30
  -3 -11  -2   84.77    7.58
  -4 -11  -2    1.82    2.67
  -5 -11  -2    8.10    3.51
  -6 -11  -2    0.29    2.51
  -7 -11  -2    0.49    3.19
  -8 -11  -2    2.71    3.49
  -9 -11  -2    7.87    4.43
 -18  12   2    7.25    5.76
 -17  12   2    1.29    4.68
 -16  12   2   -6.26    4.04
 -15  12   2   17.44    5.33
 -14  12   2    2.39    3.81
 -13  12   2   18.42    4.98
 -12  12   2   66.24    7.05
 -11  12   2   33.67    5.57
 -10  12   2    4.71    3.64
  -9  12   2    7.60    3.80
  -8  12   2   19.03    4.45
   7 -12  -2   44.08    4.86
  -7  12   2   36.35    5.23
   6 -12  -2   66.36    5.80
  -6  12   2   75.14    6.48
   5 -12  -2    3.92    2.26
  -5  12   2    2.27    3.28
  -4  12   2    0.83    2.92
   4 -12  -2   -0.64    1.36
   3 -12  -2    0.62    1.68
  -3  12   2    4.29    2.86
  -2  12   2    2.31    2.85
   2 -12  -2    4.02    2.25
  -1  12   2   10.97    3.04
   1 -12  -2   15.97    3.50
   0 -12  -2   11.35    3.35
  -1 -12  -2   22.75    4.49
  -2 -12  -2   39.90    5.81
  -3 -12  -2   -4.19    1.97
  -4 -12  -2   21.05    4.76
  -5 -12  -2   -0.43    2.66
  -6 -12  -2   14.51    4.60
  -7 -12  -2   16.37    5.26
  -8 -12  -2   22.08    6.18
 -17  13   2   -2.74    4.28
 -16  13   2   10.63    5.01
 -15  13   2    2.48    4.13
 -14  13   2    5.71    3.76
 -13  13   2   11.49    4.35
 -12  13   2   17.51    5.01
 -11  13   2    1.34    3.45
 -10  13   2   70.46    6.95
  -9  13   2   -3.64    2.90
  -8  13   2   72.38    6.78
   7 -13  -2    0.83    2.16
  -7  13   2    3.74    3.45
   6 -13  -2    0.98    2.16
  -6  13   2    1.18    3.52
   5 -13  -2    3.65    2.34
  -5  13   2    8.07    3.60
  -4  13   2   55.02    5.47
   4 -13  -2   61.56    5.88
  -3  13   2   19.91    3.71
   3 -13  -2   10.65    2.95
   2 -13  -2   11.25    3.19
  -2  13   2   17.58    3.32
   1 -13  -2   31.22    4.74
   0 -13  -2  100.02    7.38
  -1 -13  -2   -1.64    1.97
  -2 -13  -2    2.46    2.46
  -3 -13  -2    1.33    2.65
  -4 -13  -2   27.58    5.91
  -5 -13  -2   13.40    4.58
  -6 -13  -2   -4.05    1.29
  -7 -13  -2   -3.19    1.99
 -17  14   2   27.92    6.91
 -16  14   2    1.30    4.40
 -15  14   2    4.39    4.33
 -14  14   2   -2.86    3.82
 -13  14   2   25.54    5.81
 -12  14   2   10.16    4.35
 -11  14   2  100.82    8.29
 -10  14   2   10.84    4.25
  -9  14   2   28.30    5.30
   8 -14  -2    4.45    2.73
  -8  14   2    3.82    3.85
  -7  14   2   22.74    4.63
   7 -14  -2   23.76    4.36
  -6  14   2   11.39    3.90
   6 -14  -2    8.42    3.04
   5 -14  -2  228.72   11.10
  -5  14   2  226.03   10.75
  -4  14   2    3.88    3.08
   4 -14  -2    3.18    2.46
  -3  14   2   65.36    5.65
   3 -14  -2   68.31    6.50
   2 -14  -2   -1.23    2.01
   1 -14  -2    1.98    2.24
   0 -14  -2    1.42    2.34
  -1 -14  -2   10.73    3.82
  -2 -14  -2   -0.13    2.40
  -3 -14  -2   -2.18    2.55
  -4 -14  -2    1.73    2.74
  -5 -14  -2   -2.44    1.35
  -6 -14  -2    1.30    2.33
 -16  15   2   -5.48    4.08
 -15  15   2    4.36    4.80
 -14  15   2    1.19    4.35
 -13  15   2    1.33    4.17
 -12  15   2    5.47    4.48
 -11  15   2    3.22    3.91
 -10  15   2   -4.65    3.25
  -9  15   2   11.72    4.37
   8 -15  -2   17.47    3.99
  -8  15   2   26.38    5.12
   7 -15  -2    3.42    2.99
  -7  15   2    4.61    3.68
   6 -15  -2   49.62    5.95
  -6  15   2   61.83    6.28
  -5  15   2   -0.37    2.95
   5 -15  -2    0.71    2.38
  -4  15   2   15.59    4.04
   4 -15  -2   14.73    3.75
   3 -15  -2    0.97    2.34
   2 -15  -2    6.41    2.99
   1 -15  -2    6.32    2.99
   0 -15  -2    1.23    2.59
  -1 -15  -2    8.89    3.51
  -2 -15  -2    5.77    3.30
  -3 -15  -2    1.96    2.43
  -4 -15  -2   -2.04    1.58
 -15  16   2   -0.23    2.52
 -14  16   2   -1.88    1.78
 -13  16   2   -0.42    4.41
 -12  16   2   10.45    5.11
 -11  16   2    3.69    4.03
 -10  16   2    1.64    3.82
  -9  16   2   -0.56    3.74
  -8  16   2    3.34    4.20
   8 -16  -2    5.83    3.14
   7 -16  -2   57.05    6.59
  -7  16   2   62.58    6.64
  -6  16   2   -5.46    3.14
   6 -16  -2    5.36    3.08
  -5  16   2   24.16    4.81
   5 -16  -2   33.98    5.49
   4 -16  -2    2.16    2.72
   3 -16  -2    4.15    2.80
   2 -16  -2    3.68    2.81
   1 -16  -2    0.33    2.50
   0 -16  -2    3.24    2.95
  -1 -16  -2    5.58    3.03
  -2 -16  -2    1.21    1.38
  -3 -16  -2   -2.88    1.80
 -14  17   2   -2.89    2.34
 -13  17   2   -3.52    1.91
 -12  17   2   -2.95    3.90
 -11  17   2   -0.38    4.08
 -10  17   2   30.48    6.42
  -9  17   2    6.62    4.20
   8 -17  -2   28.59    5.53
  -8  17   2   35.24    6.00
  -7  17   2   19.94    5.23
   7 -17  -2   12.18    4.01
   6 -17  -2   82.61    7.92
   5 -17  -2    0.28    2.45
   4 -17  -2    1.21    2.83
   3 -17  -2    4.59    3.17
   2 -17  -2    1.47    2.84
   1 -17  -2    1.98    2.47
   0 -17  -2   -1.86    1.19
  -1 -17  -2   -0.51    1.69
 -13  18   2   -1.92    2.73
 -12  18   2   -4.63    3.16
 -11  18   2   12.86    5.25
 -10  18   2    5.48    4.34
  -9  18   2   22.13    5.66
   8 -18  -2    9.25    4.02
  -8  18   2   13.38    4.91
   7 -18  -2   48.22    6.78
   6 -18  -2   10.13    3.90
   5 -18  -2    6.64    3.77
   4 -18  -2    4.23    3.32
   3 -18  -2    7.92    2.95
   2 -18  -2   -0.76    1.46
   1 -18  -2    1.93    2.20
 -11  19   2    2.23    5.25
 -10  19   2    0.99    3.94
  -9  19   2    4.54    4.43
   8 -19  -2    1.80    2.94
   7 -19  -2    5.97    3.51
   6 -19  -2   -2.07    3.22
   5 -19  -2    5.20    4.00
   4 -19  -2    9.22    4.97
   3 -19  -2    5.16    5.01
   0 -19   3    7.44    5.26
   1 -19   3   -2.17    3.47
   2 -19   3   18.69    4.69
  -9  19  -3   10.04    4.99
 -10  19  -3   -0.36    4.66
  -2 -18   3    4.11    4.41
  -1 -18   3    5.34    3.50
   0 -18   3    0.79    3.05
   1 -18   3    7.69    3.86
   2 -18   3    8.85    4.00
   3 -18   3    2.32    3.49
   4 -18   3    1.21    3.38
  -8  18  -3    1.78    4.02
  -9  18  -3    5.08    4.83
 -10  18  -3   11.17    5.17
 -11  18  -3    1.61    4.78
 -12  18  -3    2.69    5.32
  -3 -17   3   28.42    5.83
  -2 -17   3    0.93    2.54
  -1 -17   3    2.61    2.76
   0 -17   3    0.63    2.63
   1 -17   3    3.06    3.21
   2 -17   3   11.04    4.12
   3 -17   3   31.67    5.33
   4 -17   3   -0.79    2.86
   5 -17   3   15.77    4.30
  -7  17  -3   20.00    5.17
  -8  17  -3   -1.13    3.53
  -9  17  -3   12.34    4.92
 -10  17  -3    0.88    4.14
 -11  17  -3    8.17    4.86
 -12  17  -3   -3.23    2.23
 -13  17  -3   -3.67    2.44
  -5 -16   3    6.86    5.03
  -4 -16   3   -1.03    2.21
  -3 -16   3    7.76    3.67
  -2 -16   3   41.70    6.77
  -1 -16   3   15.61    4.27
   0 -16   3   13.03    4.22
   1 -16   3   19.08    4.30
   2 -16   3   80.24    7.29
   3 -16   3   29.07    5.07
   4 -16   3    1.53    2.43
   5 -16   3    0.14    2.60
   6 -16   3   17.04    4.04
  -6  16  -3   11.27    4.28
  -7  16  -3   -4.94    3.37
  -8  16  -3   20.25    5.16
  -9  16  -3   -1.41    3.56
 -10  16  -3    2.41    4.13
 -11  16  -3    3.25    4.51
 -12  16  -3    0.43    4.21
 -13  16  -3   -4.71    2.05
  -6 -15   3   -0.73    3.14
  -5 -15   3   -5.95    2.37
  -4 -15   3    0.47    2.71
  -3 -15   3   71.04    7.85
  -2 -15   3   14.43    3.97
  -1 -15   3   15.97    4.14
   0 -15   3   38.74    5.55
   1 -15   3   10.63    3.39
   2 -15   3    6.67    2.94
   3 -15   3    8.95    3.21
   4 -15   3    1.29    2.57
  -4  15  -3    3.57    3.33
  -5  15  -3    1.72    3.43
   5 -15   3    0.59    2.53
   5 -15   3    1.66    2.39
  -6  15  -3   17.33    4.43
   6 -15   3   20.58    3.79
   6 -15   3   30.78    4.65
  -7  15  -3   11.61    4.44
   7 -15   3   23.42    4.03
  -8  15  -3   20.24    5.05
  -9  15  -3   -1.95    3.34
 -10  15  -3   -4.26    3.27
 -11  15  -3    1.11    4.08
 -12  15  -3   26.35    6.41
 -13  15  -3   -3.93    3.13
 -14  15  -3   -2.74    2.12
  -7 -14   3   -1.79    1.46
  -6 -14   3    0.88    2.86
  -5 -14   3   75.75    8.24
  -4 -14   3   17.11    4.65
  -3 -14   3    3.38    2.94
  -2 -14   3    3.13    2.73
  -1 -14   3    6.05    3.24
   0 -14   3   20.12    4.14
   1 -14   3   70.99    6.45
   1 -14   3   58.78    5.02
   2 -14   3   59.34    4.86
   2 -14   3   63.13    5.94
   3 -14   3    5.38    2.62
  -3  14  -3    2.50    3.12
   3 -14   3    6.22    2.38
   4 -14   3    0.45    2.14
  -4  14  -3   -1.79    2.92
   4 -14   3   -1.92    1.81
   5 -14   3    0.62    2.13
   5 -14   3    3.66    2.54
  -5  14  -3    1.54    3.31
   6 -14   3    3.32    2.43
  -6  14  -3    1.07    3.25
   6 -14   3    0.57    2.17
   7 -14   3   24.20    3.97
  -7  14  -3   29.77    5.09
  -8  14  -3    4.63    3.70
  -9  14  -3   13.58    4.67
 -10  14  -3    0.82    3.52
 -11  14  -3    4.73    4.35
 -12  14  -3   17.29    5.49
 -13  14  -3    4.89    4.72
 -14  14  -3    4.04    4.81
 -15  14  -3    2.02    4.90
  -8 -13   3   -1.48    1.32
  -7 -13   3    4.79    3.43
  -6 -13   3    5.54    3.37
  -5 -13   3   27.11    5.59
  -4 -13   3    3.98    2.95
  -3 -13   3   38.11    5.65
  -2 -13   3    0.73    2.09
  -2 -13   3    6.92    2.95
  -1 -13   3   -1.95    1.83
  -1 -13   3    3.92    2.29
   0 -13   3   25.14    4.20
   0 -13   3   21.34    3.34
   1 -13   3   14.58    3.22
   1 -13   3   19.73    3.35
   2 -13   3    2.20    2.13
   2 -13   3    2.49    2.09
  -2  13  -3   -0.23    1.10
   3 -13   3    7.15    2.42
  -3  13  -3   11.96    3.59
   3 -13   3    7.79    2.67
   4 -13   3   10.49    2.76
  -4  13  -3   13.11    3.82
   4 -13   3    4.97    2.34
   5 -13   3    0.38    1.90
   5 -13   3   -0.95    1.96
  -5  13  -3    0.53    3.13
   6 -13   3   12.95    3.09
  -6  13  -3   11.65    3.97
   6 -13   3    6.42    2.59
   7 -13   3   53.65    4.86
  -7  13  -3   42.25    5.82
  -8  13  -3    3.32    3.38
  -9  13  -3   24.76    5.25
 -10  13  -3    2.80    3.58
 -11  13  -3   23.48    5.33
 -12  13  -3   10.31    4.76
 -13  13  -3    5.48    4.22
 -14  13  -3    4.03    4.62
 -15  13  -3   -2.40    4.56
 -16  13  -3   -5.05    4.80
  -9 -12   3    1.81    1.52
  -8 -12   3   18.60    5.00
  -7 -12   3    5.31    3.40
  -6 -12   3   23.14    5.03
  -5 -12   3   29.52    4.08
  -5 -12   3   36.65    5.69
  -4 -12   3   25.72    3.73
  -4 -12   3   29.09    5.36
  -3 -12   3   35.63    4.03
  -3 -12   3   33.11    5.11
  -2 -12   3    6.20    2.43
  -2 -12   3    3.89    2.55
  -1 -12   3   16.17    3.63
  -1 -12   3   20.99    3.31
   0 -12   3   56.50    4.54
   0 -12   3   57.18    5.48
   1 -12   3    1.85    2.03
   1 -12   3    1.55    1.80
  -2  12  -3    2.05    1.94
   2 -12   3    4.81    2.28
   2 -12   3    1.24    1.90
  -3  12  -3   73.79    5.78
   3 -12   3   68.29    5.08
   3 -12   3   63.71    4.66
   4 -12   3    0.55    1.76
  -4  12  -3    1.42    2.89
   4 -12   3   -2.29    1.59
   5 -12   3    2.09    2.07
   5 -12   3   -0.83    1.95
  -5  12  -3    0.52    2.94
   6 -12   3   34.24    4.05
  -6  12  -3   35.94    5.17
   6 -12   3   30.08    3.81
  -7  12  -3  137.89    8.81
  -8  12  -3   42.19    5.76
  -9  12  -3    4.90    3.16
 -10  12  -3  124.31    8.94
 -11  12  -3   11.42    4.53
 -12  12  -3    0.43    3.91
 -13  12  -3   -3.04    3.79
 -14  12  -3   -0.15    4.07
 -15  12  -3   -2.52    4.22
 -16  12  -3   11.77    5.91
 -10 -11   3    1.81    1.35
  -9 -11   3    4.14    3.15
  -8 -11   3    8.73    3.75
  -8 -11   3   20.19    3.74
  -7 -11   3   -0.64    2.24
  -7 -11   3   -0.69    1.83
  -6 -11   3   12.18    2.91
  -6 -11   3   14.78    3.85
  -5 -11   3    4.77    2.91
  -5 -11   3   12.44    2.73
  -4 -11   3    0.27    1.74
  -4 -11   3   -4.24    1.87
  -3 -11   3    0.07    2.09
  -3 -11   3    7.19    2.31
  -2 -11   3   88.52    5.38
  -2 -11   3   76.29    6.07
  -1 -11   3   13.79    2.79
  -1 -11   3    7.02    2.56
   0 -11   3  236.44   10.14
   0 -11   3  241.17    8.87
   1 -11   3   41.10    3.84
  -1  11  -3   43.47    4.07
   1 -11   3   28.96    3.83
   2 -11   3   52.10    4.54
  -2  11  -3   59.02    4.93
   2 -11   3   58.79    4.28
   3 -11   3   32.37    3.68
  -3  11  -3   35.05    4.17
   3 -11   3   25.78    3.20
   4 -11   3    6.42    2.19
  -4  11  -3    4.53    3.21
   4 -11   3    2.30    1.79
  -5  11  -3    1.31    2.94
   5 -11   3    4.28    2.10
   5 -11   3    1.20    2.00
   6 -11   3  220.06    8.79
  -6  11  -3  220.07   10.61
  -7  11  -3  204.13   10.57
  -8  11  -3   34.40    5.38
  -9  11  -3   -1.66    2.96
 -10  11  -3   51.69    6.43
 -11  11  -3   14.37    4.53
 -12  11  -3   29.60    6.24
 -13  11  -3   14.24    5.20
 -14  11  -3   11.02    5.14
 -15  11  -3   18.61    6.13
 -16  11  -3   17.96    6.23
 -17  11  -3   10.94    6.07
 -11 -10   3   27.52    4.88
 -10 -10   3   -1.74    1.96
 -10 -10   3    3.92    2.91
  -9 -10   3    3.56    2.82
  -9 -10   3    0.01    2.14
  -8 -10   3   17.20    3.39
  -8 -10   3   23.76    4.97
  -7 -10   3    0.52    1.81
  -7 -10   3    5.17    2.82
  -6 -10   3    6.78    2.92
  -6 -10   3    8.77    2.52
  -5 -10   3  131.54    6.63
  -5 -10   3  110.80    7.75
  -4 -10   3   47.83    4.19
  -4 -10   3   42.61    5.30
  -3 -10   3  166.27    7.38
  -3 -10   3  162.62    8.88
  -2 -10   3    0.32    1.84
  -2 -10   3    1.09    1.76
  -1 -10   3  162.46    8.28
  -1 -10   3  181.17    7.35
   0 -10   3   24.29    3.05
   0 -10   3   21.03    3.41
   0  10  -3   21.36    2.89
   1 -10   3    7.12    2.09
   1 -10   3    6.38    2.08
  -1  10  -3    8.94    2.43
  -2  10  -3  152.63    7.21
   2 -10   3  160.29    7.18
   2 -10   3  143.96    6.38
  -3  10  -3   47.36    4.61
   3 -10   3   57.52    4.05
   3 -10   3   54.56    4.10
  -4  10  -3   40.39    4.51
   4 -10   3   37.46    3.61
   4 -10   3   35.23    3.51
   5 -10   3  161.60    7.14
  -5  10  -3  157.62    8.46
   5 -10   3  179.57    7.30
  -6  10  -3  159.80    8.67
   6 -10   3  140.72    6.76
  -7  10  -3   14.45    3.93
  -8  10  -3   17.80    4.24
  -9  10  -3   32.35    5.41
 -10  10  -3   -0.64    2.77
 -11  10  -3   17.56    4.94
 -12  10  -3   23.75    5.55
 -13  10  -3    2.18    3.92
 -14  10  -3   12.99    5.39
 -15  10  -3   -3.26    3.89
 -16  10  -3   -3.45    4.49
 -17  10  -3   -0.24    4.74
 -13  -9   3    3.40    3.80
 -12  -9   3   41.95    5.64
 -11  -9   3    2.70    2.37
 -10  -9   3    3.10    2.24
  -9  -9   3    1.73    2.10
  -8  -9   3    1.67    1.88
  -7  -9   3   16.11    3.14
  -6  -9   3   82.63    5.26
  -6  -9   3   81.35    6.55
  -5  -9   3   11.88    2.63
  -5  -9   3   19.33    3.76
  -4  -9   3  103.35    6.87
  -4  -9   3  119.80    5.95
  -3  -9   3   19.81    2.86
  -3  -9   3   10.87    2.95
  -2  -9   3    1.84    1.80
  -2  -9   3    1.50    1.53
   1   9  -3    2.82    1.76
  -1  -9   3    2.44    1.61
  -1  -9   3    2.47    1.71
   0  -9   3    0.59    1.54
   0   9  -3    3.10    1.93
   0  -9   3    3.15    1.68
   1  -9   3    5.82    1.90
  -1   9  -3    0.48    1.02
   1  -9   3    1.69    1.57
  -2   9  -3    1.20    2.07
   2  -9   3   -1.03    1.16
   2  -9   3    2.68    1.67
  -3   9  -3  297.42   10.92
   3  -9   3  303.66    9.70
   3  -9   3  326.60   10.45
   4  -9   3  339.96   10.89
   4  -9   3  332.07   10.45
  -4   9  -3  338.34   12.16
   5  -9   3  166.97    6.99
  -5   9  -3  174.65    8.59
  -6   9  -3    1.97    2.54
   6  -9   3    2.50    2.08
  -7   9  -3   81.78    6.46
  -8   9  -3   27.53    4.54
  -9   9  -3   40.63    5.52
 -10   9  -3    2.91    3.43
 -12   9  -3    2.32    3.70
 -13   9  -3   41.17    6.58
 -14   9  -3   -4.61    3.24
 -15   9  -3    2.61    4.17
 -16   9  -3    2.73    4.66
 -17   9  -3   -9.69    4.35
 -14  -8   3   -2.04    3.52
 -13  -8   3   -2.26    2.35
 -12  -8   3    3.59    2.64
 -11  -8   3   14.78    3.48
 -10  -8   3   14.08    3.15
  -9  -8   3   11.63    2.86
  -8  -8   3    8.41    2.49
  -7  -8   3  178.32    7.91
  -6  -8   3   32.83    3.61
  -5  -8   3  115.83    5.89
  -4  -8   3   -0.66    1.36
  -4  -8   3    1.85    1.86
  -3  -8   3   -1.68    1.35
  -3  -8   3   -0.88    1.24
  -2  -8   3   38.23    3.29
   2   8  -3   36.45    2.77
  -2  -8   3   36.94    3.94
  -1  -8   3    1.54    1.50
   1   8  -3    1.29    1.62
  -1  -8   3    2.33    1.42
   0  -8   3   54.09    3.94
   0   8  -3   47.92    3.58
   0  -8   3   48.74    3.41
   1  -8   3  241.23    8.56
   1  -8   3  242.59    7.94
  -2   8  -3   45.67    3.84
   2  -8   3   46.22    3.38
   2  -8   3   44.91    3.23
  -3   8  -3  446.18   13.91
   3  -8   3  432.92   12.20
   3  -8   3  450.56   12.86
  -4   8  -3   12.01    2.87
   4  -8   3   10.53    2.20
   4  -8   3   10.73    2.01
  -5   8  -3   65.95    5.05
   5  -8   3   69.01    4.14
  -6   8  -3    1.81    2.34
  -7   8  -3   -0.37    2.38
  -8   8  -3  269.04   11.72
  -9   8  -3   38.38    5.25
 -10   8  -3   48.03    6.07
 -11   8  -3   11.97    4.32
 -12   8  -3   14.28    4.19
 -13   8  -3   14.36    4.86
 -14   8  -3    3.73    4.12
 -15   8  -3    9.62    4.75
 -17   8  -3    4.05    5.59
 -14  -7   3    1.27    2.98
 -12  -7   3    6.92    3.00
 -11  -7   3    1.09    2.13
 -10  -7   3   26.66    4.02
  -9  -7   3    5.23    2.28
  -8  -7   3   70.57    5.04
  -7  -7   3    4.85    2.03
  -6  -7   3   74.88    4.82
  -5  -7   3   11.18    2.33
  -4  -7   3   53.48    3.74
  -3  -7   3   65.00    4.74
  -3  -7   3   58.26    3.83
   3   7  -3   58.74    2.57
  -2  -7   3  243.84    8.01
   2   7  -3  242.71    6.91
  -2  -7   3  251.70    9.35
  -1  -7   3   53.40    3.89
   1   7  -3   57.81    3.24
  -1  -7   3   46.23    3.30
   0   7  -3  890.04   22.06
   0  -7   3  909.14   22.92
   0  -7   3  888.69   20.98
  -1   7  -3   25.93    2.65
   1  -7   3   37.38    2.71
   1  -7   3   17.21    2.26
   2  -7   3  159.18    5.94
   2  -7   3  152.37    5.76
  -2   7  -3  156.24    6.61
   3  -7   3  113.62    4.77
  -3   7  -3  113.40    5.70
   3  -7   3   80.21    4.13
   4  -7   3    6.44    1.90
  -4   7  -3    4.82    2.22
   5  -7   3    3.69    1.61
  -5   7  -3    4.59    2.17
  -6   7  -3  200.70    9.07
  -7   7  -3   36.34    4.63
  -8   7  -3  369.44   14.10
  -9   7  -3   -2.64    2.64
 -10   7  -3    7.63    3.60
 -11   7  -3    2.45    3.24
 -12   7  -3    8.23    4.07
 -13   7  -3   -0.07    3.22
 -14   7  -3   10.87    4.90
 -15   7  -3   10.00    4.87
 -16   7  -3    2.22    4.79
 -17   7  -3   -2.58    4.72
 -15  -6   3   -0.59    2.90
 -14  -6   3    5.89    3.29
 -13  -6   3    4.97    3.04
 -12  -6   3    1.07    2.33
 -11  -6   3    6.10    2.50
 -10  -6   3   27.15    4.04
  -9  -6   3   85.19    5.63
  -8  -6   3    6.08    2.17
  -7  -6   3   11.40    2.49
  -6  -6   3    1.38    1.57
  -5  -6   3    1.70    1.38
  -4  -6   3   60.51    3.82
  -3  -6   3   60.84    3.68
   2   6  -3   34.61    2.26
  -2  -6   3   32.56    2.67
  -2  -6   3   37.49    3.40
  -1  -6   3  475.26   13.60
  -1  -6   3  473.41   12.33
   1   6  -3  470.21   12.17
   0  -6   3  146.11    5.48
   0  -6   3  159.32    5.99
   0   6  -3  151.55    5.55
   1  -6   3    2.26    1.22
  -1   6  -3    1.71    1.42
   1  -6   3   -0.57    0.84
  -2   6  -3  313.18   10.25
   2  -6   3  320.64    9.13
   3  -6   3    0.54    1.29
  -3   6  -3    2.54    1.77
   3  -6   3   -0.16    0.60
   4  -6   3    9.87    1.98
  -4   6  -3   10.60    2.52
  -5   6  -3   28.44    3.59
  -6   6  -3   93.08    6.04
  -7   6  -3   25.32    4.00
  -8   6  -3    4.66    2.63
  -9   6  -3   28.02    4.70
 -10   6  -3   -0.45    2.69
 -11   6  -3   47.81    5.98
 -12   6  -3    1.18    3.03
 -13   6  -3   30.81    5.79
 -14   6  -3   -0.68    3.35
 -15   6  -3    4.36    4.59
 -16   6  -3   15.19    5.56
 -15  -5   3   -1.59    2.53
 -14  -5   3   39.17    5.78
 -13  -5   3    9.03    3.26
 -12  -5   3    6.54    2.81
 -11  -5   3   65.41    5.83
 -10  -5   3    1.43    1.89
  -9  -5   3   -0.58    1.59
  -8  -5   3    2.04    1.55
  -7  -5   3   -1.71    1.24
  -6  -5   3    1.10    1.38
  -5  -5   3   12.22    2.20
  -4  -5   3   69.99    3.92
  -3  -5   3   71.05    3.84
  -2  -5   3  303.34    8.85
   2   5  -3  309.23    7.83
  -1  -5   3    3.07    1.23
   1   5  -3    2.78    1.22
  -1  -5   3   -0.05    1.14
   0   5  -3   -0.74    0.94
   0  -5   3    1.28    1.20
   0  -5   3    0.82    0.95
   1  -5   3    1.22    1.21
   1  -5   3   -0.51    0.58
  -1   5  -3    0.82    1.46
  -2   5  -3   52.87    3.72
   2  -5   3   52.53    2.77
   2  -5   3   55.04    3.22
   3  -5   3   55.96    3.23
  -3   5  -3   53.74    4.00
  -4   5  -3    4.68    2.11
   4  -5   3    2.66    1.53
  -5   5  -3   39.69    3.87
  -6   5  -3   14.18    3.13
  -7   5  -3    3.38    2.11
  -8   5  -3    4.98    2.69
  -9   5  -3    0.38    2.18
 -10   5  -3    3.97    3.12
 -11   5  -3   16.72    4.37
 -12   5  -3   26.98    5.12
 -13   5  -3   19.83    4.71
 -14   5  -3   11.47    4.56
 -15   5  -3   -6.29    3.39
 -17   5  -3    3.38    3.61
 -16  -4   3    9.94    4.13
 -15  -4   3    5.84    3.44
 -14  -4   3    0.73    2.53
 -13  -4   3   41.48    5.52
 -12  -4   3    2.19    2.10
 -11  -4   3   -0.84    1.83
 -10  -4   3   66.31    5.12
  -9  -4   3   26.77    3.70
  -8  -4   3   57.41    4.62
  -7  -4   3   69.87    4.52
  -6  -4   3    0.66    1.27
  -5  -4   3   29.91    2.79
  -4  -4   3   46.40    3.18
  -3  -4   3  137.37    5.17
   2   4  -3    0.74    0.97
  -2  -4   3    1.26    1.17
  -1  -4   3   68.97    3.44
  -1  -4   3   67.07    3.23
   1   4  -3   68.46    3.03
  -1   4  -3   94.88    4.46
  -1   4  -3  103.79    4.09
   1  -4   3  100.52    4.04
   1  -4   3  101.89    3.61
   2  -4   3  195.10    5.53
  -2   4  -3  182.45    6.17
   2  -4   3  199.10    6.16
  -2   4  -3  195.81    7.11
  -3   4  -3  612.67   16.74
  -3   4  -3  594.92   14.91
   3  -4   3  612.17   14.63
  -4   4  -3  160.68    6.99
  -4   4  -3  159.06    6.24
  -5   4  -3   43.39    4.03
  -6   4  -3   37.51    4.05
  -7   4  -3   25.59    3.73
  -8   4  -3    4.98    2.57
  -9   4  -3   96.22    6.71
 -10   4  -3   53.89    5.57
 -11   4  -3    7.01    3.60
 -12   4  -3   16.23    4.28
 -13   4  -3  102.70    8.07
 -14   4  -3    0.48    3.47
 -16   4  -3   10.65    3.98
 -16  -3   3    8.33    3.81
 -15  -3   3    0.82    2.50
 -14  -3   3   25.92    4.83
 -13  -3   3   52.24    5.83
 -12  -3   3   29.83    4.51
 -11  -3   3   77.07    5.79
 -10  -3   3    4.64    2.21
  -9  -3   3    6.40    2.28
  -8  -3   3   47.15    4.07
  -7  -3   3    4.50    1.70
  -6  -3   3    8.14    1.84
  -5  -3   3    2.62    1.38
  -4  -3   3    5.57    1.41
  -3  -3   3    9.33    1.61
  -2  -3   3    3.41    1.18
   2   3  -3    0.83    0.84
   2   3  -3    2.88    0.80
  -1  -3   3 1743.70   36.61
   1   3  -3 1760.15   35.13
   0  -3   3    0.67    0.83
   0  -3   3    0.65    1.04
   0   3  -3   -0.39    0.89
   0   3  -3   -1.37    1.11
  -1   3  -3    1.83    1.63
  -1   3  -3    1.49    1.42
   1  -3   3    2.28    0.83
   1  -3   3    3.40    1.42
  -2   3  -3  374.17    9.95
  -2   3  -3  386.49   11.18
   2  -3   3  373.32    9.64
   3  -3   3    4.64    1.36
  -3   3  -3   10.80    2.23
  -3   3  -3    7.38    1.90
  -4   3  -3   10.68    2.28
  -4   3  -3    7.76    1.96
  -5   3  -3    2.69    1.59
  -5   3  -3    4.25    1.81
  -6   3  -3    2.60    1.88
  -6   3  -3    0.49    1.77
  -7   3  -3    7.90    2.60
  -8   3  -3  245.41   10.45
  -9   3  -3   35.18    4.52
 -10   3  -3  112.45    7.39
 -11   3  -3    6.47    3.13
 -12   3  -3    1.63    2.88
 -13   3  -3    5.05    3.67
 -15   3  -3    6.52    2.97
 -16   3  -3    4.27    3.29
 -16  -2   3    0.48    2.79
 -15  -2   3   14.34    4.11
 -14  -2   3   10.32    3.28
 -13  -2   3    9.50    3.02
 -12  -2   3    1.46    2.23
 -11  -2   3    8.67    2.64
 -10  -2   3    3.64    1.93
  -9  -2   3  211.05    8.72
  -8  -2   3   21.67    3.06
  -8  -2   3   27.58    2.30
  -7  -2   3  209.68    6.27
  -7  -2   3  222.27    8.07
  -6  -2   3   13.50    2.15
  -6  -2   3   17.85    1.58
  -5  -2   3   23.58    1.68
  -5  -2   3   24.13    2.40
  -4  -2   3   22.33    1.53
  -4  -2   3   25.46    2.23
  -3  -2   3  453.20   11.27
  -3  -2   3  454.45   10.57
  -2  -2   3  711.80   16.23
  -2  -2   3  705.10   15.96
  -1  -2   3 1895.55   41.39
  -1  -2   3 1833.43   38.41
   0  -2   3   51.04    2.82
   0  -2   3   47.73    1.73
   0  -2   3   46.07    2.27
   1  -2   3  264.65    7.70
   1  -2   3  269.58    6.96
   2  -2   3 1650.75   37.63
   2  -2   3 1634.25   34.38
  -4   2  -3  499.63   12.90
  -4   2  -3  481.68   14.20
  -5   2  -3    2.47    1.52
  -5   2  -3    4.12    1.80
  -6   2  -3   33.54    3.53
  -6   2  -3   30.49    3.19
  -7   2  -3  520.49   16.15
  -7   2  -3  528.84   14.67
  -8   2  -3  129.65    7.09
  -9   2  -3   10.08    3.01
 -10   2  -3   27.33    4.41
 -11   2  -3    2.40    2.61
 -12   2  -3    1.80    2.72
 -14   2  -3    9.95    3.26
 -15   2  -3   12.79    3.69
 -16   2  -3   11.52    4.10
 -17  -1   3   15.43    4.57
 -16  -1   3   15.38    4.46
 -15  -1   3   30.44    5.25
 -14  -1   3    1.99    2.20
 -13  -1   3    8.62    2.79
 -12  -1   3   21.38    3.80
 -11  -1   3  101.76    6.38
 -10  -1   3   60.94    5.01
  -9  -1   3   90.31    5.38
  -9  -1   3   90.41    4.60
  -8  -1   3   19.43    2.22
  -8  -1   3   20.06    2.80
  -7  -1   3  103.39    4.31
  -7  -1   3  104.77    5.12
  -6  -1   3  321.18    8.63
  -6  -1   3  322.85    9.67
  -5  -1   3   62.97    3.57
  -5  -1   3   66.32    2.95
  -4  -1   3  178.12    5.14
  -4  -1   3  179.35    5.84
  -3  -1   3   68.21    2.85
  -3  -1   3   68.23    3.13
  -2  -1   3    7.65    1.17
  -2  -1   3    8.38    1.16
  -1  -1   3    9.05    1.08
  -1  -1   3   10.69    1.30
   0  -1   3  100.79    3.64
   0  -1   3   95.48    3.06
   1  -1   3   61.75    3.19
   1  -1   3   61.30    2.60
   2  -1   3  642.20   16.15
   3  -1   3   58.48    3.73
   4  -1   3   35.15    3.03
  -5   1  -3    2.20    1.73
  -5   1  -3    1.93    1.48
  -6   1  -3  227.26    8.84
  -6   1  -3  237.05    8.11
  -7   1  -3   12.02    2.66
  -7   1  -3   11.54    2.51
  -8   1  -3   92.07    5.37
  -8   1  -3   94.30    5.91
  -9   1  -3   16.97    3.51
 -10   1  -3   31.20    4.33
 -11   1  -3    9.28    3.48
 -12   1  -3    2.27    2.37
 -13   1  -3    3.48    2.72
 -14   1  -3   49.94    5.91
 -15   1  -3    5.01    3.21
 -16   1  -3    2.25    3.14
 -17   0   3   16.09    4.78
 -16   0   3   -0.53    2.83
 -15   0   3    1.55    2.39
 -14   0   3    4.24    2.46
 -13   0   3    0.57    1.56
 -12   0   3   20.08    3.61
 -11   0   3   43.05    4.53
 -10   0   3    3.86    2.27
 -10   0   3    1.93    1.60
  -9   0   3   -0.91    1.25
  -9   0   3    0.27    1.75
  -8   0   3   13.86    2.41
  -8   0   3   14.47    2.17
  -7   0   3  139.16    5.36
  -7   0   3  136.37    5.81
  -6   0   3  194.66    6.31
  -6   0   3  213.17    7.03
  -5   0   3  327.89    8.83
  -5   0   3  329.72    9.19
  -4   0   3   42.56    2.66
  -4   0   3   47.04    2.90
  -3   0   3   27.75    1.95
  -3   0   3   30.29    2.47
  -2   0   3  770.41   17.97
  -2   0   3  783.44   16.70
  -1   0   3   20.23    1.23
  -1   0   3   18.82    1.57
   0   0  -3    9.59    0.87
   0   0   3   10.79    1.48
   1   0   3  647.87   14.01
   1   0   3  637.55   15.78
   2   0   3  710.65   17.62
   3   0   3   14.82    2.19
   4   0   3   28.09    2.75
   5   0   3  550.32   15.05
  -6   0  -3   20.06    2.56
  -6   0  -3   15.78    2.62
  -7   0  -3   14.00    2.46
  -7   0  -3   13.67    2.62
  -8   0  -3    5.08    2.20
  -8   0  -3    5.25    2.33
  -9   0  -3   31.33    3.74
  -9   0  -3   26.21    3.76
 -10   0  -3    1.05    2.31
 -11   0  -3   28.64    4.21
 -12   0  -3   69.44    6.01
 -13   0  -3   11.59    3.23
 -14   0  -3   -1.92    2.25
 -15   0  -3   -6.67    2.13
 -16   0  -3   -3.43    2.74
 -17   1   3   -0.75    2.46
 -16   1   3   -0.62    2.28
 -15   1   3   19.32    4.29
 -14   1   3   10.79    3.06
 -13   1   3    2.01    2.22
 -12   1   3    0.75    1.83
 -11   1   3   76.35    5.39
 -11   1   3   77.00    5.41
 -10   1   3   -1.28    1.92
 -10   1   3    2.18    1.66
  -9   1   3   52.31    4.23
  -9   1   3   56.94    4.19
  -8   1   3    1.00    1.30
  -8   1   3    2.11    1.75
  -7   1   3   23.29    2.48
  -7   1   3   20.50    2.48
  -6   1   3  665.54   16.30
  -6   1   3  651.55   16.51
  -5   1   3   35.13    2.50
  -5   1   3   41.80    2.97
  -4   1   3  408.74   10.16
  -4   1   3  410.72   10.73
  -3   1   3   -0.03    0.73
  -3   1   3    1.57    1.44
  -1   1   3  123.04    4.15
  -1   1   3  126.28    3.08
   1  -1  -3  121.00    3.76
   0   1   3  486.67   12.42
   0  -1  -3  512.27   12.08
   0   1   3  501.15   10.70
  -1  -1  -3   35.24    2.27
   1   1   3   30.78    2.54
   2   1   3  608.48   15.39
   3   1   3   16.96    2.19
   4   1   3   -0.38    1.65
   5   1   3   20.69    2.75
   6   1   3   11.03    2.43
  -7  -1  -3    5.65    2.02
  -7  -1  -3    6.91    2.23
  -8  -1  -3  102.78    5.33
  -8  -1  -3   76.60    5.27
  -9  -1  -3   34.87    3.99
  -9  -1  -3   36.93    3.81
  -9  -1  -3   26.76    3.66
 -10  -1  -3   37.47    4.25
 -11  -1  -3    0.05    1.68
 -12  -1  -3    9.37    3.00
 -13  -1  -3   -0.87    2.19
 -14  -1  -3    5.59    2.93
 -15  -1  -3    0.97    2.90
 -18   2   3   23.47    5.29
 -17   2   3   31.07    5.66
 -16   2   3   18.18    4.14
 -15   2   3   16.45    3.89
 -14   2   3   64.79    6.29
 -13   2   3    7.74    2.65
 -12   2   3    6.52    3.10
 -12   2   3    5.37    2.33
 -11   2   3    0.59    1.61
 -11   2   3    0.42    2.40
 -10   2   3    0.91    2.23
 -10   2   3    1.37    1.48
  -9   2   3    9.75    2.19
  -9   2   3    6.82    2.31
  -8   2   3  289.04    9.51
  -8   2   3  290.89    9.54
  -7   2   3  320.81   10.07
  -7   2   3  331.41    9.95
  -6   2   3  436.53   11.93
  -6   2   3  413.27   11.36
  -5   2   3  283.95    8.54
  -5   2   3  277.92    7.93
  -4   2   3   18.70    1.65
  -4   2   3   20.25    2.36
  -2   2   3   43.34    1.62
   2  -2  -3   40.85    2.34
  -2   2   3   44.25    2.97
  -1   2   3 1765.92   39.87
   1  -2  -3 1769.07   39.25
   0  -2  -3   45.72    2.73
   0   2   3   45.89    3.29
   1   2   3 9583.91  214.38
  -1  -2  -3 9999.78  209.69
   2   2   3  174.82    6.05
   3   2   3    9.77    1.84
   4   2   3    4.46    1.09
   5   2   3    0.08    0.56
  -6  -2  -3    0.92    1.37
   6   2   3   -0.54    1.14
  -7  -2  -3  281.46    9.88
  -8  -2  -3   21.96    3.22
  -8  -2  -3   20.61    2.96
  -8  -2  -3   16.99    2.95
  -9  -2  -3    0.86    1.58
 -10  -2  -3   18.46    3.48
 -11  -2  -3  101.72    6.73
 -12  -2  -3    3.32    2.22
 -13  -2  -3    6.63    3.04
 -14  -2  -3   -2.88    2.22
 -15  -2  -3    0.85    2.94
 -18   3   3    7.25    3.37
 -17   3   3    3.06    2.54
 -16   3   3    7.39    3.24
 -15   3   3   26.77    4.66
 -14   3   3    7.31    2.95
 -13   3   3    5.61    2.48
 -13   3   3    8.70    3.26
 -12   3   3   48.30    4.92
 -12   3   3   55.37    5.14
 -11   3   3  186.52    8.49
 -11   3   3  185.72    8.41
 -10   3   3   26.46    3.57
 -10   3   3   28.03    3.57
  -9   3   3   21.86    3.05
  -9   3   3   27.89    3.27
  -8   3   3   36.42    3.43
  -7   3   3   38.41    3.28
  -6   3   3    2.52    1.73
  -5   3   3   56.79    3.74
  -4   3   3  148.00    5.82
  -3   3   3  249.93    7.82
   3  -3  -3  238.48    7.28
   2  -3  -3 2285.15   49.95
  -2   3   3 2210.09   50.48
  -1   3   3 7382.84  164.17
   0  -3  -3  504.50   10.74
   0  -3  -3  504.53   13.29
   0   3   3  491.39   12.98
  -1  -3  -3 1113.21   23.52
   1   3   3 1103.01   26.35
  -1  -3  -3 1154.13   27.06
   2   3   3   39.78    2.56
  -2  -3  -3   53.86    3.69
  -2  -3  -3   51.06    2.52
  -4  -3  -3   23.87    2.29
   4   3   3   18.17    2.31
  -5  -3  -3   18.75    2.36
   5   3   3   29.39    3.02
  -6  -3  -3  190.60    7.48
   6   3   3  205.29    7.65
  -7  -3  -3   12.72    2.42
  -8  -3  -3   13.08    2.68
  -9  -3  -3   12.04    2.80
 -10  -3  -3   28.55    4.18
 -11  -3  -3    6.87    2.74
 -12  -3  -3   -1.39    1.84
 -13  -3  -3   11.62    3.42
 -14  -3  -3    2.78    2.77
 -15  -3  -3    1.94    3.34
 -18   4   3   -3.60    1.21
 -17   4   3   -0.89    2.12
 -16   4   3    9.80    3.31
 -15   4   3    1.45    2.35
 -14   4   3    7.96    2.70
 -14   4   3    6.33    3.44
 -13   4   3    1.79    1.92
 -13   4   3    3.27    2.79
 -12   4   3   86.09    6.12
 -12   4   3   96.40    6.50
 -11   4   3   12.29    3.32
 -11   4   3   13.17    2.94
 -10   4   3    4.30    2.62
  -9   4   3    0.05    2.02
  -8   4   3    6.76    2.41
  -7   4   3    9.57    2.37
  -6   4   3   32.39    3.19
  -5   4   3    8.47    2.16
  -4   4   3  287.84    9.00
   3  -4  -3  243.88    7.81
  -3   4   3  251.48    8.07
  -2   4   3  659.24   16.91
   2  -4  -3  673.24   16.93
   1  -4  -3   10.42    1.86
   1  -4  -3    6.42    0.64
  -1   4   3    9.62    1.98
   0  -4  -3  155.17    6.09
   0  -4  -3  152.78    3.94
   0   4   3  144.79    5.64
  -1  -4  -3   79.68    4.45
  -1  -4  -3   73.87    2.83
   1   4   3   73.44    3.63
  -2  -4  -3  164.94    5.23
  -2  -4  -3  178.33    7.18
  -3  -4  -3    3.47    1.20
   3   4   3    4.83    1.76
  -4  -4  -3   11.73    1.81
   4   4   3   15.75    2.38
   5   4   3   98.92    5.17
  -5  -4  -3  116.85    5.18
  -6  -4  -3    5.07    1.73
   6   4   3    9.71    2.67
  -7  -4  -3  158.26    7.04
  -8  -4  -3    8.34    2.41
  -9  -4  -3    1.64    1.84
 -10  -4  -3    8.23    2.66
 -11  -4  -3    8.90    2.87
 -12  -4  -3   -1.11    2.11
 -13  -4  -3   14.17    3.87
 -14  -4  -3    2.88    3.28
 -18   5   3    0.90    1.34
 -17   5   3    2.47    2.62
 -16   5   3    0.87    2.28
 -15   5   3   -3.33    3.00
 -15   5   3   -0.19    2.26
 -14   5   3    1.02    3.05
 -14   5   3    2.23    2.18
 -13   5   3    1.06    1.97
 -13   5   3    0.17    2.85
 -12   5   3    7.86    3.29
 -11   5   3   98.51    6.57
 -10   5   3   22.70    3.72
  -9   5   3  122.08    6.81
  -8   5   3   45.46    4.18
  -7   5   3   24.66    3.19
  -6   5   3  116.70    5.66
  -5   5   3  238.83    8.37
  -4   5   3  511.93   14.28
   4  -5  -3  518.80   14.14
   3  -5  -3  173.76    6.43
  -3   5   3  171.13    6.59
   2  -5  -3   27.63    1.37
   2  -5  -3   26.82    2.69
  -2   5   3   30.70    2.77
   1  -5  -3  377.12   11.44
   1  -5  -3  383.96    8.39
  -1   5   3  379.27   10.96
   0   5   3  209.65    7.19
   0  -5  -3  221.53    5.39
   0  -5  -3  202.01    7.87
  -1  -5  -3   67.71    4.45
  -1  -5  -3   65.84    2.74
  -2  -5  -3  121.32    6.24
   2   5   3  138.43    5.47
  -2  -5  -3  135.62    4.62
  -3  -5  -3    4.30    1.94
   3   5   3    7.74    1.99
  -3  -5  -3    6.35    1.43
  -4  -5  -3  125.57    5.25
   4   5   3  128.88    5.68
   5   5   3  176.77    6.95
  -5  -5  -3  156.00    6.42
  -6  -5  -3  179.58    7.30
  -7  -5  -3   35.19    3.72
  -8  -5  -3    3.23    1.71
  -9  -5  -3    7.72    2.52
 -10  -5  -3   30.11    4.13
 -11  -5  -3    5.90    2.52
 -12  -5  -3    3.80    2.76
 -18   6   3   -1.74    1.24
 -17   6   3   -0.44    2.37
 -16   6   3   13.58    3.84
 -15   6   3   -0.60    2.34
 -15   6   3    2.20    3.49
 -14   6   3   15.19    4.07
 -14   6   3    8.67    2.85
 -13   6   3   28.72    4.63
 -12   6   3   -2.37    2.80
 -11   6   3   49.18    5.14
 -10   6   3    3.00    2.83
  -9   6   3  120.84    6.89
  -8   6   3  102.85    6.10
  -7   6   3   68.19    5.05
  -6   6   3  408.85   12.68
  -5   6   3  203.83    8.08
   5  -6  -3  218.22    7.89
  -4   6   3   18.09    2.56
   4  -6  -3   17.44    2.43
   3  -6  -3   23.73    2.73
  -3   6   3   22.89    2.80
   2  -6  -3    6.17    1.90
   2  -6  -3    3.68    0.82
  -2   6   3    7.68    2.06
   1  -6  -3   31.19    3.23
   1  -6  -3   34.04    1.75
  -1   6   3   30.18    2.93
   0  -6  -3  121.42    3.80
   0  -6  -3  118.98    6.04
   0   6   3  126.92    5.42
  -1  -6  -3  132.64    4.38
  -1  -6  -3  136.49    6.76
  -2  -6  -3   44.16    4.25
  -2  -6  -3   36.24    2.33
   2   6   3   30.59    2.86
  -3  -6  -3   49.07    3.01
  -3  -6  -3   52.62    4.84
   3   6   3   51.04    3.74
   4   6   3  173.97    6.79
  -4  -6  -3  166.33    6.33
  -4  -6  -3  172.07    8.56
  -5  -6  -3    8.18    1.96
  -5  -6  -3    3.51    2.15
  -6  -6  -3   -1.00    1.31
  -7  -6  -3    2.48    1.59
  -8  -6  -3    2.50    1.90
  -9  -6  -3    7.35    2.46
 -10  -6  -3    4.66    2.29
 -18   7   3    0.71    1.42
 -17   7   3    0.58    3.88
 -17   7   3    7.05    3.11
 -16   7   3    3.76    3.72
 -16   7   3    3.41    2.77
 -15   7   3   36.94    5.30
 -15   7   3   42.61    5.90
 -14   7   3   95.51    7.55
 -13   7   3   14.86    4.17
 -12   7   3   23.56    4.62
 -11   7   3   77.15    6.38
 -10   7   3   50.67    5.23
  -9   7   3  130.48    7.37
  -8   7   3   49.52    4.68
  -7   7   3  146.74    7.11
  -6   7   3  187.22    8.02
   5  -7  -3   -0.02    1.22
  -5   7   3    0.87    2.11
  -4   7   3   26.07    3.25
   4  -7  -3   27.01    3.06
  -3   7   3   36.82    3.54
   3  -7  -3   39.30    3.49
   3  -7  -3   34.81    2.00
  -2   7   3  274.69    9.33
   2  -7  -3  272.69    6.72
   2  -7  -3  263.34    9.64
   1  -7  -3   31.16    1.88
   1  -7  -3   23.53    3.14
  -1   7   3   27.25    2.92
   0  -7  -3   13.49    2.81
   0   7   3    9.74    1.89
   0  -7  -3   14.09    1.47
  -1  -7  -3   14.56    1.58
  -1  -7  -3   15.76    2.94
   1   7   3   11.96    2.27
   2   7   3    1.19    1.93
  -2  -7  -3    1.12    1.06
  -2  -7  -3    0.59    1.68
   3   7   3   15.30    2.59
  -3  -7  -3   20.42    2.16
  -4  -7  -3   -1.47    1.65
  -4  -7  -3    0.43    1.19
  -5  -7  -3   98.04    5.01
  -5  -7  -3   99.76    6.91
  -6  -7  -3  124.31    8.10
  -6  -7  -3  122.35    6.03
  -7  -7  -3   51.08    4.35
  -7  -7  -3   49.17    6.22
  -8  -7  -3    7.45    3.19
 -18   8   3   36.93    6.88
 -17   8   3    2.07    3.04
 -17   8   3    8.76    4.28
 -16   8   3    7.19    3.38
 -16   8   3    6.42    3.99
 -15   8   3   13.55    4.38
 -14   8   3   19.28    4.59
 -13   8   3    2.67    3.46
 -12   8   3   11.73    4.05
 -11   8   3    1.53    3.31
 -10   8   3  250.49   10.90
  -9   8   3   18.95    3.97
  -8   8   3   88.14    6.04
  -7   8   3    2.03    2.51
   6  -8  -3   73.45    4.72
  -6   8   3   85.00    5.66
   5  -8  -3   66.81    4.48
  -5   8   3   60.21    4.86
   4  -8  -3   47.01    3.74
  -4   8   3   56.65    4.49
   3  -8  -3  199.24    5.57
  -3   8   3  192.06    7.99
   3  -8  -3  202.62    8.25
   2  -8  -3   47.80    2.49
  -2   8   3   48.01    3.88
   2  -8  -3   48.24    4.19
   1  -8  -3   17.04    3.03
  -1   8   3   23.44    2.91
   1  -8  -3   19.92    1.68
   0  -8  -3   10.12    2.58
   0  -8  -3   12.79    1.58
  -1  -8  -3   10.97    1.60
  -1  -8  -3   14.53    3.15
   1   8   3   10.86    2.44
  -2  -8  -3    0.70    1.22
   2   8   3    2.42    2.08
  -2  -8  -3    3.00    2.08
  -3  -8  -3    3.60    2.29
  -3  -8  -3    1.36    1.23
  -4  -8  -3   35.96    5.04
  -4  -8  -3   35.74    3.06
  -5  -8  -3    5.40    2.51
  -7  -8  -3  115.62    8.47
  -8  -8  -3   -0.70    2.65
  -9  -8  -3    5.57    3.67
 -10  -8  -3    2.28    3.65
 -11  -8  -3    5.17    4.12
 -18   9   3   -8.37    3.91
 -18   9   3   -2.45    1.67
 -17   9   3    2.84    4.27
 -17   9   3    6.24    3.34
 -16   9   3    0.42    3.84
 -15   9   3    6.96    3.95
 -14   9   3    3.62    3.52
 -13   9   3    8.14    3.74
 -12   9   3   -2.00    2.92
 -11   9   3    2.24    3.38
 -10   9   3    1.81    3.30
  -9   9   3   19.68    3.95
  -8   9   3    8.98    3.18
  -7   9   3   12.70    3.46
   6  -9  -3   24.36    3.39
  -6   9   3   25.06    3.86
  -5   9   3   35.06    4.11
   5  -9  -3   34.35    3.85
   4  -9  -3  188.88    8.32
  -4   9   3  205.97    8.58
  -3   9   3  348.69   11.90
   3  -9  -3  362.03    9.05
   3  -9  -3  346.73   12.27
  -2   9   3   10.54    2.69
   2  -9  -3   14.81    1.74
   2  -9  -3   13.32    2.81
   1  -9  -3   43.47    2.74
  -1   9   3   45.86    4.06
   1  -9  -3   41.65    4.39
   0  -9  -3   11.56    2.90
   1   9   3   55.61    4.31
  -1  -9  -3   49.11    5.26
  -2  -9  -3   20.37    3.90
   2   9   3   15.06    2.84
  -3  -9  -3   34.19    5.05
  -4  -9  -3   11.39    3.42
  -5  -9  -3   28.31    5.12
  -6  -9  -3   16.64    4.14
  -7  -9  -3   16.03    4.21
  -8  -9  -3   -1.89    2.42
  -9  -9  -3   -4.85    2.36
 -10  -9  -3   41.22    7.31
 -19  10   3   -0.96    5.55
 -18  10   3   -3.95    4.07
 -18  10   3    4.06    2.79
 -17  10   3   -3.80    4.07
 -16  10   3   29.97    5.97
 -15  10   3   -4.43    3.30
 -14  10   3   19.26    4.84
 -13  10   3   10.43    4.06
 -12  10   3   -0.48    3.33
 -11  10   3    2.82    3.45
 -10  10   3  114.55    7.98
  -9  10   3   13.12    3.64
  -8  10   3   -1.82    2.84
  -7  10   3    3.48    3.22
   7 -10  -3    2.64    1.92
   6 -10  -3   31.71    3.95
  -6  10   3   39.44    4.69
  -5  10   3   22.38    3.91
   5 -10  -3   14.78    2.98
  -4  10   3  251.26   10.18
   4 -10  -3  252.65   10.39
   4 -10  -3  262.93    7.46
  -3  10   3    3.98    2.64
   3 -10  -3    4.58    1.82
  -2  10   3   18.16    3.27
   2 -10  -3   20.55    3.49
   1 -10  -3   10.05    2.62
  -1  10   3   12.89    2.94
   0 -10  -3    6.18    2.38
   0  10   3    3.27    2.37
  -1 -10  -3  194.84   10.10
   1  10   3  215.59    8.50
  -2 -10  -3  101.16    7.33
  -3 -10  -3   28.14    4.91
  -4 -10  -3   47.62    6.16
  -5 -10  -3   17.77    4.29
  -6 -10  -3   -0.03    2.81
  -7 -10  -3   19.89    5.28
  -8 -10  -3   -0.99    2.89
  -9 -10  -3   10.37    4.68
 -19  11   3   -1.62    5.13
 -18  11   3   12.08    5.68
 -17  11   3   16.92    5.43
 -16  11   3    0.36    3.96
 -15  11   3   13.21    4.89
 -14  11   3    6.13    4.17
 -13  11   3  130.15    9.17
 -12  11   3    1.83    3.46
 -11  11   3   18.58    4.59
 -10  11   3   22.78    4.53
  -9  11   3   -1.69    3.18
  -8  11   3   17.54    4.34
  -7  11   3   12.80    3.78
   7 -11  -3    8.77    2.71
   6 -11  -3  138.30    7.46
  -6  11   3  137.03    8.16
  -5  11   3    2.11    3.07
   5 -11  -3    0.51    1.70
  -4  11   3   63.85    5.43
   4 -11  -3   50.20    4.95
  -3  11   3   28.55    4.00
   3 -11  -3   20.38    3.59
  -2  11   3    0.09    2.60
   2 -11  -3    1.27    1.72
  -1  11   3    9.85    2.11
   1 -11  -3   22.35    3.91
   0 -11  -3   77.25    6.27
   0  11   3   70.35    5.23
  -1 -11  -3   62.00    6.37
  -2 -11  -3   36.28    5.41
  -3 -11  -3   16.25    4.29
  -4 -11  -3    5.59    3.17
  -5 -11  -3    3.95    3.31
  -6 -11  -3   69.72    8.25
  -7 -11  -3   -2.55    3.09
  -8 -11  -3    3.99    3.91
  -9 -11  -3   34.54    7.02
 -18  12   3    8.21    5.55
 -17  12   3    6.24    4.95
 -16  12   3   11.54    5.13
 -15  12   3    1.49    4.05
 -14  12   3   24.84    5.50
 -13  12   3    0.92    3.51
 -12  12   3   -5.55    2.87
 -11  12   3    5.74    3.59
 -10  12   3   92.01    7.57
  -9  12   3    0.29    3.38
  -8  12   3   56.69    6.12
   7 -12  -3    0.39    1.86
  -7  12   3   -0.86    3.17
   6 -12  -3    1.33    2.07
  -6  12   3   -0.29    3.24
   5 -12  -3   20.55    3.78
  -5  12   3   23.81    4.42
   4 -12  -3   71.98    5.66
  -4  12   3   66.25    5.73
  -3  12   3    3.45    3.18
   3 -12  -3    2.32    2.14
   2 -12  -3   26.52    4.32
  -2  12   3   25.92    3.96
   1 -12  -3   29.78    4.67
   0 -12  -3   88.45    6.99
  -1 -12  -3    6.26    3.02
  -2 -12  -3    1.54    2.09
  -3 -12  -3   10.99    3.87
  -4 -12  -3   18.18    4.92
  -5 -12  -3   10.12    4.21
  -6 -12  -3   27.23    6.36
  -7 -12  -3   15.02    5.24
  -8 -12  -3   31.96    6.88
 -17  13   3    3.20    4.71
 -16  13   3   -3.63    3.76
 -15  13   3   -4.53    2.90
 -14  13   3    8.78    4.54
 -13  13   3    5.60    4.13
 -12  13   3    4.55    3.81
 -11  13   3   50.62    6.21
 -10  13   3   -2.96    3.16
  -9  13   3   34.06    5.40
  -8  13   3   -4.58    2.91
   8 -13  -3   -1.43    2.03
  -7  13   3    3.39    3.56
   7 -13  -3   -0.58    1.82
   6 -13  -3   13.75    3.52
  -6  13   3   16.52    4.18
   5 -13  -3   10.90    3.01
  -5  13   3   10.06    3.74
  -4  13   3   -0.17    2.67
   4 -13  -3    1.80    2.07
  -3  13   3   37.61    4.61
   3 -13  -3   26.06    4.47
  -2  13   3   70.21    5.70
   2 -13  -3   66.12    6.48
   1 -13  -3    8.07    2.81
   0 -13  -3    4.82    2.67
  -1 -13  -3    3.30    2.86
  -2 -13  -3   -2.06    2.15
  -3 -13  -3    5.09    3.45
  -4 -13  -3    6.77    3.69
  -5 -13  -3    1.31    2.87
  -6 -13  -3   20.98    6.00
 -17  14   3    2.97    4.73
 -16  14   3   10.56    5.26
 -15  14   3    6.61    4.55
 -14  14   3   -1.06    3.90
 -13  14   3    9.18    4.74
 -12  14   3    4.24    4.28
 -11  14   3   24.71    5.56
 -10  14   3    4.01    3.80
  -9  14   3    0.36    3.24
  -8  14   3   14.34    4.38
   8 -14  -3   20.03    4.09
  -7  14   3    2.44    3.32
   7 -14  -3    5.47    2.69
  -6  14   3    5.37    3.46
   6 -14  -3    6.20    2.77
   5 -14  -3   73.74    6.61
  -5  14   3   65.16    6.22
  -4  14   3  162.82    8.95
   4 -14  -3  175.00    9.79
  -3  14   3   25.98    4.14
   3 -14  -3   39.52    5.41
   2 -14  -3   13.01    3.43
   1 -14  -3   12.70    3.73
   0 -14  -3    6.97    3.10
  -1 -14  -3   11.96    3.94
  -2 -14  -3    4.80    2.87
  -3 -14  -3   -2.41    2.60
  -4 -14  -3    0.09    2.20
  -5 -14  -3   -3.38    1.60
 -16  15   3    1.90    4.86
 -15  15   3    1.04    4.41
 -14  15   3   -0.53    4.32
 -13  15   3   12.21    5.32
 -12  15   3    2.38    4.28
 -11  15   3    3.14    4.02
 -10  15   3   -0.02    3.68
  -9  15   3    2.90    3.86
  -8  15   3   34.56    5.62
   8 -15  -3   30.62    5.12
   7 -15  -3   33.84    5.26
  -7  15   3   36.89    5.56
  -6  15   3   13.00    4.25
   6 -15  -3   14.37    3.98
  -5  15   3  110.13    7.62
   5 -15  -3  110.57    7.95
  -4  15   3   25.73    4.47
   4 -15  -3   22.08    4.68
   3 -15  -3   44.74    6.09
   2 -15  -3   18.78    4.46
   1 -15  -3   24.13    5.10
   0 -15  -3   26.30    5.28
  -1 -15  -3   38.66    6.23
  -2 -15  -3    1.00    2.78
  -3 -15  -3    1.05    1.24
  -4 -15  -3   -1.68    1.74
 -15  16   3   -0.43    2.48
 -14  16   3   -2.93    1.76
 -13  16   3   -1.97    4.17
 -12  16   3   -0.22    3.96
 -11  16   3   -0.97    3.71
 -10  16   3   39.34    6.53
  -9  16   3    4.87    4.01
   8 -16  -3   37.03    5.73
  -8  16   3   40.54    6.19
   7 -16  -3   29.85    5.19
  -7  16   3   26.04    5.32
  -6  16   3   70.15    6.84
   6 -16  -3   63.39    7.07
   5 -16  -3   -1.82    2.19
  -5  16   3   -2.58    2.71
   4 -16  -3    1.40    2.56
   3 -16  -3    9.41    3.45
   2 -16  -3    6.00    3.17
   1 -16  -3    8.65    2.98
  -1 -16  -3    0.13    1.53
  -2 -16  -3   -0.64    1.64
 -14  17   3   -1.28    2.54
 -13  17   3    0.16    2.11
 -12  17   3   -3.55    3.79
 -11  17   3   20.03    5.87
 -10  17   3    0.98    3.88
  -9  17   3   28.80    6.02
  -8  17   3    2.07    4.03
   8 -17  -3    5.80    3.45
   7 -17  -3   29.55    5.43
  -7  17   3   28.21    5.52
   6 -17  -3    1.35    2.81
   5 -17  -3    4.70    3.34
   4 -17  -3    7.88    3.70
   3 -17  -3   13.35    4.36
   2 -17  -3    2.57    2.58
   1 -17  -3    0.04    1.52
   0 -17  -3   -0.72    1.62
  -1 -17  -3    2.23    2.25
 -13  18   3    0.35    2.63
 -12  18   3    0.34    3.36
 -11  18   3   -3.86    3.87
 -10  18   3    8.90    4.75
  -9  18   3    3.92    4.20
  -8  18   3   -1.02    4.05
   8 -18  -3    3.79    3.52
   7 -18  -3    0.81    2.87
   6 -18  -3    3.00    3.12
   5 -18  -3    7.45    3.45
   4 -18  -3   -1.08    1.75
   3 -18  -3   -0.57    1.44
   2 -18  -3    0.38    2.04
 -11  19   3   19.35    6.42
 -10  19   3    1.05    4.14
  -9  19   3    5.72    4.69
   8 -19  -3    1.79    3.74
   7 -19  -3   -1.96    3.38
   6 -19  -3    2.17    3.99
   5 -19  -3   -0.87    2.53
   4 -19  -3   -0.25    2.32
  -9  19  -4   -1.14    4.01
 -10  19  -4    2.01    5.70
  -2 -18   4    0.91    3.71
  -1 -18   4   17.78    4.12
   0 -18   4    1.30    3.09
   1 -18   4    1.69    3.04
  -8  18  -4   -8.39    3.39
  -9  18  -4   23.51    5.97
 -10  18  -4    4.07    4.07
 -11  18  -4    1.79    4.77
  -4 -17   4    8.83    5.19
  -3 -17   4    2.65    2.91
  -2 -17   4    6.38    3.27
  -1 -17   4   17.96    4.52
   0 -17   4    5.13    3.47
   1 -17   4   32.18    5.54
   2 -17   4   10.03    3.75
   3 -17   4    0.35    2.86
  -7  17  -4    8.18    4.45
  -8  17  -4    8.99    4.72
  -9  17  -4    3.64    4.25
 -10  17  -4    3.41    4.79
 -11  17  -4   -3.54    3.72
 -12  17  -4   -2.63    2.43
  -5 -16   4    3.20    3.79
  -4 -16   4    1.00    3.36
  -3 -16   4    8.39    3.50
  -2 -16   4   44.77    6.65
  -1 -16   4    1.65    2.80
   0 -16   4    1.05    2.38
   1 -16   4    5.13    3.06
   2 -16   4    0.38    2.53
   3 -16   4    1.75    2.71
   4 -16   4   25.70    4.52
   6 -16   4   24.96    4.29
  -6  16  -4   19.17    4.70
  -7  16  -4   10.53    4.43
  -8  16  -4    2.09    3.76
  -9  16  -4   -0.65    3.46
 -10  16  -4   -0.06    3.74
 -11  16  -4    1.08    4.14
 -12  16  -4   -1.23    2.75
 -13  16  -4   -2.22    2.49
  -6 -15   4    1.63    3.38
  -5 -15   4    4.40    3.60
  -4 -15   4   12.59    4.35
  -3 -15   4    8.05    3.49
  -2 -15   4    3.44    2.54
  -1 -15   4    5.05    2.68
   0 -15   4    3.61    2.52
   1 -15   4    4.08    2.59
   2 -15   4    0.42    2.27
   2 -15   4    0.91    2.31
   3 -15   4    3.13    2.57
   3 -15   4    4.43    2.64
   4 -15   4    1.74    2.18
   4 -15   4    0.72    2.35
   5 -15   4   -0.97    2.50
  -5  15  -4   -4.11    2.81
   5 -15   4    3.55    2.55
   6 -15   4    5.35    2.70
  -6  15  -4    7.62    3.84
  -7  15  -4   15.79    4.56
   7 -15   4   21.69    4.03
  -8  15  -4    4.35    3.96
  -9  15  -4    4.09    4.15
 -10  15  -4    4.00    4.17
 -11  15  -4   -2.84    3.99
 -12  15  -4   15.01    5.67
 -13  15  -4   -0.37    2.05
 -14  15  -4   -1.22    2.69
  -8 -14   4   -4.59    3.54
  -7 -14   4   -1.00    2.46
  -6 -14   4    2.98    3.11
  -5 -14   4   12.96    4.20
  -4 -14   4    1.96    2.85
  -3 -14   4   45.17    6.24
  -2 -14   4    4.67    2.90
  -1 -14   4   38.00    4.48
  -1 -14   4   32.65    5.22
   0 -14   4   30.70    4.13
   1 -14   4   75.12    5.60
   1 -14   4   77.46    6.21
   2 -14   4   24.99    4.19
   2 -14   4   27.88    3.94
   3 -14   4  100.91    6.13
   3 -14   4  101.38    6.80
  -3  14  -4   94.19    6.67
  -4  14  -4    6.20    3.52
   4 -14   4    3.87    2.31
   4 -14   4    6.64    2.67
  -5  14  -4    2.45    3.25
   5 -14   4   -0.04    2.18
   5 -14   4    0.63    2.21
  -6  14  -4    2.46    3.75
   6 -14   4    5.34    2.60
   6 -14   4    7.70    2.78
   7 -14   4   -3.01    1.97
  -7  14  -4    2.47    3.39
  -8  14  -4   29.95    5.64
  -9  14  -4   49.79    6.73
 -10  14  -4    3.62    3.81
 -11  14  -4   36.89    6.67
 -12  14  -4    1.48    4.32
 -13  14  -4    0.91    4.47
 -14  14  -4    2.67    4.92
  -9 -13   4    0.59    2.10
  -8 -13   4    3.74    2.31
  -7 -13   4   11.11    4.48
  -6 -13   4   15.74    4.53
  -5 -13   4   21.94    4.96
  -5 -13   4   13.77    3.45
  -4 -13   4    5.18    2.39
  -4 -13   4    0.04    2.63
  -3 -13   4    9.09    2.96
  -3 -13   4   10.94    3.62
  -2 -13   4   32.79    5.06
  -2 -13   4   34.12    4.14
  -1 -13   4   71.60    5.26
  -1 -13   4   72.97    6.05
   0 -13   4  116.54    7.44
   0 -13   4  124.80    6.68
   1 -13   4  143.81    7.25
   1 -13   4  136.13    7.85
   2 -13   4   34.46    4.00
   2 -13   4   44.30    4.76
   3 -13   4   33.44    4.24
   3 -13   4   33.31    3.94
  -3  13  -4   31.78    4.45
  -4  13  -4   -0.84    3.04
   4 -13   4    0.01    1.92
   4 -13   4    1.58    1.86
   5 -13   4   29.58    4.00
  -5  13  -4   17.39    4.22
   5 -13   4   18.33    3.44
  -6  13  -4   24.90    4.81
   6 -13   4   35.89    4.29
  -7  13  -4   33.21    5.33
   7 -13   4   33.97    4.35
  -8  13  -4    2.61    3.32
  -9  13  -4   20.28    5.06
 -10  13  -4    1.67    3.71
 -11  13  -4   19.54    5.41
 -12  13  -4    2.77    4.23
 -13  13  -4   -1.18    4.31
 -14  13  -4   -2.17    4.36
 -15  13  -4   -8.69    3.63
 -10 -12   4    0.49    2.25
  -9 -12   4    1.06    1.58
  -8 -12   4   44.08    6.76
  -7 -12   4   -0.11    2.61
  -7 -12   4    2.33    2.24
  -6 -12   4    3.55    3.01
  -6 -12   4    2.16    2.07
  -5 -12   4    4.06    2.97
  -5 -12   4    2.84    2.24
  -4 -12   4    1.26    2.35
  -4 -12   4    0.96    1.92
  -3 -12   4    2.21    2.59
  -3 -12   4    4.58    2.37
  -2 -12   4   52.81    4.73
  -2 -12   4   59.61    5.97
  -1 -12   4   25.62    4.25
  -1 -12   4   35.14    3.97
   0 -12   4   14.26    3.06
   0 -12   4   20.16    3.60
   1 -12   4    2.45    2.05
   1 -12   4    4.56    2.25
   2 -12   4   10.03    2.78
  -2  12  -4    7.27    2.96
   2 -12   4    4.69    2.17
   3 -12   4    1.51    2.03
   3 -12   4    1.78    1.93
  -3  12  -4   -1.89    2.87
  -4  12  -4    8.75    3.63
   4 -12   4    5.18    2.14
   4 -12   4    7.33    2.47
   5 -12   4    5.11    2.46
  -5  12  -4    3.59    3.42
   5 -12   4    9.59    2.46
  -6  12  -4  159.30    9.31
   6 -12   4  153.36    7.62
  -7  12  -4   31.08    5.26
   7 -12   4   22.70    3.76
  -8  12  -4    2.75    3.40
  -9  12  -4   16.08    4.31
 -10  12  -4    2.94    3.59
 -11  12  -4    1.00    3.49
 -12  12  -4    8.31    4.67
 -13  12  -4   -2.53    3.86
 -14  12  -4   -0.07    4.20
 -15  12  -4    6.40    5.45
 -16  12  -4   -2.81    4.66
 -11 -11   4    4.29    2.46
 -10 -11   4    3.42    1.77
 -10 -11   4   -3.54    2.24
  -9 -11   4    4.42    2.65
  -9 -11   4    8.97    3.45
  -8 -11   4   13.43    3.95
  -8 -11   4    6.92    2.79
  -7 -11   4   11.95    3.85
  -7 -11   4    9.43    2.83
  -6 -11   4    0.29    1.81
  -6 -11   4    0.32    2.07
  -5 -11   4   13.35    2.87
  -5 -11   4    9.64    3.33
  -4 -11   4    3.05    2.44
  -4 -11   4    4.70    2.11
  -3 -11   4   77.38    5.22
  -3 -11   4   74.68    6.55
  -2 -11   4    7.13    2.66
  -2 -11   4   10.78    2.63
  -1 -11   4   50.67    4.32
  -1 -11   4   49.49    4.98
   0 -11   4   11.43    2.69
   0 -11   4   18.32    3.41
  -1  11  -4   11.01    2.88
   1 -11   4    6.80    2.32
   1 -11   4    7.51    2.44
   2 -11   4    1.58    1.71
   2 -11   4    1.98    2.06
  -2  11  -4   -1.38    2.33
  -3  11  -4    8.74    3.24
   3 -11   4    7.10    2.37
   3 -11   4    5.20    2.14
   4 -11   4    6.21    2.16
   4 -11   4    4.27    2.05
  -4  11  -4    7.25    3.20
   5 -11   4   19.39    3.06
  -5  11  -4   28.03    4.67
   5 -11   4   22.66    3.39
  -6  11  -4  186.08   10.08
   6 -11   4  212.97    8.77
  -7  11  -4   26.16    4.96
  -8  11  -4  110.67    8.15
  -9  11  -4   78.54    7.60
 -10  11  -4    3.62    3.26
 -11  11  -4    0.60    3.40
 -12  11  -4   15.29    5.09
 -13  11  -4    4.45    4.32
 -14  11  -4   22.07    6.13
 -15  11  -4    5.41    5.14
 -16  11  -4    7.30    5.69
 -12 -10   4    6.13    3.76
 -11 -10   4    6.17    3.04
 -10 -10   4    1.38    2.35
  -9 -10   4    9.37    2.94
  -9 -10   4   20.70    4.62
  -8 -10   4    5.52    2.97
  -8 -10   4    1.42    2.06
  -7 -10   4   59.74    6.65
  -7 -10   4   69.65    5.18
  -6 -10   4   25.44    4.53
  -6 -10   4   19.70    3.45
  -5 -10   4   -0.37    1.63
  -5 -10   4   -2.63    1.62
  -4 -10   4  106.49    7.23
  -4 -10   4  113.49    6.19
  -3 -10   4   20.84    3.13
  -3 -10   4   25.29    4.18
  -2 -10   4   83.91    5.20
  -2 -10   4   87.72    6.08
  -1 -10   4    6.55    2.34
  -1 -10   4    4.79    2.15
   0  10  -4   48.27    3.91
   0 -10   4   47.17    4.37
   0 -10   4   44.54    3.87
   1 -10   4   51.37    4.11
   1 -10   4   50.12    3.99
   2 -10   4   55.25    4.18
  -2  10  -4   54.84    4.67
   2 -10   4   47.08    3.82
   3 -10   4  231.01    8.78
   3 -10   4  234.14    8.74
  -3  10  -4  253.68    9.96
   4 -10   4  148.47    6.80
   4 -10   4  150.34    6.61
  -4  10  -4  150.30    8.14
  -5  10  -4   61.12    5.78
   5 -10   4   70.51    4.79
   6 -10   4  100.16    5.70
  -6  10  -4   96.90    7.06
  -7  10  -4  128.00    8.35
  -8  10  -4   54.36    6.19
  -9  10  -4   45.50    5.95
 -10  10  -4   30.35    5.47
 -11  10  -4   61.44    7.23
 -12  10  -4   20.04    5.19
 -13  10  -4   20.35    5.74
 -14  10  -4    3.56    4.64
 -15  10  -4    0.43    4.25
 -16  10  -4   -1.29    4.79
 -13  -9   4    6.77    3.76
 -12  -9   4   11.83    3.50
 -11  -9   4   11.67    3.48
 -10  -9   4    4.54    2.54
  -9  -9   4    5.57    2.41
  -8  -9   4    4.97    2.31
  -7  -9   4  109.95    6.37
  -6  -9   4    3.62    1.93
  -6  -9   4    5.05    2.40
  -5  -9   4  269.62   11.67
  -5  -9   4  249.99    9.73
  -4  -9   4    5.07    2.36
  -4  -9   4    8.40    2.26
  -3  -9   4   16.66    2.93
  -3  -9   4   22.41    3.61
  -2  -9   4  104.75    6.30
  -2  -9   4  119.05    5.79
   1   9  -4    1.23    1.77
  -1  -9   4    2.47    1.74
  -1  -9   4    0.76    1.62
   0  -9   4   10.23    2.28
   0   9  -4   12.13    2.37
   0  -9   4   13.69    2.61
   1  -9   4  107.54    5.34
   1  -9   4  109.95    5.58
   2  -9   4  124.29    5.69
  -2   9  -4  121.81    6.34
   2  -9   4  133.83    5.92
  -3   9  -4  200.00    8.25
   3  -9   4  139.90    6.36
   3  -9   4  205.03    7.41
  -4   9  -4   18.13    3.57
   4  -9   4   16.04    2.66
  -5   9  -4   16.34    3.68
   5  -9   4   20.23    2.90
  -6   9  -4    3.63    2.76
   6  -9   4    6.48    2.36
  -7   9  -4    5.98    3.23
  -8   9  -4  102.77    7.65
  -9   9  -4   93.70    7.66
 -10   9  -4   29.64    5.37
 -12   9  -4   15.13    4.81
 -13   9  -4    0.10    3.64
 -14   9  -4    5.25    4.49
 -15   9  -4   -2.08    3.97
 -16   9  -4    3.95    4.86
 -17   9  -4   -0.79    5.11
 -14  -8   4    6.75    3.71
 -13  -8   4   -0.54    2.50
 -12  -8   4    0.23    2.31
 -11  -8   4    9.90    3.21
 -10  -8   4   70.33    5.90
  -9  -8   4   15.25    3.24
  -8  -8   4   45.53    4.58
  -7  -8   4   15.81    2.98
  -6  -8   4   85.94    5.27
  -5  -8   4   29.12    3.35
  -4  -8   4   24.55    3.14
  -4  -8   4   27.04    3.92
  -3  -8   4    9.57    2.17
  -3  -8   4   10.29    2.54
   2   8  -4   13.53    1.96
  -2  -8   4   15.75    2.90
  -2  -8   4   19.49    2.60
   1   8  -4    3.43    1.63
  -1  -8   4    3.69    1.81
  -1  -8   4    2.70    1.62
   0  -8   4  282.04    9.10
   0   8  -4  277.97    9.14
   0  -8   4  280.96    9.70
  -1   8  -4    3.03    1.59
   1  -8   4    1.28    1.22
   1  -8   4    3.49    1.54
   2  -8   4   90.98    4.72
  -2   8  -4   87.89    5.31
  -3   8  -4   -2.68    1.67
   3  -8   4    0.65    0.93
   3  -8   4   -0.63    1.21
   4  -8   4    5.76    1.53
  -4   8  -4    7.52    2.64
   4  -8   4   10.55    2.32
  -5   8  -4    7.66    2.94
   5  -8   4   13.91    2.54
  -6   8  -4  149.79    8.31
  -7   8  -4   16.36    3.85
  -8   8  -4  156.58    9.28
  -9   8  -4   22.97    4.92
 -10   8  -4   12.14    4.34
 -11   8  -4    3.82    3.50
 -12   8  -4    9.51    4.23
 -13   8  -4    1.85    3.85
 -14   8  -4   -4.95    3.31
 -15   8  -4    6.33    4.88
 -16   8  -4   -6.41    4.07
 -17   8  -4    0.31    5.51
 -14  -7   4    1.94    3.10
 -13  -7   4   17.40    4.13
 -12  -7   4   15.98    3.68
 -11  -7   4   19.60    3.97
 -10  -7   4   12.59    3.07
  -9  -7   4   82.70    5.74
  -8  -7   4   -0.41    1.56
  -7  -7   4    3.58    1.88
  -6  -7   4    3.67    1.80
  -5  -7   4    2.15    1.62
  -4  -7   4   61.80    4.00
   3   7  -4   23.33    1.90
  -3  -7   4   29.44    2.97
  -3  -7   4   26.01    3.36
  -2  -7   4   13.03    2.52
  -2  -7   4   13.43    2.26
   2   7  -4   14.18    1.74
   1   7  -4   78.39    3.93
  -1  -7   4   80.92    4.57
  -1  -7   4   82.35    4.27
   0   7  -4  406.51   12.00
   0  -7   4  423.84   11.76
   0  -7   4  441.92   12.53
   1  -7   4  184.72    6.66
  -1   7  -4  176.61    7.06
  -2   7  -4   16.81    2.84
   2  -7   4   15.42    1.91
   2  -7   4   19.59    2.38
   3  -7   4   48.58    3.50
  -3   7  -4   51.63    4.28
   3  -7   4   52.34    3.09
   4  -7   4    3.03    1.71
  -4   7  -4    3.88    2.12
   5  -7   4   -0.32    1.30
  -5   7  -4    0.65    1.91
  -6   7  -4   98.42    6.48
  -7   7  -4   66.54    5.95
  -8   7  -4    4.80    3.12
  -9   7  -4   11.83    4.13
 -10   7  -4   11.73    4.18
 -11   7  -4    3.91    3.44
 -12   7  -4    2.84    3.45
 -13   7  -4   -0.66    3.36
 -14   7  -4   21.01    5.46
 -15   7  -4   -4.01    3.45
 -16   7  -4    3.35    5.10
 -17   7  -4   16.07    7.04
 -15  -6   4   -1.60    3.08
 -14  -6   4   21.76    4.55
 -13  -6   4   -3.64    1.66
 -12  -6   4   16.49    3.69
 -11  -6   4   12.68    3.06
 -10  -6   4   88.63    6.09
  -9  -6   4   32.32    3.97
  -8  -6   4   18.80    3.17
  -7  -6   4    3.35    1.77
  -6  -6   4    5.88    1.97
  -5  -6   4  161.84    6.80
  -4  -6   4   10.47    2.09
   3   6  -4    1.09    0.89
  -3  -6   4    0.15    1.26
   2   6  -4   15.75    1.68
  -2  -6   4   19.59    2.36
  -2  -6   4   12.63    2.29
  -1  -6   4   52.22    3.43
   1   6  -4   49.57    3.01
  -1  -6   4   51.61    3.31
  -1   6  -4   23.19    2.69
   1  -6   4   27.23    2.20
   1  -6   4   22.34    2.37
   2  -6   4    1.76    1.04
   2  -6   4    2.05    1.51
  -2   6  -4   -0.71    1.44
  -3   6  -4  239.54    9.28
   3  -6   4  259.26    8.16
  -4   6  -4   -0.06    1.89
   4  -6   4    0.45    1.25
   5  -6   4   43.76    3.32
  -5   6  -4   41.30    4.37
  -6   6  -4  171.55    8.36
  -7   6  -4  119.21    7.38
  -8   6  -4  165.94    9.10
  -9   6  -4    0.87    2.79
 -10   6  -4    4.93    3.49
 -11   6  -4    5.65    3.65
 -12   6  -4  111.00    8.85
 -13   6  -4    5.63    3.72
 -14   6  -4   55.37    7.18
 -15   6  -4    0.38    4.05
 -16   6  -4    4.38    5.02
 -15  -5   4    4.11    3.15
 -14  -5   4   -1.78    2.57
 -13  -5   4   36.26    5.37
 -12  -5   4   50.13    5.63
 -11  -5   4    7.45    2.68
 -10  -5   4   15.48    3.12
  -9  -5   4   66.58    4.94
  -8  -5   4    9.97    2.46
  -7  -5   4    3.43    1.59
  -6  -5   4   11.16    2.20
  -5  -5   4   88.55    4.59
  -4  -5   4    0.67    1.14
  -3  -5   4  131.03    5.33
   3   5  -4  123.44    3.68
  -2  -5   4   28.12    2.44
   2   5  -4   25.05    2.01
  -1  -5   4    7.64    1.44
   1   5  -4   10.03    1.65
  -1  -5   4    9.27    1.67
   0  -5   4  135.46    4.93
   0  -5   4  140.55    5.14
   1  -5   4  254.32    7.23
   1  -5   4  248.88    7.61
  -1   5  -4  247.01    7.57
  -1   5  -4  262.01    8.58
   2  -5   4   36.01    2.16
  -2   5  -4   36.10    3.31
  -2   5  -4   42.15    3.13
   2  -5   4   34.29    2.65
  -3   5  -4   53.70    4.12
  -3   5  -4   55.63    3.73
   3  -5   4   50.72    3.34
   4  -5   4   31.95    2.81
  -4   5  -4   37.90    3.81
  -4   5  -4   40.42    3.50
  -5   5  -4   24.07    3.44
  -6   5  -4   33.42    4.18
  -7   5  -4   20.93    3.72
  -8   5  -4   59.65    5.73
  -9   5  -4   22.61    4.42
 -10   5  -4    2.31    3.15
 -11   5  -4   -1.50    2.77
 -12   5  -4    1.01    3.22
 -13   5  -4  101.01    8.41
 -14   5  -4    2.97    3.65
 -15   5  -4   -1.89    3.61
 -16  -4   4   -3.88    2.93
 -15  -4   4    8.83    3.71
 -14  -4   4   41.08    5.88
 -13  -4   4   -2.30    1.74
 -12  -4   4   22.24    4.15
 -11  -4   4   -2.30    1.63
 -10  -4   4   15.18    3.06
  -9  -4   4   58.43    4.86
  -8  -4   4  126.63    6.32
  -7  -4   4    4.79    1.79
  -6  -4   4   69.49    4.15
  -5  -4   4   21.06    2.55
  -4  -4   4    1.76    1.27
  -3  -4   4    3.14    1.29
   3   4  -4    2.11    0.83
  -2  -4   4   82.33    3.80
   2   4  -4   89.63    3.06
   2   4  -4   86.19    3.40
   1   4  -4  153.96    5.41
   1   4  -4  162.13    4.91
  -1  -4   4  157.56    5.40
   0  -4   4  743.70   17.37
   0  -4   4  753.91   17.64
   0   4  -4  775.84   18.93
   0   4  -4  734.29   16.85
  -1   4  -4   51.60    3.65
   1  -4   4   59.39    3.25
   1  -4   4   56.61    2.42
  -1   4  -4   56.26    3.26
  -2   4  -4  134.46    5.30
   2  -4   4  122.06    4.75
  -2   4  -4  122.78    5.72
   3  -4   4   33.95    2.59
  -3   4  -4   35.03    3.42
  -3   4  -4   36.44    3.13
  -4   4  -4  117.52    5.96
   4  -4   4  110.04    4.85
  -4   4  -4  112.25    5.35
  -5   4  -4   51.61    4.37
  -5   4  -4   43.43    3.70
  -6   4  -4   -1.40    1.69
  -6   4  -4    2.56    1.97
  -7   4  -4   91.23    6.19
  -8   4  -4  105.41    6.98
  -9   4  -4   15.49    3.86
 -10   4  -4   43.31    5.50
 -11   4  -4    5.95    3.20
 -12   4  -4   -0.84    2.77
 -13   4  -4    3.37    3.74
 -14   4  -4    8.11    4.28
 -16   4  -4    1.87    3.41
 -16  -3   4   15.38    4.31
 -15  -3   4   46.76    6.37
 -14  -3   4   -1.07    2.14
 -13  -3   4    1.16    2.15
 -12  -3   4   46.06    5.37
 -11  -3   4   24.14    4.04
 -10  -3   4   90.62    5.91
  -9  -3   4   81.58    5.25
  -8  -3   4  152.29    6.98
  -7  -3   4   13.15    2.37
  -6  -3   4    1.22    1.32
  -5  -3   4  299.70    9.13
  -4  -3   4  331.31    9.51
  -3  -3   4  118.15    3.66
  -3  -3   4  125.16    4.84
  -2  -3   4  376.84    9.95
  -2  -3   4  390.97    9.68
  -1  -3   4   54.26    3.12
  -1  -3   4   47.33    2.68
   0  -3   4   93.17    3.84
   0  -3   4  103.29    3.16
   0  -3   4   94.10    4.20
   1  -3   4   45.30    3.32
   1  -3   4   36.69    2.49
   2  -3   4   19.93    1.99
   2  -3   4   18.87    2.67
   3  -3   4   39.63    2.70
  -3   3  -4   34.79    3.40
  -3   3  -4   44.01    3.29
  -4   3  -4    3.77    1.84
  -4   3  -4    6.78    2.06
  -5   3  -4   86.56    4.86
  -5   3  -4   92.26    5.49
  -6   3  -4    3.46    2.10
  -6   3  -4    2.47    1.96
  -7   3  -4  354.76   12.54
  -7   3  -4  321.04   11.04
  -8   3  -4    2.90    2.34
  -8   3  -4    2.69    2.22
  -9   3  -4   56.00    5.65
 -10   3  -4   36.69    4.96
 -11   3  -4    5.63    3.17
 -12   3  -4   74.91    6.93
 -13   3  -4    2.49    3.43
 -15   3  -4    2.24    2.73
 -16   3  -4   29.89    5.77
 -17  -2   4   10.34    4.34
 -16  -2   4   19.54    4.80
 -15  -2   4   -2.79    2.31
 -14  -2   4    0.74    2.27
 -13  -2   4    5.66    2.69
 -12  -2   4   -0.82    1.70
 -11  -2   4  168.09    8.47
 -10  -2   4   91.56    5.81
  -9  -2   4   30.46    3.68
  -8  -2   4   50.13    4.11
  -8  -2   4   50.98    3.09
  -7  -2   4  158.87    6.64
  -7  -2   4  155.31    4.99
  -6  -2   4  201.31    5.78
  -6  -2   4  210.49    7.44
  -5  -2   4  517.88   13.14
  -5  -2   4  482.62   11.77
  -4  -2   4   74.87    2.79
  -4  -2   4   70.62    3.61
  -3  -2   4   23.42    2.11
  -3  -2   4   24.30    1.93
  -2  -2   4   72.11    3.22
  -2  -2   4   83.61    3.32
  -1  -2   4   22.59    2.08
  -1  -2   4   20.41    1.74
   0  -2   4   22.47    1.81
   0  -2   4   19.95    2.33
   1  -2   4  193.54    6.78
   1  -2   4  195.10    5.78
   2  -2   4   74.70    4.11
   2  -2   4   72.57    3.36
   3  -2   4   27.71    2.88
   4  -2   4  617.47   16.85
  -5   2  -4   -0.44    1.65
  -5   2  -4    1.06    1.56
  -6   2  -4   26.57    3.40
  -6   2  -4   21.04    2.96
  -7   2  -4   56.41    4.84
  -7   2  -4   56.70    4.52
  -8   2  -4  121.45    6.35
  -8   2  -4  117.25    6.96
  -9   2  -4   37.68    4.35
  -9   2  -4   43.70    4.88
 -10   2  -4   33.94    4.93
 -11   2  -4   41.46    5.18
 -12   2  -4   36.25    5.30
 -14   2  -4   64.73    6.70
 -15   2  -4    5.91    3.34
 -16   2  -4    6.21    3.26
 -17  -1   4   -0.20    2.85
 -16  -1   4   -2.39    2.43
 -15  -1   4    1.53    2.59
 -14  -1   4    7.61    3.13
 -13  -1   4   12.85    3.24
 -12  -1   4   15.04    3.43
 -11  -1   4   78.87    5.63
 -10  -1   4   11.14    2.65
  -9  -1   4   51.45    4.35
  -9  -1   4   45.20    3.50
  -8  -1   4   32.55    3.32
  -8  -1   4   27.97    2.52
  -7  -1   4   27.05    2.31
  -7  -1   4   29.19    2.97
  -6  -1   4  108.85    4.98
  -6  -1   4  115.81    4.23
  -5  -1   4    9.50    1.48
  -5  -1   4   14.23    1.94
  -4  -1   4  162.56    5.51
  -4  -1   4  168.49    5.07
  -3  -1   4   14.92    1.68
  -3  -1   4   19.11    1.86
  -2  -1   4   16.00    1.83
  -2  -1   4   14.27    1.45
  -1  -1   4  253.97    6.59
  -1  -1   4  264.80    7.46
   0  -1   4   75.41    3.92
   0  -1   4   76.52    3.06
   1  -1   4   13.03    1.58
   1  -1   4   12.25    2.24
   2  -1   4  129.57    4.52
   2  -1   4  138.09    5.59
   3  -1   4  137.55    5.90
   4  -1   4   -1.41    1.68
   5  -1   4   52.29    4.18
  -6   1  -4   20.63    3.12
  -6   1  -4   16.85    2.66
  -7   1  -4   45.12    4.28
  -7   1  -4   47.90    4.05
  -8   1  -4    9.55    2.76
  -8   1  -4   15.17    3.14
  -9   1  -4    4.58    2.48
  -9   1  -4    4.02    2.39
 -10   1  -4   -0.08    2.55
 -11   1  -4   28.21    4.58
 -13   1  -4   37.58    5.15
 -14   1  -4    3.78    2.56
 -15   1  -4   10.37    3.55
 -16   1  -4   -0.08    3.04
 -17   0   4    3.34    2.85
 -16   0   4   -0.51    2.79
 -15   0   4    3.53    2.70
 -14   0   4   95.17    7.15
 -13   0   4   21.11    4.08
 -12   0   4   46.44    5.03
 -11   0   4  100.53    6.27
 -10   0   4   16.47    3.11
 -10   0   4   20.85    2.98
  -9   0   4    1.75    1.79
  -9   0   4    0.90    1.28
  -8   0   4  178.54    7.16
  -8   0   4  176.77    6.37
  -7   0   4    1.56    1.17
  -7   0   4    2.73    1.61
  -6   0   4  211.17    7.19
  -6   0   4  217.34    6.77
  -5   0   4   54.65    3.21
  -5   0   4   59.77    3.27
  -4   0   4  292.71    8.04
  -4   0   4  285.71    8.14
  -3   0   4  583.04   14.39
  -3   0   4  592.56   13.48
  -2   0   4   61.33    2.49
  -2   0   4   60.73    3.24
  -1   0   4  134.65    3.85
  -1   0   4  133.02    4.86
   0   0   4  887.22   20.18
   0   0  -4  897.33   18.88
   0   0   4  725.56   17.67
   1   0   4  492.55   13.19
   1   0   4  504.50   11.49
  -1   0  -4  503.06   12.06
   2   0   4   25.58    2.70
   3   0   4  125.35    5.49
   4   0   4   14.71    2.51
   5   0   4   56.68    4.12
   6   0   4    3.94    2.30
  -7   0  -4   39.26    3.99
  -7   0  -4   35.23    3.64
  -8   0  -4   59.79    4.50
  -8   0  -4   66.62    5.06
  -9   0  -4    0.96    2.12
  -9   0  -4    3.08    2.21
 -10   0  -4    6.37    3.01
 -10   0  -4   13.40    3.09
 -11   0  -4    2.89    2.25
 -12   0  -4    1.10    2.23
 -13   0  -4    0.76    2.29
 -14   0  -4    6.16    3.20
 -15   0  -4   -0.46    2.90
 -18   1   4    8.68    4.08
 -17   1   4    7.96    3.97
 -16   1   4  102.68    8.57
 -15   1   4   26.53    4.76
 -14   1   4  158.42    8.92
 -13   1   4    8.45    2.93
 -12   1   4    5.34    2.37
 -11   1   4   35.51    4.15
 -11   1   4   38.20    3.89
 -10   1   4   -1.32    2.06
 -10   1   4    1.87    1.59
  -9   1   4   62.14    4.21
  -9   1   4   58.01    4.13
  -8   1   4  326.05    9.80
  -8   1   4  304.84   10.12
  -7   1   4   88.71    4.50
  -7   1   4   93.18    4.51
  -6   1   4   29.00    2.55
  -6   1   4   32.04    2.65
  -5   1   4   11.40    1.96
  -5   1   4   10.13    1.64
  -4   1   4  143.94    5.32
  -4   1   4  143.89    4.78
  -3   1   4   86.31    4.19
  -3   1   4   81.93    3.04
  -2   1   4   30.28    2.38
  -1   1   4  316.55    9.08
  -1   1   4  326.25    7.33
   1  -1  -4  324.82    8.29
   0   1   4   97.72    2.98
   0  -1  -4   98.09    3.55
   0   1   4   94.22    4.44
   1   1   4  492.10   13.12
  -1  -1  -4  503.64   12.61
   2   1   4   11.90    2.14
   3   1   4   75.25    4.23
   4   1   4   82.80    4.62
   5   1   4    2.35    2.25
   6   1   4   24.61    3.18
  -8  -1  -4    0.50    1.96
  -8  -1  -4    1.43    1.98
  -9  -1  -4    6.18    2.51
  -9  -1  -4   -0.44    2.16
 -10  -1  -4   12.95    3.03
 -11  -1  -4   61.77    5.55
 -12  -1  -4   10.67    3.30
 -13  -1  -4    5.05    2.96
 -14  -1  -4   11.54    3.63
 -15  -1  -4    3.35    3.30
 -18   2   4   -0.01    3.07
 -17   2   4    5.59    3.16
 -16   2   4   25.58    4.76
 -15   2   4    8.37    3.15
 -14   2   4   12.85    3.34
 -13   2   4    8.80    2.86
 -12   2   4   69.16    5.80
 -12   2   4   65.65    5.35
 -11   2   4    6.53    2.27
 -11   2   4    6.14    2.68
 -10   2   4   25.58    3.37
 -10   2   4   26.99    3.44
  -9   2   4    4.39    1.70
  -9   2   4    5.01    2.21
  -8   2   4  666.66   17.46
  -8   2   4  672.81   17.85
  -7   2   4   26.51    2.64
  -7   2   4   28.42    2.89
  -6   2   4   49.78    3.00
  -6   2   4   47.54    3.65
  -5   2   4   13.14    2.27
  -5   2   4   13.22    1.65
  -4   2   4  113.11    3.87
  -4   2   4  118.56    5.05
  -3   2   4  602.81   15.55
  -3   2   4  614.33   13.38
   2  -2  -4  430.19   11.07
  -2   2   4  435.98    9.33
  -2   2   4  424.20   11.58
  -1   2   4  207.92    6.86
   1  -2  -4  214.94    6.41
  -1   2   4  212.43    4.82
   0   2   4 3298.93   73.78
   0  -2  -4 3352.70   72.74
  -1  -2  -4 2254.14   50.28
   1   2   4 2233.03   50.81
   2   2   4    3.97    1.79
   3   2   4  287.10    9.22
   4   2   4   35.91    3.31
   5   2   4   86.19    5.03
   6   2   4  177.70    7.40
  -7  -2  -4    4.16    1.80
   7   2   4   -0.53    0.84
  -8  -2  -4   10.54    2.61
  -8  -2  -4   10.54    2.54
  -8  -2  -4    9.85    2.74
  -9  -2  -4   31.74    3.89
 -10  -2  -4    6.32    2.44
 -11  -2  -4   11.26    3.00
 -12  -2  -4    4.30    2.50
 -13  -2  -4    3.91    2.78
 -14  -2  -4    6.06    3.18
 -15  -2  -4   -5.76    2.67
 -18   3   4    1.66    1.78
 -17   3   4    3.99    3.02
 -16   3   4    7.25    3.32
 -15   3   4    6.22    2.99
 -14   3   4   15.31    3.44
 -13   3   4   10.86    3.46
 -13   3   4   14.50    3.31
 -12   3   4   26.50    3.95
 -12   3   4   24.74    3.82
 -11   3   4   62.97    4.87
 -11   3   4   75.03    5.32
 -10   3   4    6.37    2.66
 -10   3   4   10.25    2.44
  -9   3   4  133.08    6.51
  -9   3   4  155.77    6.64
  -8   3   4   92.58    4.71
  -8   3   4   98.63    5.29
  -7   3   4  106.97    5.26
  -7   3   4  110.15    4.83
  -6   3   4   68.90    3.49
  -6   3   4   72.90    4.36
  -5   3   4   95.35    4.79
  -5   3   4   87.61    3.59
  -4   3   4    5.68    1.86
  -4   3   4    2.98    0.92
   3  -3  -4    0.66    1.20
  -3   3   4   -2.00    1.73
  -3   3   4    0.41    0.65
   2  -3  -4  126.63    4.95
  -2   3   4  132.23    5.25
   1  -3  -4  221.47    7.01
  -1   3   4  212.99    7.26
   0  -3  -4  875.63   21.51
   0   3   4  875.56   21.52
   1   3   4  378.27   10.99
  -1  -3  -4  396.20   11.45
  -2  -3  -4    3.09    1.62
   2   3   4    6.62    1.74
  -3  -3  -4  108.15    4.42
   3   3   4  104.50    5.05
   4   3   4   11.12    1.94
  -4  -3  -4   14.79    2.06
  -6  -3  -4   64.68    4.12
  -7  -3  -4  171.05    7.32
   7   3   4  163.82    7.37
  -8  -3  -4    6.48    2.16
  -9  -3  -4    6.39    2.33
 -10  -3  -4   21.73    3.61
 -11  -3  -4   -3.45    1.61
 -12  -3  -4    2.44    2.18
 -13  -3  -4   39.47    5.43
 -14  -3  -4   16.87    4.29
 -15  -3  -4    7.83    5.76
 -18   4   4    0.69    1.41
 -17   4   4    9.85    3.64
 -16   4   4    4.15    2.91
 -15   4   4   -0.49    2.00
 -14   4   4   15.65    3.86
 -14   4   4   22.09    4.04
 -13   4   4   25.40    4.17
 -13   4   4   26.83    4.05
 -12   4   4  146.64    7.97
 -12   4   4  140.41    7.41
 -11   4   4  260.25   10.18
 -11   4   4  243.53    9.70
 -10   4   4   82.59    5.60
 -10   4   4   88.93    5.34
  -9   4   4   15.72    3.02
  -9   4   4   18.70    2.76
  -8   4   4   27.35    3.25
  -7   4   4   23.09    2.97
  -6   4   4  197.78    7.45
  -5   4   4  152.77    6.44
   4  -4  -4   16.62    2.18
  -4   4   4   12.76    2.36
  -3   4   4  471.51   10.29
  -3   4   4  466.49   13.12
   3  -4  -4  478.23   13.00
   2  -4  -4    6.13    1.53
  -2   4   4    6.60    2.09
  -1   4   4  727.70   18.66
   1  -4  -4  749.63   18.83
   0  -4  -4   19.13    2.52
   0   4   4   24.57    2.50
   0  -4  -4   19.14    1.26
   1   4   4   24.41    2.53
  -1  -4  -4   26.91    1.72
  -1  -4  -4   24.58    2.85
   2   4   4  532.88   14.72
  -2  -4  -4  538.10   15.71
  -2  -4  -4  552.58   12.89
  -3  -4  -4  169.16    5.75
  -3  -4  -4  165.17    7.50
  -5  -4  -4  491.35   13.73
   5   4   4  520.13   14.78
  -6  -4  -4   74.60    4.56
   6   4   4   83.09    5.25
   7   4   4    1.29    2.54
  -7  -4  -4    3.11    1.76
  -8  -4  -4   27.10    3.58
  -9  -4  -4    0.14    1.76
 -10  -4  -4   81.69    5.82
 -11  -4  -4    4.35    2.52
 -12  -4  -4   28.56    4.68
 -13  -4  -4    5.19    3.07
 -18   5   4    1.60    1.34
 -17   5   4   10.48    3.63
 -16   5   4   -0.15    2.33
 -15   5   4   46.38    5.66
 -15   5   4   29.90    4.73
 -14   5   4   88.00    6.86
 -14   5   4   77.23    6.46
 -13   5   4   14.11    3.19
 -13   5   4   16.13    3.85
 -12   5   4   72.26    5.95
 -12   5   4   68.92    5.23
 -11   5   4   13.80    3.48
 -11   5   4   10.39    2.64
 -10   5   4    2.94    2.84
  -9   5   4   42.51    4.22
  -8   5   4  158.31    7.05
  -7   5   4   33.90    3.62
  -6   5   4  214.92    8.26
  -5   5   4   57.91    4.34
  -4   5   4  191.80    7.31
   4  -5  -4  185.25    6.97
   3  -5  -4    3.20    1.46
  -3   5   4    0.12    1.79
   2  -5  -4   14.40    2.27
  -2   5   4   20.37    2.58
   1  -5  -4  635.36   17.17
  -1   5   4  641.73   16.88
   0   5   4  102.60    4.91
   0  -5  -4   97.05    5.22
   0  -5  -4  102.47    3.03
  -1  -5  -4   83.57    5.03
  -1  -5  -4   78.88    3.03
   1   5   4   79.33    4.49
  -2  -5  -4   46.91    4.21
  -2  -5  -4   52.50    2.69
   3   5   4    0.71    1.63
  -3  -5  -4    2.36    1.87
  -3  -5  -4    1.49    1.10
  -4  -5  -4   28.64    2.65
   4   5   4   31.10    3.36
  -4  -5  -4   30.44    3.98
  -5  -5  -4    0.81    1.24
   5   5   4    2.91    2.39
   6   5   4    0.34    2.42
  -6  -5  -4    2.23    1.59
  -7  -5  -4   12.56    2.70
  -8  -5  -4   53.40    4.66
  -9  -5  -4   40.55    4.45
 -10  -5  -4   10.03    2.87
 -11  -5  -4   39.85    4.99
 -18   6   4    1.92    1.86
 -17   6   4   13.20    3.70
 -16   6   4    6.87    4.18
 -16   6   4    3.26    2.58
 -15   6   4  187.82    9.74
 -15   6   4  181.53   10.09
 -14   6   4   -0.28    1.90
 -14   6   4    5.08    3.17
 -13   6   4   -0.86    1.78
 -13   6   4    3.10    3.06
 -12   6   4   12.34    3.86
 -11   6   4   74.04    6.06
 -10   6   4    0.79    2.73
  -9   6   4   10.52    3.06
  -8   6   4   68.59    5.13
  -7   6   4   30.00    3.66
  -6   6   4  318.63   10.91
  -5   6   4   61.52    4.66
   5  -6  -4   67.95    4.23
   4  -6  -4    3.84    1.68
  -4   6   4    5.78    2.09
  -3   6   4   14.43    2.57
   3  -6  -4   15.90    2.48
   2  -6  -4  117.73    5.58
  -2   6   4  121.42    5.62
   2  -6  -4  110.96    2.95
  -1   6   4  177.55    6.85
   1  -6  -4  165.85    7.21
   1  -6  -4  176.01    4.32
   0  -6  -4   68.07    4.67
   0   6   4   69.23    4.40
   0  -6  -4   75.41    2.66
   1   6   4  256.02    8.58
  -1  -6  -4  246.38    6.64
  -1  -6  -4  240.15    9.66
  -2  -6  -4   44.46    4.37
  -2  -6  -4   39.89    2.45
  -3  -6  -4   42.42    4.54
  -3  -6  -4   42.29    2.79
   3   6   4   37.42    3.48
  -4  -6  -4   18.15    2.29
   4   6   4   23.92    3.12
  -5  -6  -4   -1.56    1.00
  -5  -6  -4   -0.46    1.60
   5   6   4    2.52    2.40
  -6  -6  -4    1.04    1.56
  -6  -6  -4    1.53    2.10
  -7  -6  -4   76.75    5.04
  -8  -6  -4   21.05    3.31
 -19   7   4    2.20    2.12
 -18   7   4    0.98    2.05
 -17   7   4    5.11    3.14
 -17   7   4   -2.34    3.60
 -16   7   4   14.08    4.64
 -16   7   4    8.66    3.09
 -15   7   4    1.62    3.45
 -15   7   4    6.55    3.09
 -14   7   4    5.36    3.50
 -14   7   4   10.89    3.24
 -13   7   4   -0.54    3.32
 -12   7   4   78.37    6.60
 -11   7   4   11.98    3.81
 -10   7   4  174.64    8.87
  -9   7   4   52.12    5.02
  -8   7   4  304.67   11.24
  -7   7   4   29.44    3.90
  -6   7   4    2.96    2.41
   5  -7  -4    1.84    1.59
  -5   7   4    4.59    2.20
   4  -7  -4  194.31    7.91
  -4   7   4  209.95    8.32
  -3   7   4  456.12   13.77
   3  -7  -4  459.86   14.02
   2  -7  -4   82.53    5.07
  -2   7   4   88.08    5.06
   2  -7  -4   83.91    2.64
   1  -7  -4  131.49    6.51
   1  -7  -4  116.17    3.49
  -1   7   4  112.35    5.76
   0  -7  -4   68.73    2.72
   0   7   4   60.97    4.31
   0  -7  -4   56.82    4.48
  -1  -7  -4  127.01    4.37
  -1  -7  -4  134.99    7.15
  -2  -7  -4   26.22    3.87
   2   7   4   24.55    3.23
  -2  -7  -4   28.69    2.19
  -3  -7  -4   28.61    2.45
  -3  -7  -4   27.61    4.12
  -4  -7  -4    1.99    1.94
   4   7   4   -0.86    2.26
  -4  -7  -4   -0.77    1.05
  -5  -7  -4   37.09    3.35
  -5  -7  -4   39.55    5.15
  -6  -7  -4   33.63    5.09
  -7  -7  -4   77.69    7.45
  -8  -7  -4    8.20    3.67
  -9  -7  -4    4.81    3.30
 -10  -7  -4   -0.26    3.35
 -11  -7  -4    0.37    3.51
 -12  -7  -4    1.52    4.60
 -19   8   4    3.04    2.09
 -18   8   4    2.39    4.14
 -18   8   4    2.72    2.56
 -17   8   4    8.40    3.37
 -17   8   4    9.24    4.48
 -16   8   4    0.19    2.56
 -16   8   4    0.67    3.86
 -15   8   4    2.02    2.54
 -15   8   4    2.20    3.59
 -14   8   4   49.86    6.04
 -13   8   4   14.45    4.19
 -12   8   4    1.11    3.35
 -11   8   4   90.67    7.04
 -10   8   4  102.37    7.11
  -9   8   4   80.73    6.26
  -8   8   4    3.97    2.85
  -7   8   4   21.93    3.65
  -6   8   4   27.92    3.69
   6  -8  -4   30.89    3.55
   5  -8  -4    1.30    1.40
  -5   8   4    0.57    2.19
  -4   8   4  152.94    7.26
   4  -8  -4  145.46    6.88
   3  -8  -4  232.54    9.26
  -3   8   4  254.16    9.34
   2  -8  -4   -0.11    1.43
   2  -8  -4   -0.12    0.80
  -2   8   4    0.54    2.09
   1  -8  -4    1.22    0.93
  -1   8   4    1.24    2.15
   1  -8  -4   -0.48    1.30
   0  -8  -4   18.95    3.34
   0   8   4   22.50    3.06
   0  -8  -4   24.11    1.87
   1   8   4   -0.96    1.09
  -1  -8  -4   -1.59    1.66
  -2  -8  -4   36.88    4.72
   2   8   4   39.56    3.73
   3   8   4   39.60    3.82
  -3  -8  -4   32.57    4.76
  -4  -8  -4   22.13    4.25
  -5  -8  -4   67.24    6.70
  -6  -8  -4   33.76    5.39
  -7  -8  -4   13.20    4.09
  -8  -8  -4    6.43    3.56
  -9  -8  -4    8.42    4.01
 -10  -8  -4   38.38    7.09
 -11  -8  -4   29.89    6.66
 -19   9   4    2.31    3.47
 -18   9   4    5.16    4.98
 -18   9   4    7.11    3.33
 -17   9   4   -0.85    3.49
 -17   9   4    1.54    2.63
 -16   9   4    1.98    3.66
 -16   9   4   -0.82    2.63
 -15   9   4    4.90    3.95
 -14   9   4   41.05    5.85
 -13   9   4   32.73    5.19
 -12   9   4    6.84    3.66
 -11   9   4    7.01    3.64
 -10   9   4   13.57    3.80
  -9   9   4   10.32    3.66
  -8   9   4   67.42    5.96
  -7   9   4   21.19    3.97
  -6   9   4    1.76    2.65
   6  -9  -4    5.79    2.11
  -5   9   4   15.28    3.37
   5  -9  -4   18.16    3.11
   4  -9  -4   88.23    5.58
  -4   9   4   90.04    5.98
   3  -9  -4    7.30    2.16
  -3   9   4    8.19    2.73
   2  -9  -4    0.12    1.50
  -2   9   4    1.12    2.30
   1  -9  -4   -0.19    1.55
  -1   9   4    3.37    2.44
   0   9   4    2.35    1.62
   0  -9  -4    3.24    1.94
  -1  -9  -4   30.00    4.39
   1   9   4   25.93    3.60
   2   9   4   63.46    5.00
  -2  -9  -4   61.05    5.95
  -3  -9  -4   -0.16    1.84
  -4  -9  -4   29.40    4.98
  -5  -9  -4   11.67    3.74
  -6  -9  -4    2.89    2.72
  -7  -9  -4   27.88    5.57
  -8  -9  -4   -0.23    3.11
  -9  -9  -4    6.91    4.25
 -10  -9  -4   13.08    4.99
 -19  10   4    1.44    5.12
 -19  10   4   -1.79    3.25
 -18  10   4    2.00    2.89
 -18  10   4    1.13    4.29
 -17  10   4    5.59    3.68
 -17  10   4   10.10    4.92
 -16  10   4   15.89    4.96
 -15  10   4   10.07    4.24
 -14  10   4   11.83    4.12
 -13  10   4  140.37    9.01
 -12  10   4   -0.80    3.11
 -11  10   4   12.12    4.19
 -10  10   4   -1.20    2.79
  -9  10   4   44.27    5.40
  -8  10   4    1.90    3.22
  -7  10   4   14.63    4.04
   7 -10  -4    8.52    2.51
  -6  10   4   -1.03    2.94
   6 -10  -4    0.31    1.52
   5 -10  -4    6.89    2.29
  -5  10   4   10.13    3.28
  -4  10   4   31.43    4.35
   4 -10  -4   30.80    3.98
  -3  10   4   11.54    3.17
   3 -10  -4    9.07    2.47
   2 -10  -4   25.06    3.86
  -2  10   4   27.80    3.89
  -1  10   4   10.84    3.03
   1 -10  -4    2.50    1.84
   0  10   4    0.98    0.87
   0 -10  -4    0.37    2.03
   1  10   4   47.50    4.47
  -1 -10  -4   41.11    5.33
  -2 -10  -4   60.68    6.39
  -3 -10  -4    1.34    2.46
  -4 -10  -4    9.30    3.32
  -5 -10  -4    0.25    2.85
  -6 -10  -4   60.70    7.66
  -7 -10  -4    1.38    2.70
  -8 -10  -4   18.58    5.31
  -9 -10  -4    6.05    4.69
 -19  11   4    2.65    3.67
 -19  11   4    3.67    5.37
 -18  11   4    6.99    3.42
 -18  11   4    8.91    4.96
 -17  11   4    2.84    4.64
 -16  11   4    2.93    4.15
 -15  11   4   -3.35    3.37
 -14  11   4   16.22    4.91
 -13  11   4   29.41    5.28
 -12  11   4   39.64    5.68
 -11  11   4    5.47    3.74
 -10  11   4    8.20    4.00
  -9  11   4    0.09    3.00
  -8  11   4    2.33    3.49
   7 -11  -4  105.48    6.57
  -7  11   4   90.05    7.29
   6 -11  -4   19.69    3.56
  -6  11   4   20.80    4.40
  -5  11   4   24.43    4.36
   5 -11  -4   22.80    3.76
  -4  11   4   12.58    3.47
   4 -11  -4    6.95    2.48
   3 -11  -4   90.28    6.18
  -3  11   4   81.44    6.17
   2 -11  -4   10.16    2.98
  -2  11   4    4.88    2.88
  -1  11   4    5.60    2.93
   1 -11  -4   -1.16    1.33
   0 -11  -4   30.60    4.75
  -1 -11  -4   58.08    6.47
  -2 -11  -4    2.94    2.73
  -3 -11  -4    3.10    2.72
  -4 -11  -4    1.69    2.77
  -5 -11  -4   74.70    8.26
  -6 -11  -4   19.22    5.47
  -7 -11  -4   26.16    6.28
  -8 -11  -4    9.88    5.09
 -19  12   4   16.73    5.47
 -18  12   4    1.79    4.95
 -18  12   4   -2.35    2.48
 -17  12   4    7.15    5.05
 -16  12   4   -1.81    3.86
 -15  12   4   18.00    5.27
 -14  12   4   -0.77    3.37
 -13  12   4   -0.53    3.52
 -12  12   4   24.95    5.32
 -11  12   4    1.34    3.06
 -10  12   4    5.44    3.84
  -9  12   4  133.97    8.77
  -8  12   4   13.42    4.33
  -7  12   4   -3.40    3.07
   7 -12  -4    2.38    1.89
  -6  12   4   41.56    5.21
   6 -12  -4   39.78    4.91
   5 -12  -4    8.76    2.69
  -5  12   4    6.93    3.64
  -4  12   4   -0.34    3.12
   4 -12  -4    0.16    1.84
   3 -12  -4   15.44    3.49
  -3  12   4   21.37    3.93
  -2  12   4   61.01    5.26
   2 -12  -4   51.55    5.63
  -1  12   4  117.74    6.39
   1 -12  -4  141.60    8.57
   0 -12  -4   52.11    6.15
  -1 -12  -4    5.82    2.69
  -2 -12  -4    5.97    3.40
  -3 -12  -4   55.98    7.15
  -4 -12  -4    9.20    4.20
  -5 -12  -4   13.72    4.77
  -6 -12  -4   23.24    6.07
  -7 -12  -4   26.07    6.56
 -18  13   4   15.54    6.18
 -17  13   4    2.60    4.81
 -16  13   4    4.64    4.54
 -15  13   4   14.48    5.01
 -14  13   4   40.31    6.56
 -13  13   4    4.90    4.35
 -12  13   4   23.68    5.32
 -11  13   4   11.85    4.43
 -10  13   4   49.32    6.26
  -9  13   4   -0.40    3.26
   8 -13  -4    6.57    2.83
  -8  13   4    5.59    3.68
   7 -13  -4   17.56    3.88
  -7  13   4   24.13    4.78
  -6  13   4    2.75    3.25
   6 -13  -4   -1.02    1.65
  -5  13   4   35.85    4.93
   5 -13  -4   38.75    5.10
  -4  13   4   87.27    6.48
   4 -13  -4   83.84    6.66
   3 -13  -4   -0.75    1.64
  -3  13   4   -1.79    2.44
   2 -13  -4   65.85    6.70
  -2  13   4   74.14    5.80
   1 -13  -4   18.18    4.01
   0 -13  -4    6.77    2.84
  -1 -13  -4    5.36    2.86
  -2 -13  -4    2.19    2.92
  -3 -13  -4   16.98    5.05
  -4 -13  -4   14.46    5.23
  -5 -13  -4   31.81    7.18
  -6 -13  -4    7.13    4.89
 -17  14   4    7.47    5.63
 -16  14   4    1.27    4.33
 -15  14   4    1.92    4.53
 -14  14   4    7.13    4.68
 -13  14   4   28.99    6.13
 -12  14   4   -2.53    3.56
 -11  14   4    6.72    4.07
 -10  14   4    5.39    3.98
  -9  14   4   13.16    4.45
  -8  14   4   -1.22    3.35
   8 -14  -4    3.71    2.66
   7 -14  -4    3.77    2.56
  -7  14   4   -0.69    3.23
   6 -14  -4    4.06    2.65
  -6  14   4    8.71    3.57
   5 -14  -4  150.91    9.03
  -5  14   4  148.93    8.72
   4 -14  -4    2.37    2.35
  -4  14   4   -2.42    2.62
  -3  14   4   14.46    3.61
   3 -14  -4   15.29    3.82
   2 -14  -4    5.47    2.93
   1 -14  -4    0.52    2.45
   0 -14  -4   20.76    4.62
  -1 -14  -4   49.66    6.90
  -2 -14  -4   -0.60    2.52
  -3 -14  -4   -0.97    2.43
  -4 -14  -4   23.95    6.16
  -5 -14  -4    5.59    4.57
 -16  15   4    3.76    4.99
 -15  15   4    7.36    5.01
 -14  15   4   -1.14    4.27
 -13  15   4   -2.90    3.81
 -12  15   4    3.49    4.16
 -11  15   4   25.75    5.80
 -10  15   4   33.64    6.07
  -9  15   4   -2.57    3.31
   8 -15  -4    3.40    2.54
  -8  15   4    1.15    3.47
  -7  15   4    0.89    3.49
   7 -15  -4    1.27    2.55
  -6  15   4   40.52    5.70
   6 -15  -4   55.00    6.51
  -5  15   4   20.79    4.44
   5 -15  -4   15.17    3.88
   4 -15  -4   10.08    3.49
  -4  15   4   12.36    3.67
   3 -15  -4    3.42    2.90
   2 -15  -4    5.48    2.81
   1 -15  -4    1.95    2.68
   0 -15  -4   34.77    5.97
  -1 -15  -4    0.50    2.41
  -2 -15  -4    2.70    2.08
  -3 -15  -4    0.30    1.79
 -15  16   4   -0.84    2.36
 -14  16   4   -0.50    1.85
 -13  16   4    6.33    4.84
 -12  16   4   18.32    5.50
 -11  16   4    7.24    4.68
 -10  16   4    2.44    4.02
  -9  16   4    9.59    4.46
   8 -16  -4    2.98    2.71
  -8  16   4   -1.96    3.54
  -7  16   4   19.63    4.69
   7 -16  -4   17.63    4.43
  -6  16   4   -1.70    3.05
   6 -16  -4    2.09    2.91
  -5  16   4   -2.07    2.98
   5 -16  -4    1.55    2.70
   4 -16  -4    4.20    3.00
   3 -16  -4   -2.47    2.23
   2 -16  -4    1.53    2.74
   1 -16  -4   10.12    3.65
   0 -16  -4    2.28    2.35
  -1 -16  -4    2.01    1.45
  -2 -16  -4    0.28    1.75
 -14  17   4   -0.21    2.55
 -13  17   4   -2.77    2.03
 -12  17   4   -1.15    3.86
 -11  17   4    8.60    5.13
 -10  17   4   76.58    8.12
  -9  17   4    4.87    4.14
   8 -17  -4    8.30    3.69
  -8  17   4   11.68    4.55
   7 -17  -4    4.93    3.11
  -7  17   4   -3.02    3.43
   6 -17  -4   15.42    4.69
   5 -17  -4    2.48    3.06
   4 -17  -4    3.30    3.01
   3 -17  -4   -0.38    3.41
   2 -17  -4    1.19    1.73
   1 -17  -4   -2.69    1.50
   0 -17  -4   -0.41    2.08
 -13  18   4   -0.79    2.56
 -12  18   4   -0.47    3.01
 -11  18   4   25.88    6.02
 -10  18   4    0.69    4.28
  -9  18   4    3.71    4.47
   9 -18  -4    6.59    3.63
  -8  18   4   11.88    4.61
   8 -18  -4    1.24    2.70
   7 -18  -4   -0.04    2.40
   6 -18  -4   -0.84    1.92
   5 -18  -4    0.77    1.56
   4 -18  -4    0.13    1.56
   3 -18  -4   -1.29    1.58
   2 -18  -4   -2.94    2.07
 -11  19   4    1.62    5.02
 -10  19   4    4.08    4.99
  -9  19   4    4.61    4.06
   9 -19  -4    0.47    4.07
   8 -19  -4    4.00    4.18
   7 -19  -4   -1.41    2.05
   6 -19  -4    1.44    2.35
  -9  19  -5   -6.79    4.34
 -10  19  -5   -0.16    5.03
  -8  18  -5   -1.57    3.96
  -9  18  -5    1.38    4.44
 -10  18  -5    2.83    4.69
 -11  18  -5    2.98    5.59
  -4 -17   5    6.04    3.97
  -3 -17   5    0.53    2.49
  -2 -17   5    8.07    3.42
  -1 -17   5    3.72    3.05
  -7  17  -5    5.88    4.56
   7 -17   5   17.49    4.31
  -8  17  -5    0.37    3.83
  -9  17  -5    3.67    4.54
 -10  17  -5   -0.70    4.51
 -11  17  -5    7.19    4.60
 -12  17  -5   -2.09    2.67
  -5 -16   5    6.89    3.89
  -4 -16   5   27.28    5.67
  -3 -16   5   15.47    4.28
  -2 -16   5   10.17    3.83
  -1 -16   5    2.35    2.82
   0 -16   5    7.81    3.50
   1 -16   5   11.63    3.69
   3 -16   5   15.79    3.71
   6 -16   5   27.66    4.68
  -6  16  -5   41.30    5.93
  -7  16  -5   32.13    5.61
   7 -16   5   36.49    5.17
  -8  16  -5   -1.73    3.42
  -9  16  -5   -3.41    3.86
 -10  16  -5   17.36    5.63
 -11  16  -5   -5.55    3.52
 -12  16  -5   -1.53    2.40
 -13  16  -5   -2.36    2.43
  -7 -15   5    9.19    4.98
  -6 -15   5   27.37    5.49
  -5 -15   5   -0.41    2.87
  -4 -15   5   54.58    7.23
  -3 -15   5   11.09    3.88
  -2 -15   5    0.33    3.05
  -1 -15   5    0.68    2.48
   0 -15   5    8.48    2.96
   0 -15   5    1.39    2.64
   1 -15   5   -2.44    1.75
   1 -15   5   -0.66    2.24
   2 -15   5   53.85    5.79
   2 -15   5   60.11    5.73
   3 -15   5    4.20    2.51
   3 -15   5    2.30    2.52
   4 -15   5   25.34    4.15
  -5  15  -5   -5.00    2.79
   5 -15   5   -2.70    2.15
  -6  15  -5   14.23    4.38
   6 -15   5   19.10    4.00
   7 -15   5   56.82    5.68
  -7  15  -5   40.35    6.18
  -8  15  -5   -0.57    3.58
  -9  15  -5    7.01    4.81
 -10  15  -5    9.71    4.84
 -11  15  -5    5.66    4.75
 -12  15  -5   -1.06    3.96
 -13  15  -5   -3.02    2.16
  -8 -14   5    2.11    3.92
  -7 -14   5   13.03    4.42
  -6 -14   5   -2.02    2.92
  -5 -14   5   18.48    5.01
  -4 -14   5   16.37    3.75
  -4 -14   5   13.22    4.17
  -3 -14   5    4.43    2.87
  -3 -14   5    4.70    3.37
  -2 -14   5    7.19    3.15
  -2 -14   5    8.63    3.09
  -1 -14   5   32.52    5.09
  -1 -14   5   48.22    5.02
   0 -14   5    7.31    2.82
   0 -14   5    8.33    3.00
   1 -14   5   29.75    4.15
   1 -14   5   24.69    4.18
   2 -14   5    8.94    2.93
   2 -14   5    1.93    2.21
   3 -14   5    8.39    2.84
   3 -14   5    6.56    2.55
   4 -14   5   -0.20    2.04
  -4  14  -5   -0.93    2.91
   4 -14   5   -0.02    2.08
   5 -14   5    2.27    2.43
  -5  14  -5    0.08    3.07
   6 -14   5   28.12    4.28
  -6  14  -5   30.32    5.29
   7 -14   5   10.53    3.31
  -7  14  -5   11.16    4.32
  -8  14  -5   23.88    5.42
  -9  14  -5   -1.13    3.71
 -10  14  -5   -0.34    3.76
 -11  14  -5   -2.75    3.51
 -12  14  -5   -0.94    4.15
 -13  14  -5    0.27    3.05
 -14  14  -5   -1.99    4.56
  -9 -13   5   -0.50    3.39
  -8 -13   5   21.49    5.19
  -7 -13   5   13.30    4.44
  -6 -13   5   17.81    4.83
  -6 -13   5   18.19    3.83
  -5 -13   5   -1.09    1.95
  -5 -13   5    0.04    2.75
  -4 -13   5    0.42    2.10
  -4 -13   5    0.79    2.90
  -3 -13   5    0.21    2.03
  -3 -13   5    0.65    2.29
  -2 -13   5   11.54    3.16
  -1 -13   5    9.16    2.80
  -1 -13   5   12.24    3.29
   0 -13   5   10.53    2.95
   0 -13   5    6.50    2.59
   1 -13   5   34.12    4.19
   1 -13   5   36.67    4.58
   2 -13   5   18.20    3.37
   2 -13   5   14.04    3.14
   3 -13   5   39.94    4.36
  -3  13  -5   32.35    4.68
   3 -13   5   34.38    4.10
   4 -13   5    1.28    1.93
   4 -13   5    2.86    2.19
  -4  13  -5    1.04    3.03
   5 -13   5    1.49    2.18
   5 -13   5   -0.85    1.55
  -5  13  -5   -0.19    3.04
  -6  13  -5   38.64    5.55
   6 -13   5   37.44    4.48
   7 -13   5    0.16    2.38
  -7  13  -5    2.21    3.40
  -8  13  -5   -0.74    3.22
  -9  13  -5    5.60    3.77
 -10  13  -5    1.45    3.54
 -11  13  -5    1.18    3.65
 -12  13  -5   14.55    5.21
 -13  13  -5    2.64    4.68
 -14  13  -5   -2.01    4.58
 -15  13  -5   12.62    6.14
 -10 -12   5    2.69    2.17
  -9 -12   5   32.51    6.00
  -9 -12   5   46.68    5.61
  -8 -12   5    3.00    2.96
  -8 -12   5    1.02    2.38
  -7 -12   5    5.18    2.60
  -7 -12   5    2.36    2.78
  -6 -12   5   13.00    3.98
  -6 -12   5   16.24    3.58
  -5 -12   5    5.25    2.53
  -5 -12   5    2.24    2.77
  -4 -12   5  104.95    7.66
  -4 -12   5   97.33    6.33
  -3 -12   5   87.00    6.82
  -3 -12   5   96.44    6.16
  -2 -12   5   10.45    3.15
  -2 -12   5   10.00    2.83
  -1 -12   5   47.76    4.57
  -1 -12   5   57.01    5.44
   0 -12   5   -0.11    1.93
   0 -12   5    3.82    1.92
   1 -12   5   10.72    2.73
   1 -12   5    5.43    2.43
   2 -12   5   13.69    2.95
  -2  12  -5    9.40    3.27
   2 -12   5   18.16    3.18
  -3  12  -5   14.19    3.73
   3 -12   5   11.18    2.61
   3 -12   5    6.37    2.49
   4 -12   5   21.53    3.46
  -4  12  -5   22.11    4.50
   4 -12   5   24.47    3.37
   5 -12   5   20.92    3.54
  -5  12  -5   17.20    4.38
   6 -12   5   86.00    5.91
  -6  12  -5   91.09    7.40
  -7  12  -5   32.21    5.40
   7 -12   5   19.54    3.58
  -8  12  -5    3.20    3.44
  -9  12  -5   17.27    4.90
 -10  12  -5   -1.74    3.25
 -11  12  -5    9.15    4.31
 -12  12  -5   19.59    5.81
 -13  12  -5   10.72    5.39
 -14  12  -5   13.48    5.80
 -15  12  -5   -1.28    4.61
 -11 -11   5   16.93    4.31
 -10 -11   5   26.72    4.58
  -9 -11   5   15.83    4.07
  -9 -11   5   25.60    4.42
  -8 -11   5   -1.48    1.89
  -8 -11   5    4.08    2.69
  -7 -11   5   30.71    5.24
  -7 -11   5   24.56    3.94
  -6 -11   5    6.08    2.98
  -6 -11   5   13.18    3.03
  -5 -11   5   38.80    4.47
  -5 -11   5   37.23    5.36
  -4 -11   5  183.78    8.47
  -4 -11   5  194.92   10.24
  -3 -11   5    1.02    2.33
  -3 -11   5    4.66    2.14
  -2 -11   5  227.58   10.23
  -2 -11   5  210.29    9.02
  -1 -11   5   41.57    4.13
  -1 -11   5   31.75    4.17
   0 -11   5   26.19    3.45
   0 -11   5   21.19    3.44
   1 -11   5   58.91    4.64
   1 -11   5   51.64    4.21
  -1  11  -5   56.56    4.68
  -2  11  -5   42.86    4.52
   2 -11   5   39.68    4.05
   2 -11   5   53.46    4.13
  -3  11  -5    8.93    3.33
   3 -11   5    8.18    1.98
   3 -11   5   12.49    2.80
   4 -11   5   54.17    4.53
  -4  11  -5   62.47    5.89
   5 -11   5    2.74    2.14
  -5  11  -5    5.92    3.47
  -6  11  -5   29.32    4.94
   6 -11   5   22.17    3.64
   7 -11   5   57.36    5.20
  -7  11  -5   57.37    6.37
  -8  11  -5   18.39    4.68
  -9  11  -5   -1.52    2.85
 -10  11  -5    7.59    3.95
 -11  11  -5   -3.96    3.22
 -12  11  -5   13.35    5.38
 -13  11  -5    4.06    4.73
 -14  11  -5   -2.82    4.09
 -15  11  -5    3.20    4.76
 -16  11  -5    0.41    4.92
 -12 -10   5   -0.90    2.91
 -11 -10   5    8.03    3.34
 -10 -10   5    7.72    3.09
  -9 -10   5    1.44    2.06
  -8 -10   5   35.15    5.48
  -8 -10   5   30.89    4.30
  -7 -10   5   12.90    3.66
  -7 -10   5    8.78    2.75
  -6 -10   5    6.26    2.79
  -6 -10   5    1.95    1.89
  -5 -10   5  111.47    6.34
  -5 -10   5  109.42    7.39
  -4 -10   5   43.77    5.10
  -4 -10   5   36.56    4.12
  -3 -10   5    4.50    2.36
  -3 -10   5    8.06    2.40
  -2 -10   5   -0.86    1.45
  -2 -10   5   -0.73    1.64
  -1 -10   5    4.92    2.19
  -1 -10   5    9.44    2.62
   0 -10   5   16.87    2.93
   0 -10   5   25.57    3.37
   1 -10   5   62.95    4.60
   1 -10   5   62.91    4.33
  -2  10  -5   20.49    3.65
   2 -10   5   24.69    3.17
   3 -10   5   49.95    4.22
  -3  10  -5   58.12    5.20
   4 -10   5    3.78    2.16
   4 -10   5    4.35    1.79
  -4  10  -5    5.43    3.18
   5 -10   5   12.11    2.79
  -5  10  -5   11.80    3.70
   6 -10   5   92.00    5.76
  -6  10  -5   83.75    7.03
  -7  10  -5   23.99    4.84
  -8  10  -5    1.73    3.14
  -9  10  -5    0.60    3.12
 -10  10  -5   -2.34    3.15
 -11  10  -5    5.82    4.04
 -12  10  -5   10.07    4.86
 -13  10  -5   -0.24    3.79
 -14  10  -5    0.04    4.40
 -15  10  -5    1.18    4.86
 -16  10  -5   -1.87    5.40
 -13  -9   5    1.32    3.05
 -12  -9   5   15.55    4.08
 -11  -9   5    1.21    2.51
 -10  -9   5   12.63    3.41
  -9  -9   5   -0.17    1.80
  -8  -9   5   10.48    2.85
  -7  -9   5   10.32    2.71
  -6  -9   5   53.54    4.77
  -5  -9   5   87.33    6.35
  -5  -9   5   87.31    5.37
  -4  -9   5    9.32    2.41
  -4  -9   5    9.43    2.70
  -3  -9   5    5.33    2.22
  -3  -9   5    4.71    2.04
  -2  -9   5   11.65    2.65
  -2  -9   5    9.62    2.41
  -1  -9   5   37.64    3.83
   1   9  -5   40.16    3.24
  -1  -9   5   36.73    3.59
   0   9  -5   31.67    3.30
   0  -9   5   32.68    3.37
   0  -9   5   30.68    3.20
   1  -9   5    7.84    1.64
  -1   9  -5   15.09    2.51
   1  -9   5   29.31    3.22
   2  -9   5    4.79    2.09
  -2   9  -5    2.32    2.38
   2  -9   5    0.94    1.17
   3  -9   5   22.07    3.00
  -3   9  -5   21.60    3.65
   3  -9   5   19.15    2.46
   4  -9   5   31.68    2.94
  -4   9  -5   38.06    4.68
   4  -9   5   26.96    3.36
   5  -9   5   25.40    3.27
  -5   9  -5   24.26    4.38
   6  -9   5   11.74    2.66
  -6   9  -5   20.26    4.34
  -7   9  -5    8.17    3.35
  -8   9  -5    3.19    3.27
  -9   9  -5   29.37    5.44
 -10   9  -5   32.80    5.90
 -11   9  -5    6.00    3.84
 -12   9  -5    4.49    4.05
 -13   9  -5    4.27    4.45
 -14   9  -5   -0.05    4.05
 -15   9  -5   20.66    6.21
 -16   9  -5   18.18    6.53
 -14  -8   5   -4.14    2.66
 -13  -8   5    1.81    2.72
 -12  -8   5    4.69    2.87
 -11  -8   5   30.50    4.50
 -10  -8   5    1.77    1.98
  -9  -8   5   17.14    3.35
  -8  -8   5   10.25    2.78
  -7  -8   5   47.80    4.49
  -6  -8   5    0.71    1.51
  -5  -8   5   94.71    5.57
  -4  -8   5   25.94    3.17
  -4  -8   5   24.57    3.63
  -3  -8   5   15.84    2.73
  -3  -8   5   18.00    2.97
   2   8  -5  210.43    6.91
  -2  -8   5  216.01    8.72
  -2  -8   5  219.25    8.05
  -1  -8   5   22.07    2.89
   1   8  -5   29.64    2.83
  -1  -8   5   30.33    3.16
   0   8  -5  186.98    7.18
   0  -8   5  200.04    7.29
   0  -8   5  160.11    6.75
   1  -8   5  160.68    6.71
  -1   8  -5  172.42    7.24
  -2   8  -5    3.67    2.28
   2  -8   5    2.76    1.79
   2  -8   5    4.02    1.41
   3  -8   5   33.28    2.68
  -3   8  -5   39.88    4.29
   3  -8   5   24.65    2.89
   4  -8   5   -1.33    1.21
  -4   8  -5    1.83    2.10
   5  -8   5  157.62    6.91
  -5   8  -5  156.04    8.30
  -6   8  -5   15.47    3.82
   6  -8   5   19.19    3.14
  -7   8  -5  163.40    9.28
  -8   8  -5   52.33    6.00
  -9   8  -5  164.69    9.88
 -10   8  -5    6.85    4.00
 -11   8  -5    4.01    3.41
 -12   8  -5   25.29    5.48
 -13   8  -5   11.00    4.74
 -14   8  -5   67.62    8.37
 -15   8  -5   -4.55    3.68
 -16   8  -5    8.28    5.61
 -17   8  -5   10.94    7.22
 -14  -7   5    8.86    3.55
 -13  -7   5   11.05    3.45
 -12  -7   5   57.01    6.10
 -11  -7   5   15.31    3.51
 -10  -7   5  114.75    6.94
  -9  -7   5    6.24    2.12
  -8  -7   5  127.00    6.82
  -7  -7   5   26.39    3.49
  -6  -7   5    2.46    1.67
  -5  -7   5   15.38    2.65
  -4  -7   5   54.94    4.07
  -3  -7   5   48.43    4.10
   3   7  -5   43.74    2.52
  -3  -7   5   40.33    3.49
  -2  -7   5  123.03    5.60
   2   7  -5  124.40    4.87
  -2  -7   5  146.47    6.33
   1   7  -5   -1.26    1.28
  -1  -7   5    0.43    1.14
  -1  -7   5    0.16    1.43
   0  -7   5  366.77   10.78
   1  -7   5    2.02    1.19
  -1   7  -5    2.35    1.80
   1  -7   5    2.08    1.53
   2  -7   5   79.53    4.42
   2  -7   5  105.88    4.29
  -2   7  -5   85.23    5.25
   3  -7   5   47.92    2.85
  -3   7  -5   54.65    4.51
   3  -7   5   46.92    3.60
  -4   7  -5  175.86    8.37
   4  -7   5  176.73    7.11
   5  -7   5    1.64    1.63
  -5   7  -5    7.15    2.73
  -6   7  -5  254.37   11.15
  -7   7  -5    9.42    3.57
  -8   7  -5   31.02    5.07
  -9   7  -5  105.79    7.77
 -10   7  -5   17.94    4.60
 -11   7  -5    2.76    3.27
 -12   7  -5   83.19    8.31
 -13   7  -5   -1.42    3.23
 -14   7  -5    5.07    4.24
 -15   7  -5    8.41    4.64
 -16   7  -5   11.87    5.70
 -15  -6   5    6.02    3.52
 -14  -6   5    1.72    2.97
 -13  -6   5   78.26    7.13
 -12  -6   5    0.13    2.03
 -11  -6   5   56.38    5.63
 -10  -6   5    2.95    1.88
  -9  -6   5   21.32    3.48
  -8  -6   5   -0.46    1.48
  -7  -6   5  128.10    6.35
  -6  -6   5   38.63    3.72
  -5  -6   5  481.17   13.94
  -4  -6   5   30.55    3.05
   3   6  -5  119.16    3.98
  -3  -6   5  112.52    5.31
  -2  -6   5   23.51    2.58
  -2  -6   5   19.72    2.61
   2   6  -5   21.45    1.99
  -1  -6   5   41.41    3.18
   1   6  -5   35.74    2.86
   0  -6   5   23.61    2.29
   0  -6   5   20.91    2.38
   1  -6   5  135.80    5.45
  -1   6  -5  130.28    6.04
   1  -6   5  127.98    4.74
  -2   6  -5  107.44    5.13
   2  -6   5  100.02    4.99
  -2   6  -5  116.87    5.90
   2  -6   5  105.92    4.06
  -3   6  -5  145.28    6.32
   3  -6   5  141.89    5.86
  -3   6  -5  141.82    7.00
  -4   6  -5   14.76    3.08
   4  -6   5   13.87    2.39
  -5   6  -5   22.84    3.69
   5  -6   5   21.53    2.87
  -6   6  -5    8.96    3.04
  -7   6  -5    1.64    2.39
  -8   6  -5   22.75    4.45
  -9   6  -5   45.32    5.76
 -10   6  -5   16.30    4.38
 -11   6  -5   27.57    5.31
 -12   6  -5   12.04    4.38
 -13   6  -5   18.41    5.10
 -14   6  -5    6.37    4.24
 -15   6  -5    2.21    4.27
 -16   6  -5    1.63    4.77
 -15  -5   5   18.67    4.48
 -14  -5   5   19.79    4.35
 -13  -5   5   28.05    4.84
 -12  -5   5   19.98    3.99
 -11  -5   5   55.26    5.47
 -10  -5   5   21.21    3.48
  -9  -5   5   13.92    2.94
  -8  -5   5   38.58    3.91
  -7  -5   5   24.73    3.17
  -6  -5   5  253.75    8.94
  -5  -5   5    4.73    1.73
  -4  -5   5   60.94    3.72
  -3  -5   5  127.15    5.40
   3   5  -5  121.76    4.15
  -2  -5   5   14.56    2.17
   2   5  -5   15.50    1.80
   1   5  -5   15.59    2.08
  -1  -5   5   15.82    1.87
  -1  -5   5   14.66    2.01
   1   5  -5   19.46    2.01
   0  -5   5   27.24    2.51
   0   5  -5   26.48    2.61
   0   5  -5   26.06    2.35
   0  -5   5   25.69    2.06
   1  -5   5   58.54    2.66
   1  -5   5   60.67    3.44
  -1   5  -5   60.62    3.63
  -1   5  -5   56.71    3.98
   2  -5   5  112.64    4.86
  -2   5  -5  117.34    5.90
  -2   5  -5  112.23    5.18
   3  -5   5   35.17    2.94
  -3   5  -5   36.16    3.44
  -3   5  -5   34.88    3.69
  -4   5  -5   45.72    3.84
   4  -5   5   34.07    3.08
  -4   5  -5   37.25    3.89
  -5   5  -5   17.89    3.01
  -5   5  -5   23.89    3.54
  -6   5  -5    1.63    1.93
  -6   5  -5    1.85    1.89
  -7   5  -5   85.11    6.35
  -8   5  -5   54.10    5.69
  -9   5  -5    2.90    2.93
 -10   5  -5    2.39    3.11
 -11   5  -5   13.75    4.22
 -12   5  -5   91.83    8.08
 -13   5  -5   -3.50    3.00
 -14   5  -5   -0.10    3.50
 -15   5  -5   -1.52    3.58
 -16  -4   5    6.42    3.53
 -15  -4   5    2.99    3.23
 -14  -4   5   -2.72    2.10
 -13  -4   5   10.96    3.41
 -12  -4   5    2.67    2.21
 -11  -4   5   74.73    6.01
 -10  -4   5   48.44    4.72
  -9  -4   5    2.61    1.71
  -8  -4   5  133.03    6.56
  -7  -4   5   83.33    4.91
  -6  -4   5    8.98    2.01
  -5  -4   5    7.87    1.84
  -4  -4   5  102.76    3.39
  -4  -4   5  105.40    4.82
  -3  -4   5   19.00    2.25
  -3  -4   5   22.48    1.76
  -2  -4   5  185.86    6.34
  -2  -4   5  190.13    5.84
  -1  -4   5  754.72   17.77
  -1  -4   5  751.60   18.36
   0  -4   5    3.87    1.00
   0  -4   5    3.61    1.77
   0  -4   5    3.32    1.32
   1  -4   5  944.77   21.85
   1  -4   5  993.66   21.52
   1  -4   5  935.35   23.67
  -2   4  -5   34.67    3.42
  -2   4  -5   28.83    2.84
   2  -4   5   36.59    2.72
  -3   4  -5    4.04    1.67
  -3   4  -5    3.62    1.82
   3  -4   5    2.69    1.39
  -4   4  -5   18.05    2.98
   4  -4   5   20.43    2.44
  -4   4  -5   25.53    3.03
  -5   4  -5    6.17    2.22
  -5   4  -5    4.71    2.08
  -6   4  -5    1.02    1.93
  -6   4  -5   -2.26    1.74
  -7   4  -5  186.57    9.01
  -7   4  -5  186.80    8.12
  -8   4  -5   23.53    4.17
  -8   4  -5   21.09    3.61
  -9   4  -5   78.00    6.76
 -10   4  -5    4.05    3.00
 -11   4  -5    5.03    3.22
 -12   4  -5   29.97    5.32
 -13   4  -5   -2.57    2.99
 -14   4  -5   -1.48    3.63
 -16  -3   5   23.28    5.33
 -15  -3   5    3.98    3.03
 -14  -3   5    0.15    2.57
 -13  -3   5    0.02    2.32
 -12  -3   5    3.76    2.09
 -11  -3   5   24.59    3.96
 -10  -3   5    3.78    2.11
  -9  -3   5    2.21    1.67
  -8  -3   5  144.38    6.74
  -7  -3   5    5.93    1.93
  -6  -3   5    3.00    1.49
  -5  -3   5   40.90    1.95
  -5  -3   5   41.05    3.19
  -4  -3   5   77.03    2.94
  -4  -3   5   80.84    4.07
  -3  -3   5   23.02    2.25
  -3  -3   5   20.65    1.82
  -2  -3   5  661.25   15.97
  -2  -3   5  657.90   15.62
  -1  -3   5  182.99    6.00
  -1  -3   5  171.76    5.73
   0  -3   5 1024.22   23.87
   0  -3   5 1142.91   24.24
   0  -3   5 1098.65   26.03
   1  -3   5  367.77   10.93
   1  -3   5  387.67   10.06
   2  -3   5   21.80    2.16
   2  -3   5   18.85    2.44
   3  -3   5   62.31    3.44
   3  -3   5   61.13    4.30
  -5   3  -5    2.63    1.95
  -5   3  -5    1.65    1.80
  -6   3  -5   51.01    4.57
  -6   3  -5   52.54    4.35
  -7   3  -5   11.78    2.95
  -7   3  -5   13.78    2.99
  -8   3  -5   37.11    4.50
  -8   3  -5   35.13    4.15
  -9   3  -5    1.95    2.26
  -9   3  -5    0.10    2.32
 -10   3  -5    2.15    2.79
 -11   3  -5   28.73    5.04
 -12   3  -5   29.94    5.29
 -13   3  -5   17.63    4.83
 -16   3  -5    2.77    3.30
 -17  -2   5    5.44    3.66
 -16  -2   5    2.24    2.89
 -15  -2   5    1.79    2.57
 -14  -2   5   20.20    4.39
 -13  -2   5  108.46    7.34
 -12  -2   5   -3.19    1.47
 -11  -2   5   31.08    4.22
 -10  -2   5   33.17    4.04
  -9  -2   5  188.40    8.18
  -8  -2   5    3.56    1.55
  -8  -2   5    5.11    1.81
  -7  -2   5   99.99    5.10
  -7  -2   5  100.15    3.97
  -6  -2   5   94.30    3.64
  -6  -2   5  104.19    4.83
  -5  -2   5    7.55    1.28
  -5  -2   5    9.40    1.80
  -4  -2   5  167.55    5.10
  -4  -2   5  165.33    5.85
  -3  -2   5  341.07    8.96
  -3  -2   5  341.28    9.26
  -2  -2   5   48.41    2.91
  -2  -2   5   41.43    2.62
  -1  -2   5   11.30    1.60
  -1  -2   5   11.03    2.09
   0  -2   5    1.89    1.21
   0  -2   5    4.40    1.92
   1  -2   5  289.15    9.03
   1  -2   5  298.54    8.04
   2  -2   5    0.15    1.90
   2  -2   5    0.31    1.10
   3  -2   5  174.02    7.06
   4  -2   5    3.16    2.17
   5  -2   5    3.84    2.46
  -6   2  -5    6.12    2.38
  -6   2  -5    7.40    2.24
  -7   2  -5  113.72    6.71
  -7   2  -5  109.08    6.06
  -8   2  -5    9.18    2.93
  -8   2  -5   10.83    2.89
  -9   2  -5   12.43    3.38
  -9   2  -5   22.89    3.66
 -10   2  -5   -0.09    2.58
 -11   2  -5   22.46    4.45
 -12   2  -5   -0.76    2.63
 -15   2  -5    1.76    3.30
 -16   2  -5    1.04    3.33
 -17  -1   5    3.66    3.10
 -16  -1   5   -2.45    2.44
 -15  -1   5   30.51    5.31
 -14  -1   5   21.70    4.32
 -13  -1   5    3.32    2.08
 -12  -1   5   -2.04    1.55
 -11  -1   5   21.77    3.63
 -10  -1   5    1.12    1.54
  -9  -1   5    4.60    1.90
  -9  -1   5    6.15    2.03
  -8  -1   5   -0.56    1.03
  -8  -1   5    1.38    1.57
  -7  -1   5  130.30    4.82
  -7  -1   5  118.10    5.55
  -6  -1   5   59.95    3.74
  -6  -1   5   69.44    3.39
  -5  -1   5  207.88    7.00
  -5  -1   5  224.31    6.50
  -4  -1   5  970.02   21.87
  -4  -1   5  966.61   22.51
  -3  -1   5  101.06    4.11
  -3  -1   5  102.11    3.97
  -2  -1   5    7.42    1.73
  -2  -1   5    8.54    1.38
  -1  -1   5   12.24    1.55
  -1  -1   5   14.67    2.19
   0   1  -5  591.06   13.52
   0  -1   5  591.03   13.76
   0  -1   5  616.71   15.60
   1  -1   5   24.39    2.73
   1  -1   5   28.52    2.11
  -1   1  -5   25.19    1.54
   2  -1   5    2.35    1.72
   2  -1   5    1.91    1.14
   3  -1   5    4.54    2.17
   4  -1   5   15.25    2.82
   5  -1   5    0.92    2.16
   6  -1   5   37.68    4.04
  -7   1  -5    8.67    2.93
  -7   1  -5    9.50    2.56
  -8   1  -5   22.90    3.68
  -8   1  -5   18.16    3.30
  -9   1  -5   12.27    3.08
  -9   1  -5   13.77    3.44
 -10   1  -5   46.52    5.29
 -10   1  -5   50.58    4.91
 -11   1  -5    4.89    3.19
 -13   1  -5   -2.68    2.00
 -14   1  -5   10.78    3.58
 -15   1  -5    0.14    2.90
 -17   0   5    6.71    3.64
 -16   0   5   44.80    6.35
 -15   0   5   13.45    4.02
 -14   0   5   97.69    7.10
 -13   0   5   -0.28    2.05
 -12   0   5   14.60    3.15
 -11   0   5    0.95    1.81
 -10   0   5    4.14    1.94
 -10   0   5    5.74    2.37
  -9   0   5   72.09    4.38
  -9   0   5   67.69    4.49
  -8   0   5   24.96    2.69
  -8   0   5   30.36    3.16
  -7   0   5  145.79    5.56
  -7   0   5  140.98    5.91
  -6   0   5   22.36    2.16
  -6   0   5   24.18    2.47
  -5   0   5  517.53   12.88
  -5   0   5  487.02   12.84
  -4   0   5  269.39    7.63
  -4   0   5  280.71    8.06
  -3   0   5  378.61   10.28
  -3   0   5  378.84    9.42
  -2   0   5   15.18    1.42
  -2   0   5   18.09    2.20
   1   0  -5  157.34    4.33
  -1   0   5  151.46    4.44
  -1   0   5  148.25    5.66
   0   0   5   46.03    3.50
   0   0  -5   47.23    2.13
   0   0   5   39.33    2.11
  -1   0  -5   52.21    2.58
   1   0   5   57.50    3.92
   1   0   5   55.70    2.71
   2   0   5  269.77    8.87
   3   0   5  120.29    5.65
   4   0   5   47.50    3.91
   5   0   5   27.09    3.41
   6   0   5   -0.03    2.19
  -8   0  -5   -0.52    1.92
  -8   0  -5   -0.91    1.84
  -9   0  -5   29.85    3.93
  -9   0  -5   25.78    4.06
 -10   0  -5    9.91    3.13
 -10   0  -5    4.96    2.30
 -12   0  -5    1.01    2.12
 -13   0  -5    5.43    2.85
 -14   0  -5    1.78    2.91
 -15   0  -5   13.82    4.01
 -18   1   5    1.98    3.07
 -17   1   5   32.91    5.86
 -16   1   5   37.79    5.81
 -15   1   5   34.77    5.30
 -14   1   5   36.04    5.14
 -13   1   5    1.08    1.83
 -12   1   5    8.76    2.71
 -11   1   5   70.38    5.21
 -11   1   5   79.25    5.46
 -10   1   5  117.79    6.07
 -10   1   5  113.46    6.13
  -9   1   5   -0.36    1.11
  -9   1   5    1.39    1.89
  -8   1   5  199.06    7.31
  -8   1   5  205.81    7.61
  -7   1   5  290.90    9.04
  -7   1   5  282.43    8.93
  -6   1   5   43.37    3.35
  -6   1   5   42.40    2.94
  -5   1   5  281.32    8.09
  -5   1   5  286.25    8.59
  -4   1   5   34.83    2.27
  -4   1   5   31.49    2.81
  -3   1   5  290.81    7.27
  -2   1   5    8.04    0.97
  -2   1   5   10.04    2.11
  -1   1   5  229.44    7.52
   1  -1  -5  242.27    6.66
  -1   1   5  238.15    5.93
   0  -1  -5 1597.30   35.22
   0   1   5 1564.76   32.45
   0   1   5 1561.93   36.53
   1   1   5   98.28    4.83
  -1  -1  -5   96.36    4.05
   2   1   5  637.51   16.96
   3   1   5    2.68    1.88
   4   1   5  112.99    5.75
   5   1   5   21.64    3.14
   6   1   5  175.45    7.91
   7   1   5   31.43    3.96
  -8  -1  -5   43.31    4.18
  -8  -1  -5   46.68    4.73
  -9  -1  -5   13.42    3.12
  -9  -1  -5   14.12    3.30
 -10  -1  -5   81.88    5.94
 -11  -1  -5    1.18    1.93
 -12  -1  -5   31.58    4.46
 -13  -1  -5    1.43    2.49
 -14  -1  -5   26.79    4.84
 -15  -1  -5   -0.84    3.22
 -18   2   5   -0.16    1.57
 -17   2   5    4.81    3.12
 -16   2   5   12.33    3.90
 -15   2   5    9.82    3.41
 -14   2   5   43.67    5.28
 -13   2   5   58.57    5.58
 -12   2   5    3.10    2.87
 -12   2   5    3.59    1.95
 -11   2   5  145.55    7.36
 -11   2   5  145.65    7.11
 -10   2   5   77.86    4.91
 -10   2   5   81.52    5.24
  -9   2   5   98.97    5.53
  -9   2   5  110.61    5.50
  -8   2   5  445.86   13.01
  -8   2   5  451.77   12.80
  -7   2   5   19.19    2.73
  -7   2   5   19.92    2.34
  -6   2   5   15.31    2.31
  -6   2   5   18.02    2.02
  -5   2   5   16.43    2.42
  -5   2   5   12.63    1.61
  -4   2   5    3.35    1.86
  -3   2   5    5.44    0.94
  -3   2   5    4.46    1.91
   2  -2  -5   11.65    1.63
  -2   2   5   12.32    1.03
  -2   2   5   11.92    2.02
  -1   2   5   25.71    2.68
   1  -2  -5   26.06    2.08
  -1   2   5   24.68    1.39
   0   2   5  291.85    9.06
   0  -2  -5  287.76    8.46
  -1  -2  -5    7.49    1.66
   1   2   5    6.38    1.91
  -2  -2  -5  330.15   10.03
   2   2   5  313.63    9.99
   3   2   5   79.81    4.68
   4   2   5   47.25    3.83
   5   2   5   76.24    4.97
   6   2   5    8.53    3.08
   7   2   5  153.03    7.53
  -8  -2  -5    1.49    1.79
  -9  -2  -5   -1.73    1.50
 -10  -2  -5   16.84    3.36
 -11  -2  -5    8.50    2.85
 -12  -2  -5    5.12    2.52
 -13  -2  -5    4.91    2.75
 -14  -2  -5   -0.48    2.62
 -15  -2  -5    6.82    4.87
 -18   3   5    1.41    1.70
 -17   3   5   22.40    4.85
 -16   3   5    0.19    2.25
 -15   3   5   17.40    3.89
 -14   3   5   87.99    6.48
 -13   3   5   17.07    3.78
 -13   3   5   31.39    4.42
 -12   3   5    0.83    2.72
 -12   3   5   -0.21    1.81
 -11   3   5  223.19    9.19
 -11   3   5  222.42    9.24
 -10   3   5  158.98    7.33
 -10   3   5  165.40    7.32
  -9   3   5   -0.58    1.12
  -9   3   5   -1.38    2.08
  -8   3   5    1.96    1.25
  -8   3   5    1.72    2.03
  -7   3   5  361.36   11.37
  -7   3   5  373.15   10.48
  -6   3   5  163.28    5.67
  -6   3   5  167.42    6.66
  -4   3   5    9.13    1.22
  -4   3   5    9.11    2.05
   3  -3  -5   69.18    3.57
  -3   3   5   77.67    4.22
  -3   3   5   76.31    2.49
  -2   3   5   61.95    4.02
  -2   3   5   56.15    1.71
   2  -3  -5   58.37    3.34
   1  -3  -5   10.48    1.76
  -1   3   5    9.21    2.11
   0  -3  -5    8.98    1.87
   0   3   5    7.74    1.98
   1   3   5  245.07    8.19
  -1  -3  -5  232.82    8.19
  -2  -3  -5  225.49    8.27
   2   3   5  232.35    8.20
  -3  -3  -5  108.08    5.75
   3   3   5  120.07    5.62
   4   3   5   47.77    3.95
  -5  -3  -5  175.65    6.97
   5   3   5  186.86    7.82
  -6  -3  -5    8.76    2.13
   6   3   5    7.08    2.55
   7   3   5   -0.50    0.81
  -7  -3  -5    7.52    2.16
  -8  -3  -5    7.97    2.37
   8   3   5    0.00    2.03
  -9  -3  -5    3.42    2.18
 -10  -3  -5   25.47    3.91
 -11  -3  -5   -2.37    1.70
 -12  -3  -5   31.11    4.65
 -13  -3  -5    1.42    2.59
 -18   4   5    1.18    1.23
 -17   4   5    7.21    3.11
 -16   4   5   11.80    3.73
 -15   4   5   33.95    5.10
 -14   4   5   22.18    3.95
 -14   4   5   20.17    4.04
 -13   4   5   16.20    3.81
 -13   4   5   11.58    3.17
 -12   4   5   45.13    4.71
 -12   4   5   42.82    4.63
 -11   4   5    9.71    2.50
 -11   4   5    7.45    2.98
 -10   4   5   15.66    3.25
 -10   4   5   14.23    2.64
  -9   4   5   55.64    3.80
  -9   4   5   61.72    4.82
  -8   4   5  228.85    8.86
  -8   4   5  237.76    7.99
  -7   4   5   17.97    2.96
  -7   4   5   18.80    2.14
  -6   4   5  202.30    6.27
  -5   4   5   63.38    4.37
  -5   4   5   60.41    2.79
  -4   4   5    3.87    1.88
   4  -4  -5    4.27    1.45
  -4   4   5    5.18    0.96
   3  -4  -5    1.32    1.25
  -3   4   5    1.05    0.52
  -3   4   5   -0.02    1.61
  -2   4   5   59.15    4.11
   2  -4  -5   66.75    3.67
   1  -4  -5  361.42   10.77
  -1   4   5  353.79   10.76
   0  -4  -5  106.63    3.06
   0   4   5  106.50    5.17
   0  -4  -5  103.51    5.17
  -1  -4  -5  138.90    4.29
   1   4   5  149.62    6.14
  -1  -4  -5  138.74    6.32
  -2  -4  -5    7.79    2.11
   2   4   5    6.76    2.17
  -2  -4  -5    6.48    1.25
  -3  -4  -5  118.13    6.22
   3   4   5  121.32    5.82
  -3  -4  -5  116.48    4.63
  -4  -4  -5    0.05    1.59
  -4  -4  -5   -0.90    1.01
   4   4   5   -2.58    1.74
  -5  -4  -5    4.84    1.69
  -6  -4  -5   15.12    2.52
   6   4   5    4.74    2.29
  -7  -4  -5   -0.32    1.34
   7   4   5   -2.44    2.54
  -8  -4  -5   89.55    5.65
  -9  -4  -5   12.56    2.99
 -10  -4  -5   -1.76    1.60
 -11  -4  -5   94.72    6.56
 -19   5   5   -0.89    1.77
 -18   5   5    0.96    1.77
 -17   5   5   34.27    5.57
 -16   5   5    1.48    2.49
 -15   5   5   76.52    6.82
 -15   5   5   78.21    6.59
 -14   5   5   -1.93    2.86
 -14   5   5   -1.95    1.59
 -13   5   5   -1.19    2.80
 -13   5   5    0.18    2.02
 -12   5   5    0.61    1.53
 -12   5   5    1.16    2.82
 -11   5   5   22.69    3.93
 -11   5   5   30.71    3.66
 -10   5   5    6.23    3.01
 -10   5   5   12.25    2.37
  -9   5   5    9.06    2.93
  -9   5   5    8.06    2.03
  -8   5   5   38.31    3.18
  -8   5   5   52.48    4.37
  -7   5   5  178.36    6.32
  -7   5   5  186.95    7.90
  -6   5   5  169.97    5.63
  -6   5   5  167.74    7.32
  -5   5   5    2.18    0.98
  -5   5   5    2.79    2.03
  -4   5   5    8.52    2.27
  -4   5   5    7.74    0.99
   4  -5  -5    7.27    1.89
  -3   5   5   71.30    4.55
   3  -5  -5   80.51    4.40
  -2   5   5   42.68    3.45
   2  -5  -5   41.02    3.17
  -1   5   5   41.60    3.46
   1  -5  -5   43.47    3.36
   0  -5  -5  691.98   19.05
   0   5   5  684.08   18.50
   0  -5  -5  704.42   14.81
  -1  -5  -5  119.07    6.12
  -1  -5  -5  112.36    3.79
   1   5   5  118.14    5.75
  -2  -5  -5  234.25    9.52
   2   5   5  232.52    8.56
  -2  -5  -5  242.63    6.87
  -3  -5  -5  130.33    5.01
  -3  -5  -5  144.44    7.30
   3   5   5  131.53    6.04
  -4  -5  -5    4.08    1.40
   4   5   5   -0.37    0.80
  -4  -5  -5    1.22    1.77
  -5  -5  -5   69.04    5.96
  -5  -5  -5   71.25    4.23
   5   5   5   74.83    5.26
  -6  -5  -5    5.46    1.81
   6   5   5    8.13    2.88
  -7  -5  -5   15.34    2.75
  -8  -5  -5   34.79    3.87
  -9  -5  -5   19.36    3.47
 -19   6   5   -0.86    1.80
 -18   6   5    1.88    2.64
 -17   6   5    2.67    2.51
 -16   6   5   62.62    6.62
 -16   6   5   69.56    6.84
 -15   6   5   -0.04    1.97
 -15   6   5   -1.14    3.25
 -14   6   5   23.00    4.03
 -14   6   5   28.97    4.49
 -13   6   5   -2.71    2.81
 -13   6   5   -0.21    1.78
 -12   6   5   42.93    5.04
 -12   6   5   37.95    4.35
 -11   6   5   32.89    3.87
 -11   6   5   33.74    4.38
 -10   6   5  118.97    7.19
  -9   6   5    3.35    2.83
  -8   6   5  153.11    7.55
  -7   6   5   31.52    3.84
  -6   6   5  166.43    7.54
   5  -6  -5   59.76    4.16
  -5   6   5   54.63    4.38
  -4   6   5  260.55    9.38
   4  -6  -5  254.71    9.16
  -3   6   5  357.47   11.31
   3  -6  -5  350.14   11.32
   2  -6  -5  583.61   16.66
  -2   6   5  593.60   16.46
  -1   6   5   26.39    3.16
   1  -6  -5   28.05    3.23
   0  -6  -5 2582.20   50.74
   0   6   5 2466.18   57.59
   0  -6  -5 2454.10   58.16
  -1  -6  -5  220.00    9.27
  -1  -6  -5  238.50    6.32
   1   6   5  233.60    8.59
  -2  -6  -5   16.33    3.18
  -2  -6  -5   14.66    1.66
   2   6   5   15.13    2.53
  -3  -6  -5    7.08    2.55
  -3  -6  -5    9.18    1.66
   4   6   5    4.10    2.32
  -4  -6  -5    1.36    1.94
  -4  -6  -5    0.77    1.18
  -5  -6  -5   21.13    3.94
   5   6   5   25.16    3.62
  -5  -6  -5   15.15    2.46
  -6  -6  -5  111.21    5.74
  -6  -6  -5  111.37    7.66
  -7  -6  -5    5.57    2.95
  -8  -6  -5    7.17    3.57
  -9  -6  -5    3.18    3.32
 -12  -6  -5    7.47    5.38
 -19   7   5   -1.85    1.68
 -18   7   5    3.23    2.72
 -17   7   5   16.78    4.85
 -17   7   5   17.86    4.33
 -16   7   5    1.50    3.53
 -16   7   5    0.14    2.57
 -15   7   5   -1.34    2.00
 -15   7   5   -2.24    3.34
 -14   7   5    8.06    3.64
 -14   7   5    4.31    2.48
 -13   7   5   87.41    6.93
 -13   7   5   91.94    6.27
 -12   7   5   19.38    3.52
 -12   7   5   29.06    4.64
 -11   7   5  200.54    9.54
 -10   7   5   27.49    4.33
  -9   7   5  273.69   11.10
  -8   7   5  143.29    7.67
  -7   7   5    1.03    2.28
  -6   7   5   41.42    4.17
  -5   7   5   52.54    4.42
   5  -7  -5   50.87    4.01
   4  -7  -5  439.75   13.77
  -4   7   5  444.16   13.79
   3  -7  -5  249.87    9.25
  -3   7   5  228.33    8.92
   2  -7  -5   51.91    4.20
  -1   7   5   29.79    3.36
   1  -7  -5   33.86    1.53
   1  -7  -5   31.69    3.66
   0  -7  -5   52.10    2.28
   0   7   5   47.95    4.11
   0  -7  -5   52.68    4.67
  -1  -7  -5   63.52    5.45
   1   7   5   61.60    4.68
  -2  -7  -5   60.44    5.50
   3   7   5   -0.43    2.01
  -3  -7  -5    0.55    1.94
  -4  -7  -5   -0.39    1.93
   4   7   5   -2.35    1.95
  -5  -7  -5   44.55    5.49
  -6  -7  -5   47.65    5.98
  -7  -7  -5    9.68    3.51
  -8  -7  -5   24.76    5.20
  -9  -7  -5   -0.63    3.01
 -10  -7  -5    1.69    3.70
 -11  -7  -5    0.18    3.69
 -19   8   5    0.49    2.68
 -18   8   5    8.60    3.48
 -18   8   5   13.26    5.28
 -17   8   5   11.24    4.65
 -17   8   5    4.68    2.68
 -16   8   5   13.22    3.54
 -16   8   5   10.71    4.26
 -15   8   5   -0.85    1.96
 -15   8   5    1.90    3.54
 -14   8   5   34.20    5.39
 -14   8   5   34.14    4.62
 -13   8   5    4.85    3.48
 -12   8   5   26.63    4.80
 -11   8   5   -0.04    3.08
 -10   8   5   65.54    6.07
  -9   8   5   23.59    4.25
  -8   8   5    0.45    2.83
  -7   8   5    5.26    2.89
   6  -8  -5  185.68    8.21
  -6   8   5  182.47    8.50
   5  -8  -5  399.01   13.28
  -5   8   5  397.32   13.38
  -4   8   5  464.17   14.69
   4  -8  -5  468.71   14.78
   3  -8  -5    1.77    1.63
  -3   8   5    3.05    2.42
  -2   8   5    4.02    2.33
   2  -8  -5    1.32    1.57
   1  -8  -5    0.44    1.76
  -1   8   5    5.97    2.42
   0  -8  -5   34.84    4.35
   0   8   5   30.20    3.71
  -1  -8  -5    6.91    2.48
   1   8   5    6.02    2.07
   2   8   5    0.53    2.03
  -2  -8  -5    4.88    2.32
   3   8   5   51.45    4.49
  -3  -8  -5   57.89    5.95
  -4  -8  -5    6.80    2.79
  -5  -8  -5   12.22    3.56
  -6  -8  -5    6.76    3.13
  -7  -8  -5   17.19    4.52
  -8  -8  -5    0.47    2.70
  -9  -8  -5   -2.20    3.08
 -10  -8  -5    0.39    3.73
 -11  -8  -5   10.88    4.92
 -19   9   5   -2.02    2.73
 -18   9   5    1.35    2.84
 -18   9   5   -2.16    4.13
 -17   9   5    3.77    2.88
 -17   9   5    3.13    4.30
 -16   9   5    8.25    3.22
 -16   9   5    5.63    4.30
 -15   9   5    4.55    2.83
 -15   9   5   12.61    4.17
 -14   9   5   19.09    4.80
 -13   9   5   67.90    6.65
 -12   9   5    5.23    3.53
 -11   9   5   10.27    4.03
 -10   9   5    8.17    3.72
  -9   9   5   94.74    6.82
  -8   9   5   23.14    4.30
  -7   9   5   53.67    5.36
  -6   9   5   44.58    4.83
   6  -9  -5   44.72    4.36
   5  -9  -5  107.11    6.24
  -5   9   5   94.30    6.41
  -4   9   5   12.85    3.21
   4  -9  -5    9.24    2.49
   3  -9  -5   -0.55    1.33
  -3   9   5    2.42    2.53
   2  -9  -5    0.60    1.44
  -2   9   5    1.94    2.67
   1  -9  -5   10.94    2.78
  -1   9   5   12.19    3.08
   0   9   5    2.29    2.45
   0  -9  -5    3.53    2.24
   1   9   5    0.29    0.71
  -1  -9  -5    3.60    2.25
  -2  -9  -5  126.75    8.13
   2   9   5  132.48    7.01
  -3  -9  -5    4.90    2.69
  -4  -9  -5   -1.28    1.90
  -5  -9  -5   -1.83    2.37
  -6  -9  -5    3.67    2.99
  -7  -9  -5   -0.71    2.85
  -8  -9  -5   16.80    5.15
  -9  -9  -5   13.62    5.08
 -10  -9  -5    0.63    3.86
 -19  10   5    6.76    5.61
 -19  10   5    8.31    3.68
 -18  10   5    0.26    4.60
 -18  10   5    3.96    2.92
 -17  10   5    1.68    4.37
 -17  10   5    1.30    2.52
 -16  10   5   56.75    7.05
 -16  10   5   59.12    6.47
 -15  10   5   11.32    4.47
 -14  10   5  111.60    8.56
 -13  10   5   18.72    4.70
 -12  10   5   29.46    5.18
 -11  10   5   -0.65    3.38
 -10  10   5    8.84    3.72
  -9  10   5   16.68    4.41
  -8  10   5   55.85    5.63
  -7  10   5   32.94    4.85
   7 -10  -5   45.19    4.59
   6 -10  -5   32.69    4.10
  -6  10   5   29.37    4.61
   5 -10  -5   11.33    2.77
  -5  10   5   13.39    3.55
   4 -10  -5   19.18    3.40
  -4  10   5   17.63    3.84
  -3  10   5    6.83    3.02
   3 -10  -5    5.63    2.29
  -2  10   5   12.53    3.15
   2 -10  -5   10.11    2.89
   1 -10  -5   11.51    3.02
  -1  10   5   10.35    3.18
   0 -10  -5   51.21    5.63
   0  10   5   57.38    4.84
   1  10   5   11.52    3.10
  -1 -10  -5   17.74    3.99
  -2 -10  -5   25.66    4.69
  -3 -10  -5    1.01    1.90
  -4 -10  -5   -0.06    2.58
  -5 -10  -5    7.30    3.76
  -6 -10  -5   65.89    8.05
  -7 -10  -5   29.61    6.04
  -8 -10  -5   11.45    5.04
  -9 -10  -5   22.67    6.52
 -19  11   5    8.11    6.23
 -19  11   5    8.50    3.81
 -18  11   5   17.87    4.45
 -18  11   5    6.80    5.37
 -17  11   5    9.27    3.90
 -17  11   5    9.03    4.98
 -16  11   5    5.25    4.13
 -15  11   5   47.85    6.62
 -14  11   5    9.46    4.44
 -13  11   5    3.16    3.70
 -12  11   5   40.79    5.83
 -11  11   5    6.05    3.79
 -10  11   5   29.95    5.21
  -9  11   5   78.35    6.75
  -8  11   5   46.97    5.72
   7 -11  -5   52.34    5.27
  -7  11   5   53.90    5.82
   6 -11  -5   54.82    5.29
  -6  11   5   65.31    6.07
  -5  11   5    1.96    3.10
   5 -11  -5   -1.06    1.72
  -4  11   5   39.12    4.85
   4 -11  -5   43.89    4.91
  -3  11   5  136.26    7.95
   3 -11  -5  148.01    8.11
  -2  11   5    7.37    3.22
  -1  11   5  104.22    6.42
   1 -11  -5   95.35    6.93
   0  11   5    1.30    1.01
   0 -11  -5   -1.61    1.96
  -1 -11  -5    3.20    2.62
  -2 -11  -5    2.47    2.59
  -3 -11  -5   41.87    6.34
  -4 -11  -5   -1.71    2.29
  -5 -11  -5   40.38    6.86
  -6 -11  -5   -0.77    3.42
  -7 -11  -5    3.98    4.45
  -8 -11  -5   -0.64    3.75
 -19  12   5    6.82    3.94
 -18  12   5   -1.59    3.13
 -18  12   5    4.94    5.17
 -17  12   5    0.86    3.27
 -17  12   5   -8.99    3.86
 -16  12   5    2.78    4.74
 -15  12   5   18.95    5.44
 -14  12   5   18.45    5.06
 -13  12   5   10.82    4.54
 -12  12   5   12.29    4.25
 -11  12   5   35.81    5.62
 -10  12   5   83.96    7.45
  -9  12   5   13.92    4.45
   8 -12  -5   14.47    3.41
  -8  12   5   13.37    4.38
  -7  12   5    9.98    4.05
   7 -12  -5    6.13    2.55
  -6  12   5    4.44    3.49
   6 -12  -5    3.25    2.20
   5 -12  -5   26.94    4.30
  -5  12   5   25.31    4.57
   4 -12  -5  163.08    8.98
  -4  12   5  165.41    8.93
   3 -12  -5   15.79    3.59
  -3  12   5   23.82    3.96
  -2  12   5  132.44    7.57
   2 -12  -5  129.59    8.26
  -1  12   5   10.90    2.99
   1 -12  -5   15.37    3.85
   0 -12  -5    0.54    2.01
  -1 -12  -5   21.09    4.48
  -2 -12  -5   28.10    5.46
  -3 -12  -5    8.63    4.11
  -4 -12  -5    7.83    4.47
  -5 -12  -5    8.96    4.57
  -6 -12  -5   25.44    6.35
  -7 -12  -5    3.44    4.42
 -18  13   5   -1.97    4.77
 -17  13   5    0.59    4.72
 -16  13   5    6.13    4.76
 -15  13   5   25.75    5.88
 -14  13   5    0.91    3.95
 -13  13   5   12.80    4.95
 -12  13   5   15.58    4.80
 -11  13   5   -0.73    3.48
 -10  13   5    7.11    3.97
  -9  13   5    1.18    3.32
  -8  13   5   -2.16    3.12
   8 -13  -5    1.29    2.05
   7 -13  -5    0.61    2.06
  -7  13   5    1.94    3.22
   6 -13  -5   12.95    3.37
  -6  13   5   11.80    3.80
  -5  13   5   58.30    5.81
   5 -13  -5   47.39    5.57
   4 -13  -5   45.60    5.59
  -4  13   5   39.13    4.91
  -3  13   5   20.22    3.92
   3 -13  -5   10.92    3.30
  -2  13   5   -3.71    2.37
   2 -13  -5    1.32    2.20
   1 -13  -5    8.89    3.23
   0 -13  -5    9.65    3.47
  -1 -13  -5   48.39    6.83
  -2 -13  -5   35.83    6.31
  -3 -13  -5    7.26    4.45
  -4 -13  -5   26.30    6.41
  -5 -13  -5    8.34    4.65
 -17  14   5   -7.38    4.22
 -16  14   5    6.26    4.77
 -15  14   5    2.29    4.52
 -14  14   5   23.16    5.93
 -13  14   5    9.51    4.79
 -12  14   5    2.05    4.02
 -11  14   5    1.81    3.88
 -10  14   5   28.59    5.58
  -9  14   5   -0.25    3.46
   8 -14  -5   26.72    4.62
  -8  14   5   21.30    5.04
  -7  14   5   14.54    4.26
   7 -14  -5    6.12    2.72
  -6  14   5   50.53    5.85
   6 -14  -5   48.91    6.03
   5 -14  -5    1.99    2.27
  -4  14   5    4.11    3.04
   4 -14  -5    1.24    2.32
  -3  14   5    0.37    2.81
   3 -14  -5   -3.57    1.75
   2 -14  -5    4.24    2.74
   1 -14  -5   14.79    4.09
   0 -14  -5  100.26    8.97
  -1 -14  -5   33.80    6.34
  -2 -14  -5    3.97    3.68
  -3 -14  -5    4.90    4.28
  -4 -14  -5   10.08    5.00
 -16  15   5   -0.37    4.46
 -15  15   5   10.48    5.26
 -14  15   5   -0.15    4.46
 -13  15   5    4.45    4.53
 -12  15   5    1.52    4.13
 -11  15   5   54.59    7.13
 -10  15   5    0.61    3.88
  -9  15   5   83.04    7.93
  -8  15   5    0.98    3.61
   8 -15  -5    0.08    2.20
  -7  15   5   72.03    7.07
   7 -15  -5   76.94    7.27
   6 -15  -5    1.91    2.82
  -6  15   5    4.04    3.47
  -5  15   5    9.30    3.60
   5 -15  -5   12.35    3.83
  -4  15   5    3.22    2.98
   4 -15  -5    3.44    2.86
   3 -15  -5   18.63    4.40
   2 -15  -5   30.15    5.63
   1 -15  -5   25.36    5.31
   0 -15  -5    3.17    2.91
  -1 -15  -5   -0.46    2.50
  -2 -15  -5   -0.64    3.37
  -3 -15  -5   11.83    5.12
 -15  16   5   -0.39    2.48
 -14  16   5   -3.51    1.67
 -13  16   5   -0.93    4.05
 -12  16   5   11.73    5.15
 -11  16   5   18.97    5.50
 -10  16   5   13.46    4.97
  -9  16   5   12.32    4.79
  -8  16   5    3.99    3.70
   8 -16  -5    2.28    2.85
  -7  16   5    9.72    4.12
   7 -16  -5    2.63    2.76
   6 -16  -5    7.87    3.64
  -6  16   5    0.74    3.04
   5 -16  -5    0.26    2.59
  -5  16   5   -3.63    2.84
   4 -16  -5   43.33    6.51
   3 -16  -5   15.65    4.28
   2 -16  -5   34.61    6.02
   1 -16  -5    0.33    2.65
   0 -16  -5   -0.81    1.24
  -1 -16  -5   -0.23    1.51
 -14  17   5    0.33    2.69
 -13  17   5   -1.84    1.93
 -12  17   5   -0.52    3.08
 -11  17   5    4.81    4.58
 -10  17   5   -0.32    3.72
   9 -17  -5    6.51    3.58
  -9  17   5    7.52    4.28
  -8  17   5   -0.74    3.82
   8 -17  -5    2.89    3.15
  -7  17   5    1.58    3.44
   7 -17  -5    4.47    3.34
  -6  17   5    1.11    3.34
   6 -17  -5    5.41    3.70
   5 -17  -5    0.41    3.02
   4 -17  -5    1.91    2.84
   3 -17  -5    0.54    1.80
   2 -17  -5   -0.87    1.37
   1 -17  -5    1.04    2.11
 -12  18   5    1.80    2.64
 -11  18   5   -5.09    4.04
 -10  18   5    0.63    4.15
   9 -18  -5    0.83    1.57
  -9  18   5   -1.00    3.77
  -8  18   5    3.80    4.09
   8 -18  -5    0.94    1.62
   7 -18  -5    0.12    1.44
   6 -18  -5    0.28    1.41
   5 -18  -5    0.75    1.61
   4 -18  -5    0.46    2.02
   3 -18  -5    0.04    2.57
 -11  19   5    5.08    5.17
 -10  19   5    0.33    4.26
  -9  19   5   63.37    7.50
   8 -19  -5    0.96    2.45
  -9  19  -6    2.19    5.07
  -8  18  -6   -2.25    4.18
  -9  18  -6    0.99    4.25
 -10  18  -6    3.08    4.97
   5 -17   6   18.46    4.30
   6 -17   6   18.87    4.54
  -7  17  -6   -0.94    3.43
   7 -17   6    2.45    3.30
  -8  17  -6    0.67    3.81
  -9  17  -6    2.93    4.85
 -10  17  -6   -1.19    4.28
 -11  17  -6   -1.30    4.67
  -6 -16   6   16.51    5.68
  -5 -16   6   -2.22    2.74
  -4 -16   6   22.58    5.43
  -3 -16   6   -2.02    2.53
  -2 -16   6    1.08    3.20
   1 -16   6   10.08    3.66
   2 -16   6   10.65    3.43
   3 -16   6    1.33    2.33
   4 -16   6    0.87    2.68
   5 -16   6   11.34    3.51
   6 -16   6    2.67    2.75
  -6  16  -6   -3.43    3.10
  -7  16  -6   -4.90    3.26
   7 -16   6   -5.08    2.36
  -8  16  -6   -0.97    3.41
  -9  16  -6    1.09    4.20
 -10  16  -6    4.24    5.05
 -11  16  -6   -2.10    2.87
 -12  16  -6    1.68    3.10
  -7 -15   6   13.12    5.07
  -6 -15   6    3.18    3.25
  -5 -15   6   14.59    4.50
  -4 -15   6   15.61    4.71
  -3 -15   6    7.62    3.53
  -2 -15   6   34.79    4.97
  -2 -15   6   49.35    6.46
  -1 -15   6   12.62    3.55
  -1 -15   6   11.96    3.67
   0 -15   6   11.85    3.46
   0 -15   6   12.68    3.52
   1 -15   6    0.38    2.51
   2 -15   6   14.75    3.82
   3 -15   6    6.88    2.91
   4 -15   6   26.32    4.28
  -5  15  -6    7.21    3.94
   5 -15   6   12.34    3.37
   6 -15   6    7.33    3.12
  -6  15  -6    0.53    3.46
   7 -15   6    5.32    3.02
  -7  15  -6   -2.16    3.55
  -8  15  -6    1.84    3.77
  -9  15  -6    9.04    4.42
 -10  15  -6   21.12    5.88
 -11  15  -6  -10.93    3.26
 -12  15  -6   -2.35    2.08
 -13  15  -6   -2.16    2.35
  -8 -14   6   16.19    5.15
  -7 -14   6    1.01    3.25
  -6 -14   6    5.03    3.47
  -5 -14   6    1.44    2.60
  -5 -14   6    3.12    3.07
  -4 -14   6   34.52    4.84
  -4 -14   6   25.91    5.12
  -3 -14   6    3.49    3.12
  -3 -14   6   -2.67    2.07
  -2 -14   6    2.10    2.35
  -2 -14   6   -0.73    2.30
  -1 -14   6   24.31    4.43
  -1 -14   6   34.84    4.61
   0 -14   6    1.86    2.16
   0 -14   6    3.62    2.62
   1 -14   6   16.33    3.52
   1 -14   6   10.88    2.99
   2 -14   6   89.93    6.36
   3 -14   6   51.39    5.04
  -4  14  -6    3.37    3.28
   4 -14   6    0.90    2.15
   5 -14   6   45.26    5.15
  -5  14  -6   41.45    5.68
  -6  14  -6   79.67    7.51
   6 -14   6   84.59    6.28
   7 -14   6   17.25    3.94
  -7  14  -6   17.77    5.08
  -8  14  -6   10.30    4.59
  -9  14  -6    3.25    3.99
 -10  14  -6   26.06    5.97
 -11  14  -6   -0.99    4.10
 -12  14  -6   -1.07    4.17
 -13  14  -6   -1.80    2.06
 -14  14  -6    2.31    5.53
  -9 -13   6   45.27    7.22
  -8 -13   6    3.69    3.47
  -8 -13   6   -0.95    2.66
  -7 -13   6   -2.70    3.52
  -7 -13   6    0.97    2.52
  -6 -13   6   -0.79    2.27
  -6 -13   6   -0.37    2.86
  -5 -13   6    2.99    2.50
  -5 -13   6    4.14    3.34
  -4 -13   6    0.64    2.18
  -4 -13   6    5.02    3.00
  -3 -13   6   68.87    6.72
  -3 -13   6   54.73    5.36
  -2 -13   6   -1.69    1.81
  -2 -13   6    1.99    2.21
  -1 -13   6   13.81    3.19
  -1 -13   6   14.12    3.37
   0 -13   6    2.08    1.78
   0 -13   6    0.79    2.03
   1 -13   6   33.59    4.32
   1 -13   6   36.83    4.42
   2 -13   6   20.72    3.40
   2 -13   6   25.18    3.77
   3 -13   6    5.95    2.46
  -3  13  -6    0.90    2.83
  -4  13  -6    9.98    3.81
   4 -13   6    6.76    2.65
   5 -13   6   43.22    4.84
  -5  13  -6   57.23    6.23
   6 -13   6   17.92    3.65
  -6  13  -6   23.81    5.17
   7 -13   6   36.59    4.78
  -7  13  -6   36.59    5.90
  -8  13  -6    3.90    3.89
  -9  13  -6   -4.44    3.19
 -10  13  -6   -1.03    3.78
 -11  13  -6   -1.38    3.83
 -12  13  -6   -3.08    3.81
 -13  13  -6    6.80    5.32
 -14  13  -6   18.04    6.48
 -11 -12   6   -0.37    4.64
 -10 -12   6   19.66    4.38
 -10 -12   6   10.57    4.24
  -9 -12   6   10.06    3.67
  -9 -12   6    4.54    2.85
  -8 -12   6   -1.00    2.13
  -8 -12   6    0.93    2.91
  -7 -12   6    2.34    2.93
  -7 -12   6    7.56    2.81
  -6 -12   6    9.68    3.14
  -6 -12   6    3.67    2.98
  -5 -12   6    5.34    2.59
  -5 -12   6    4.52    2.82
  -4 -12   6   97.97    6.40
  -4 -12   6  107.49    7.64
  -3 -12   6    0.25    2.01
  -3 -12   6    0.50    2.16
  -2 -12   6   20.52    3.49
  -2 -12   6   25.86    4.18
  -1 -12   6   53.99    4.81
  -1 -12   6   41.86    4.73
   0 -12   6    9.33    2.91
   0 -12   6   13.31    2.92
   1 -12   6  196.99    8.78
   1 -12   6  201.42    8.88
  -2  12  -6   19.90    3.77
   2 -12   6   12.77    2.85
   2 -12   6    5.10    1.96
   3 -12   6    7.38    2.64
   3 -12   6    1.94    1.54
  -3  12  -6   17.76    3.99
   4 -12   6   14.92    3.29
  -4  12  -6    9.28    3.86
  -5  12  -6   -1.04    2.97
   5 -12   6    0.43    2.22
  -6  12  -6   27.58    5.19
   6 -12   6   31.83    4.31
   7 -12   6    3.04    2.57
  -7  12  -6    6.37    3.62
  -8  12  -6    6.35    3.57
  -9  12  -6    4.90    3.92
 -10  12  -6    3.34    3.64
 -11  12  -6   -0.34    3.45
 -12  12  -6   14.93    5.66
 -13  12  -6    5.89    5.10
 -14  12  -6   -4.77    4.34
 -15  12  -6    9.72    5.97
 -12 -11   6    3.87    3.85
 -11 -11   6   19.46    4.77
 -11 -11   6   10.11    3.34
 -10 -11   6    8.30    3.53
 -10 -11   6   13.52    3.82
  -9 -11   6    3.47    2.53
  -9 -11   6   -1.37    2.20
  -8 -11   6    0.05    1.93
  -8 -11   6   -1.43    2.33
  -7 -11   6    2.40    2.60
  -7 -11   6    1.93    2.16
  -6 -11   6   14.64    3.21
  -6 -11   6    7.94    3.27
  -5 -11   6   37.98    5.36
  -5 -11   6   37.32    4.48
  -4 -11   6   10.95    2.89
  -4 -11   6    9.16    3.19
  -3 -11   6    9.52    2.82
  -3 -11   6    7.95    2.91
  -2 -11   6    0.32    1.90
  -2 -11   6    7.13    2.60
  -1 -11   6    0.80    1.96
  -1 -11   6   -0.53    1.73
   0 -11   6    2.79    2.19
   0 -11   6    3.31    2.03
   1 -11   6    9.61    2.16
   1 -11   6   10.20    2.65
  -2  11  -6   32.63    4.44
   2 -11   6   39.72    4.13
   3 -11   6    4.55    2.30
   3 -11   6    4.20    1.92
  -3  11  -6    4.45    3.18
  -4  11  -6   95.20    7.03
   4 -11   6   91.93    5.10
   4 -11   6   92.89    5.90
  -5  11  -6    0.62    3.12
   5 -11   6    4.36    2.57
  -6  11  -6   31.84    5.25
   6 -11   6   24.47    3.90
   7 -11   6    0.21    2.21
  -7  11  -6   -2.59    2.82
  -8  11  -6   34.01    5.63
  -9  11  -6    0.86    3.19
 -10  11  -6   22.76    5.48
 -11  11  -6    9.07    4.61
 -12  11  -6    2.50    4.42
 -13  11  -6    7.70    4.84
 -14  11  -6    7.36    5.40
 -15  11  -6    1.53    5.05
 -12 -10   6   18.18    4.42
 -11 -10   6    8.73    3.06
 -10 -10   6    0.56    2.30
  -9 -10   6    2.49    2.40
  -8 -10   6   11.26    3.13
  -7 -10   6   67.19    5.67
  -7 -10   6   82.21    7.24
  -6 -10   6   25.34    3.75
  -6 -10   6   21.39    4.12
  -5 -10   6   29.72    4.51
  -5 -10   6   19.01    3.47
  -4 -10   6  272.11   10.47
  -4 -10   6  255.89   11.34
  -3 -10   6    5.05    2.29
  -3 -10   6    0.99    1.94
  -2 -10   6   10.30    2.65
  -2 -10   6   14.98    3.00
  -1 -10   6    3.17    1.90
  -1 -10   6    2.85    1.86
   0 -10   6   15.37    2.94
   0  10  -6   16.06    3.02
   0 -10   6   16.47    2.89
   2 -10   6   67.85    4.27
  -2  10  -6   65.75    5.45
   2 -10   6   68.60    4.82
   3 -10   6   36.85    3.84
  -3  10  -6   45.69    4.94
   4 -10   6   23.70    2.74
  -4  10  -6   29.55    4.75
   4 -10   6   30.80    3.74
   5 -10   6   10.86    2.70
  -5  10  -6    2.96    3.16
   6 -10   6    4.03    2.40
  -6  10  -6   -1.55    2.69
  -7  10  -6   91.62    7.93
  -8  10  -6  171.72   10.50
  -9  10  -6   55.98    6.86
 -10  10  -6   25.10    5.51
 -11  10  -6   -1.50    3.37
 -12  10  -6   -2.21    3.72
 -13  10  -6    1.17    4.57
 -14  10  -6    3.65    4.83
 -15  10  -6    2.40    4.64
 -13  -9   6   13.35    4.24
 -12  -9   6   -1.39    2.62
 -11  -9   6   19.51    4.07
 -10  -9   6    0.98    2.16
  -9  -9   6   69.38    5.92
  -8  -9   6   12.22    2.87
  -7  -9   6   40.92    4.51
  -6  -9   6    8.47    2.53
  -5  -9   6   66.66    5.82
  -5  -9   6   61.32    4.96
  -4  -9   6    0.81    1.86
  -4  -9   6    1.07    1.87
  -3  -9   6   79.39    5.47
  -3  -9   6   91.12    5.48
  -2  -9   6   33.59    3.81
  -2  -9   6   30.70    3.54
   1   9  -6  156.86    6.71
  -1  -9   6  154.09    6.91
  -1  -9   6  165.47    7.28
   0  -9   6    0.00    1.53
   0  -9   6    1.11    0.97
   0   9  -6    0.03    2.01
   1  -9   6  100.64    5.07
  -1   9  -6  101.07    5.83
   1  -9   6  107.61    5.72
   2  -9   6    9.07    2.44
  -2   9  -6    6.60    2.69
   2  -9   6   10.13    2.00
  -3   9  -6   22.28    3.98
   3  -9   6   20.94    2.37
   3  -9   6   11.04    2.53
   4  -9   6   10.38    2.67
  -4   9  -6   11.70    3.43
  -5   9  -6  120.66    7.91
   5  -9   6  140.89    6.81
  -6   9  -6   13.52    3.91
   6  -9   6   19.01    3.26
  -7   9  -6  121.86    8.50
  -8   9  -6   34.75    5.57
  -9   9  -6   55.81    6.87
 -10   9  -6   83.86    8.31
 -11   9  -6   -0.09    3.46
 -12   9  -6    0.17    3.68
 -13   9  -6   25.93    6.16
 -14   9  -6   22.70    6.29
 -15   9  -6    7.32    5.12
 -16   9  -6   11.23    6.25
 -14  -8   6    3.71    3.35
 -13  -8   6   -0.25    2.79
 -12  -8   6   30.88    4.99
 -11  -8   6   -2.31    2.08
 -10  -8   6   44.03    5.13
  -9  -8   6   50.28    5.07
  -8  -8   6    2.31    1.79
  -7  -8   6   10.92    2.74
  -6  -8   6   -0.94    1.44
  -5  -8   6    8.49    2.39
  -4  -8   6  164.97    7.96
  -4  -8   6  172.75    7.45
  -3  -8   6    8.25    2.23
  -3  -8   6   11.41    2.64
  -2  -8   6   79.48    4.89
  -2  -8   6   70.39    4.59
   2   8  -6   79.93    4.02
   1   8  -6   17.81    2.58
  -1  -8   6   18.92    2.83
   0  -8   6   34.44    3.40
   0  -8   6   40.56    3.26
  -1   8  -6   34.79    3.55
   1  -8   6   33.23    3.37
   1  -8   6   32.69    2.78
   2  -8   6    3.09    1.79
   2  -8   6    1.02    1.17
  -2   8  -6    3.39    2.12
   3  -8   6   -1.66    1.45
  -3   8  -6    2.04    2.25
   3  -8   6   -0.77    0.95
   4  -8   6   24.49    3.18
  -4   8  -6   34.71    4.44
  -5   8  -6    3.61    2.73
   5  -8   6    1.16    1.94
   6  -8   6  206.65    8.55
  -6   8  -6  197.96   10.25
  -7   8  -6   72.64    6.81
  -8   8  -6    4.59    3.32
  -9   8  -6   43.35    6.06
 -11   8  -6   18.53    5.14
 -12   8  -6   17.34    5.29
 -13   8  -6   24.70    5.92
 -14   8  -6   34.25    6.82
 -15   8  -6    2.81    4.98
 -16   8  -6   -0.39    5.04
 -14  -7   6    5.79    3.28
 -13  -7   6   31.66    5.17
 -12  -7   6    1.57    2.42
 -11  -7   6   40.38    5.00
 -10  -7   6    1.92    2.11
  -9  -7   6   16.57    3.21
  -8  -7   6   -0.83    1.59
  -7  -7   6   10.26    2.64
  -6  -7   6   45.16    4.16
  -5  -7   6  105.10    5.78
  -4  -7   6    8.60    2.24
  -3  -7   6   60.72    4.29
  -3  -7   6   63.97    4.40
   3   7  -6   64.69    3.25
   2   7  -6    5.03    1.54
  -2  -7   6    5.01    1.56
  -2  -7   6    5.14    1.80
   1   7  -6  132.52    5.56
  -1  -7   6  106.32    5.18
  -1  -7   6  128.95    5.80
   0  -7   6    4.28    1.55
   0   7  -6    0.27    0.59
   0  -7   6   -0.28    1.21
   1  -7   6    3.81    1.27
  -1   7  -6    1.71    1.90
   1  -7   6    3.74    1.76
   2  -7   6   10.60    1.57
  -2   7  -6    8.33    2.39
   2  -7   6    8.28    2.09
   3  -7   6   59.29    3.96
  -3   7  -6   58.64    5.06
   4  -7   6   50.48    3.87
  -4   7  -6   45.44    4.80
   5  -7   6   33.13    3.50
  -5   7  -6   32.69    4.43
  -6   7  -6  117.90    7.74
  -7   7  -6    1.53    2.87
  -8   7  -6   15.24    4.23
  -9   7  -6    1.86    3.28
 -10   7  -6   18.20    4.66
 -11   7  -6   38.61    6.17
 -12   7  -6   14.84    5.05
 -13   7  -6   17.69    5.16
 -14   7  -6   -3.11    3.79
 -15   7  -6    6.32    5.23
 -16   7  -6    1.80    4.92
 -15  -6   6    4.71    3.43
 -14  -6   6    6.59    3.43
 -13  -6   6    2.66    2.53
 -12  -6   6   15.43    3.69
 -11  -6   6   -2.03    1.57
 -10  -6   6    1.51    2.02
  -9  -6   6   21.42    3.46
  -8  -6   6   26.94    3.66
  -7  -6   6   12.40    2.64
  -6  -6   6  200.75    8.24
  -5  -6   6    2.13    1.60
  -4  -6   6   85.02    4.80
   4   6  -6   74.30    2.93
  -3  -6   6    0.35    1.40
   3   6  -6    0.95    1.05
  -2  -6   6   44.85    3.40
   2   6  -6   36.03    2.53
   2   6  -6   41.80    2.91
  -1  -6   6   17.16    2.45
   1   6  -6   18.14    2.19
  -1  -6   6   14.86    2.04
   1   6  -6   17.24    2.28
   0  -6   6  139.14    5.78
   0   6  -6  140.85    5.57
   0  -6   6  142.10    5.12
   0   6  -6  134.20    6.02
  -1   6  -6   23.38    2.99
   1  -6   6   20.09    2.59
  -1   6  -6   22.51    2.73
   1  -6   6   23.81    1.86
   2  -6   6 1325.69   29.86
  -2   6  -6 1344.31   30.30
   2  -6   6 1325.16   30.34
  -2   6  -6 1316.27   33.58
  -3   6  -6    1.59    1.77
   3  -6   6    0.41    1.33
  -3   6  -6    1.37    1.76
   4  -6   6  206.98    7.72
  -4   6  -6  210.03    9.25
  -4   6  -6  213.53    8.42
   5  -6   6    3.39    1.76
  -5   6  -6    3.49    2.14
  -5   6  -6    3.84    2.03
  -6   6  -6   21.50    3.65
  -6   6  -6   16.92    3.71
  -7   6  -6  139.58    8.59
  -8   6  -6   41.41    5.42
  -9   6  -6  230.55   11.77
 -10   6  -6   36.38    5.76
 -11   6  -6    2.35    3.35
 -12   6  -6   53.50    6.97
 -13   6  -6    1.77    3.56
 -14   6  -6    2.88    4.22
 -15   6  -6   20.97    6.18
 -16   6  -6    2.12    5.66
 -15  -5   6    5.38    3.45
 -14  -5   6   -0.95    2.17
 -13  -5   6   21.01    4.29
 -12  -5   6   15.14    3.26
 -11  -5   6   74.92    5.72
 -10  -5   6   13.26    2.92
  -9  -5   6   68.75    5.17
  -8  -5   6   41.14    4.06
  -7  -5   6   70.71    4.58
  -6  -5   6   31.36    3.39
  -5  -5   6   14.91    2.48
   4   5  -6   66.42    2.59
  -4  -5   6   69.83    4.23
   4   5  -6   64.58    2.87
   3   5  -6   -0.69    0.98
   3   5  -6    0.59    1.11
  -3  -5   6   -0.11    1.20
  -2  -5   6   38.33    3.10
  -1  -5   6  507.19   13.47
  -1  -5   6  510.95   13.13
   0  -5   6   82.93    4.20
   0  -5   6   76.29    3.28
   0   5  -6   79.25    4.69
   0   5  -6   82.78    4.16
  -1   5  -6 1002.00   25.91
  -1   5  -6  984.12   23.18
   1  -5   6 1017.52   22.60
   1  -5   6  994.48   23.34
  -2   5  -6  137.38    6.73
  -2   5  -6  138.76    6.09
   2  -5   6  132.61    5.51
  -3   5  -6   51.90    4.10
  -3   5  -6   55.07    4.50
   3  -5   6   49.46    3.61
  -4   5  -6   92.44    5.31
  -4   5  -6   89.19    5.84
   4  -5   6   92.63    4.85
  -5   5  -6   25.31    3.84
  -5   5  -6   29.37    3.64
  -6   5  -6   54.03    4.71
  -6   5  -6   49.55    4.92
  -7   5  -6  248.53   11.19
  -7   5  -6  243.83    9.98
  -8   5  -6   -0.17    2.01
  -8   5  -6   -1.05    2.33
  -9   5  -6  116.14    8.31
 -10   5  -6    6.61    3.48
 -11   5  -6   52.59    6.57
 -12   5  -6    0.85    3.17
 -13   5  -6    3.09    3.64
 -14   5  -6    7.56    4.62
 -15   5  -6    2.79    4.51
 -16  -4   6    0.53    3.41
 -15  -4   6    5.17    3.49
 -14  -4   6   -1.52    2.37
 -13  -4   6   11.02    3.23
 -12  -4   6   13.36    3.32
 -11  -4   6   55.85    5.40
 -10  -4   6   10.59    2.63
  -9  -4   6   33.87    3.84
  -8  -4   6  146.86    6.92
  -7  -4   6   16.17    2.75
  -6  -4   6   79.72    4.64
  -5  -4   6   70.30    2.80
  -5  -4   6   80.26    4.39
  -4  -4   6    1.38    1.20
  -4  -4   6    1.38    1.28
  -3  -4   6  538.90   13.39
  -3  -4   6  528.75   13.88
  -2  -4   6  187.68    6.58
  -2  -4   6  191.63    6.40
  -1  -4   6   88.69    4.35
  -1  -4   6   78.29    3.92
  -1  -4   6   84.22    3.38
   0  -4   6  180.78    6.27
   0  -4   6  189.74    5.06
   0  -4   6  182.84    6.76
   1  -4   6   13.99    2.03
   1  -4   6   17.74    2.52
   2  -4   6   15.14    2.14
   2  -4   6   12.09    2.39
   3  -4   6   44.23    3.30
   3  -4   6   51.96    4.17
   4  -4   6    4.70    1.80
  -4   4  -6    3.90    2.24
  -4   4  -6    1.44    1.67
  -5   4  -6   -1.96    1.57
  -5   4  -6    0.24    1.58
  -6   4  -6  330.95   12.60
  -6   4  -6  316.34   11.18
  -7   4  -6   24.65    4.01
  -7   4  -6   24.74    3.67
  -8   4  -6   47.15    5.32
  -8   4  -6   50.65    4.95
  -9   4  -6    8.18    3.42
  -9   4  -6    9.73    3.14
 -10   4  -6   18.75    4.48
 -11   4  -6   30.78    5.37
 -12   4  -6    4.09    3.44
 -13   4  -6    1.33    3.29
 -14   4  -6    5.02    4.61
 -16  -3   6    4.43    3.61
 -15  -3   6   -2.67    2.10
 -14  -3   6    0.67    2.46
 -13  -3   6   72.45    6.53
 -12  -3   6   46.66    5.12
 -11  -3   6    0.02    1.70
 -10  -3   6   85.30    5.58
  -9  -3   6   39.44    3.93
  -8  -3   6   10.61    2.33
  -7  -3   6    0.05    1.27
  -6  -3   6    3.11    1.18
  -6  -3   6    5.65    1.68
  -5  -3   6   33.43    2.91
  -5  -3   6   30.93    2.15
  -4  -3   6  119.03    5.07
  -4  -3   6  120.71    4.23
  -3  -3   6   21.30    2.04
  -3  -3   6   13.65    1.95
  -2  -3   6    8.05    1.66
  -2  -3   6    7.51    1.64
  -1  -3   6  678.38   16.16
  -1  -3   6  677.91   17.18
   0  -3   6   43.76    2.78
   0  -3   6   32.61    2.97
   1  -3   6   18.54    2.21
   1  -3   6   18.67    2.74
   2  -3   6  146.30    6.55
   2  -3   6  151.39    5.61
   3  -3   6    0.95    1.34
   3  -3   6    2.42    2.14
   4  -3   6    8.78    2.74
  -6   3  -6    2.63    2.04
  -6   3  -6    2.56    2.11
  -7   3  -6  105.76    6.23
  -7   3  -6  128.19    7.39
  -8   3  -6    5.31    2.43
  -8   3  -6    3.30    2.62
  -9   3  -6    9.80    2.99
  -9   3  -6    9.54    3.35
 -10   3  -6    1.49    2.80
 -10   3  -6    2.76    2.60
 -11   3  -6   18.11    4.48
 -12   3  -6    1.46    3.26
 -13   3  -6    9.44    4.32
 -17  -2   6   10.38    4.18
 -16  -2   6    0.51    2.85
 -15  -2   6   29.50    5.32
 -14  -2   6   11.62    3.46
 -13  -2   6    5.10    2.65
 -12  -2   6    3.59    2.47
 -11  -2   6   48.52    4.93
 -10  -2   6   15.88    2.97
  -9  -2   6   74.58    4.89
  -8  -2   6    4.17    1.69
  -8  -2   6    5.09    1.57
  -7  -2   6    1.17    1.32
  -7  -2   6    2.05    1.34
  -6  -2   6    2.61    1.30
  -6  -2   6    1.28    1.32
  -5  -2   6   -0.54    1.12
  -5  -2   6    0.37    1.02
  -4  -2   6   66.55    3.55
  -4  -2   6   63.16    3.19
  -3  -2   6    2.84    1.23
  -3  -2   6    4.48    1.46
  -2  -2   6  338.92    9.09
  -2  -2   6  335.49    9.53
  -1  -2   6  158.43    5.26
  -1  -2   6  150.89    5.80
   0  -2   6    3.05    1.86
   0  -2   6    4.76    1.30
   1  -2   6    6.06    1.48
   1  -2   6    4.12    2.01
   2  -2   6    4.29    2.11
   2  -2   6   -0.47    1.15
   3  -2   6   49.02    4.06
   4  -2   6  141.82    6.67
   5  -2   6   26.83    3.60
   6  -2   6    3.30    2.86
  -7   2  -6    3.77    2.34
  -7   2  -6    6.75    2.68
  -8   2  -6   16.28    3.16
  -8   2  -6   25.46    4.13
  -9   2  -6    4.38    2.48
  -9   2  -6    1.62    2.51
 -10   2  -6   56.16    5.45
 -10   2  -6   52.11    5.87
 -11   2  -6    6.23    3.39
 -12   2  -6    9.71    3.88
 -15   2  -6    5.05    3.08
 -17  -1   6   -0.89    3.04
 -16  -1   6   13.78    4.06
 -15  -1   6    4.50    3.08
 -14  -1   6   14.65    3.45
 -13  -1   6    1.68    2.06
 -12  -1   6   64.38    5.76
 -11  -1   6   28.30    3.98
 -10  -1   6   16.24    3.18
  -9  -1   6    7.36    2.18
  -9  -1   6    3.63    1.71
  -8  -1   6  119.57    5.90
  -8  -1   6  119.48    5.09
  -7  -1   6  147.84    5.49
  -7  -1   6  146.13    6.17
  -6  -1   6    2.02    1.36
  -5  -1   6   28.25    2.25
  -5  -1   6   24.84    2.44
  -4  -1   6  489.75   12.35
  -4  -1   6  477.93   12.53
  -3  -1   6  212.83    6.41
  -3  -1   6  204.23    6.69
  -2  -1   6   10.43    1.49
  -2  -1   6    9.41    1.88
  -1  -1   6   16.44    1.71
  -1  -1   6   14.49    2.28
   0  -1   6   52.94    2.85
   0  -1   6   51.85    3.87
   0   1  -6   54.49    1.88
   1  -1   6  358.37   11.03
  -1   1  -6  356.10    8.84
   1  -1   6  372.24    9.56
   2  -1   6    4.56    1.39
   2  -1   6    3.70    2.11
   3  -1   6    3.29    2.01
   4  -1   6  148.29    7.15
   5  -1   6   25.80    3.62
   6  -1   6   -2.28    2.35
  -8   1  -6    0.12    2.23
  -8   1  -6    3.72    2.23
  -9   1  -6   84.93    5.73
  -9   1  -6   84.79    6.49
 -10   1  -6    2.03    2.70
 -10   1  -6    0.61    2.17
 -11   1  -6   35.48    5.20
 -11   1  -6   40.12    4.98
 -14   1  -6    4.97    3.20
 -15   1  -6    1.99    3.17
 -17   0   6    5.26    3.68
 -16   0   6   -0.32    2.39
 -15   0   6   55.98    6.49
 -14   0   6   30.85    4.85
 -13   0   6   -0.86    2.06
 -12   0   6   -0.07    1.91
 -11   0   6    6.11    2.23
 -10   0   6  112.41    6.26
 -10   0   6  116.95    5.73
  -9   0   6   38.92    3.40
  -9   0   6   42.89    3.86
  -8   0   6  123.06    5.84
  -8   0   6  131.44    5.49
  -7   0   6  141.05    5.70
  -7   0   6  145.40    6.04
  -6   0   6   25.23    2.47
  -6   0   6   22.03    2.38
  -5   0   6   41.32    3.15
  -5   0   6   40.60    2.78
  -4   0   6  321.17    8.66
  -4   0   6  318.57    9.21
  -3   0   6   62.20    2.91
  -3   0   6   63.67    3.73
  -2   0   6  204.37    6.95
  -2   0   6  200.54    5.71
   1   0  -6   22.90    1.62
  -1   0   6   26.62    2.74
  -1   0   6   25.05    1.80
   0   0   6  679.44   17.76
   0   0   6  670.07   15.34
   0   0  -6  696.83   15.91
   1   0   6   38.69    2.34
   1   0   6   32.13    3.17
  -1   0  -6   35.16    2.21
   2   0   6   87.05    4.93
  -2   0  -6   83.07    3.79
   3   0   6  107.13    5.65
   4   0   6  146.05    6.93
   5   0   6   28.42    3.78
   6   0   6   46.57    4.49
   7   0   6    0.72    2.97
  -8   0  -6   65.31    4.83
  -8   0  -6   55.40    5.36
  -9   0  -6    5.00    2.65
  -9   0  -6    2.98    2.05
 -10   0  -6   38.01    4.59
 -10   0  -6   26.74    4.54
 -12   0  -6   43.60    5.36
 -13   0  -6    2.45    2.52
 -14   0  -6   13.90    3.94
 -15   0  -6   -6.49    2.48
 -18   1   6   -0.17    1.99
 -17   1   6   -0.23    2.30
 -16   1   6   91.90    8.10
 -15   1   6    2.44    2.43
 -14   1   6   16.71    3.90
 -13   1   6    1.78    2.18
 -12   1   6    3.21    2.18
 -11   1   6  101.58    6.18
 -11   1   6   94.65    5.80
 -10   1   6  214.32    8.31
 -10   1   6  225.86    8.97
  -9   1   6    5.46    2.31
  -9   1   6    1.63    1.40
  -8   1   6  152.01    6.36
  -8   1   6  152.94    6.44
  -7   1   6    4.26    1.92
  -7   1   6    2.34    1.27
  -6   1   6   22.41    2.66
  -6   1   6   28.81    2.53
  -5   1   6    9.18    1.52
  -5   1   6    5.43    1.90
  -4   1   6  352.53    8.95
  -4   1   6  331.87   10.00
  -3   1   6   28.35    2.70
  -2   1   6  238.40    7.93
  -2   1   6  249.76    6.33
   2  -1  -6  248.33    7.00
  -1   1   6  171.42    6.37
  -1   1   6  170.20    4.84
   1  -1  -6  166.94    5.30
   0   1   6  259.16    8.67
   0  -1  -6  279.23    7.76
   0   1   6  268.14    6.95
  -1  -1  -6    0.43    1.10
   1   1   6   -1.77    1.61
   2   1   6   -1.20    1.67
  -2  -1  -6   -0.05    1.09
   3   1   6   82.90    5.10
   4   1   6   17.00    2.99
   5   1   6  122.45    6.61
   6   1   6   19.24    3.57
   7   1   6   87.52    6.31
  -9  -1  -6   35.30    4.22
  -9  -1  -6   31.46    4.48
 -11  -1  -6   10.93    2.92
 -12  -1  -6   12.29    3.28
 -13  -1  -6   13.84    3.68
 -14  -1  -6   -1.12    2.50
 -18   2   6    0.22    1.52
 -17   2   6    6.76    3.45
 -16   2   6    6.50    3.29
 -15   2   6   18.47    4.07
 -14   2   6    3.74    2.68
 -13   2   6    1.46    2.09
 -12   2   6   15.06    3.28
 -12   2   6   10.48    3.35
 -11   2   6   41.26    4.22
 -11   2   6   31.37    3.85
 -10   2   6   78.59    5.38
 -10   2   6   83.12    5.13
  -9   2   6    2.42    1.49
  -9   2   6    1.71    2.26
  -8   2   6   23.49    3.05
  -8   2   6   25.18    2.75
  -7   2   6  135.20    5.50
  -7   2   6  136.02    6.02
  -6   2   6  124.07    4.91
  -6   2   6  130.20    5.83
  -5   2   6    7.55    1.44
  -5   2   6    8.10    2.03
  -4   2   6   28.69    2.88
  -3   2   6    0.56    1.60
  -3   2   6    0.84    0.76
  -2   2   6   44.74    3.44
  -2   2   6   46.94    2.02
   2  -2  -6   46.24    2.77
   1  -2  -6    3.31    1.27
  -1   2   6    3.67    0.89
  -1   2   6    5.44    1.95
   0  -2  -6   30.47    2.48
   0   2   6   23.13    2.63
  -1  -2  -6    7.43    1.71
   1   2   6    7.55    2.07
  -2  -2  -6   20.43    2.47
   2   2   6   18.02    2.70
   3   2   6  895.92   23.13
  -3  -2  -6  863.93   22.71
   4   2   6  211.68    8.45
   5   2   6    6.83    2.70
   6   2   6  100.30    6.60
   7   2   6   -2.65    2.67
   8   2   6   35.52    4.73
  -9  -2  -6   29.61    3.94
 -10  -2  -6    5.24    2.25
 -11  -2  -6    2.92    2.14
 -12  -2  -6   25.06    4.25
 -13  -2  -6   -1.41    2.33
 -14  -2  -6   23.28    4.99
 -18   3   6   -1.46    1.30
 -17   3   6    0.01    2.58
 -16   3   6   -0.96    2.41
 -15   3   6    6.71    2.80
 -14   3   6   21.18    3.92
 -13   3   6    6.02    2.57
 -13   3   6    4.14    3.22
 -12   3   6    6.48    2.41
 -12   3   6    7.55    3.29
 -11   3   6    8.75    3.24
 -11   3   6   13.19    2.69
 -10   3   6   16.02    2.72
 -10   3   6   16.97    3.42
  -9   3   6   -0.02    1.13
  -9   3   6    3.99    2.35
  -8   3   6  140.83    5.89
  -8   3   6  148.97    6.67
  -7   3   6  208.03    8.14
  -7   3   6  225.33    7.27
  -6   3   6   29.68    2.29
  -6   3   6   25.66    2.95
  -5   3   6  158.21    5.07
  -4   3   6   16.98    1.42
  -4   3   6   15.17    2.48
  -3   3   6   97.13    5.07
  -3   3   6  101.03    2.98
   3  -3  -6   95.10    4.37
   2  -3  -6    3.11    1.32
  -2   3   6    2.65    1.83
  -2   3   6    2.88    0.64
   1  -3  -6  133.58    5.39
  -1   3   6  138.40    6.04
   0   3   6   28.15    3.00
   0  -3  -6   21.27    2.43
  -1  -3  -6  294.37    9.84
   1   3   6  311.72   10.14
  -2  -3  -6  227.62    8.44
   2   3   6  218.25    8.31
  -3  -3  -6  359.86   11.85
   3   3   6  359.52   11.85
  -4  -3  -6   70.97    4.96
   4   3   6   81.30    5.39
   5   3   6    0.46    2.53
   6   3   6    3.08    2.95
  -6  -3  -6    4.21    1.79
   7   3   6   -4.18    2.65
  -7  -3  -6    3.22    1.85
  -8  -3  -6    6.54    2.31
   8   3   6    6.46    2.74
  -9  -3  -6   32.07    4.13
 -10  -3  -6   10.27    2.79
 -11  -3  -6   44.90    5.15
 -12  -3  -6    3.61    2.68
 -19   4   6   -2.21    1.82
 -18   4   6    1.69    2.08
 -16   4   6    6.70    3.02
 -15   4   6   41.76    5.39
 -14   4   6    0.99    3.02
 -14   4   6    3.37    2.28
 -13   4   6   25.63    4.23
 -13   4   6   22.04    3.81
 -12   4   6   22.59    4.19
 -12   4   6   24.50    3.81
 -11   4   6    0.87    1.67
 -11   4   6    2.16    2.99
 -10   4   6   19.50    3.48
 -10   4   6   19.76    2.97
  -9   4   6   76.06    4.32
  -9   4   6   74.46    5.36
  -8   4   6   91.32    5.71
  -8   4   6   84.22    4.35
  -7   4   6  499.37   12.79
  -7   4   6  478.27   14.54
  -5   4   6    1.52    0.90
  -5   4   6    1.97    2.01
  -4   4   6    6.88    0.98
   4  -4  -6    6.26    1.78
  -4   4   6    8.17    2.29
  -3   4   6   -1.19    1.70
  -3   4   6    0.99    0.47
   3  -4  -6    1.21    1.29
  -2   4   6   37.86    3.23
   2  -4  -6   38.94    3.08
   1  -4  -6   64.58    3.92
  -1   4   6   60.29    4.25
   0  -4  -6  841.56   21.72
   0   4   6  829.75   21.77
   1   4   6   10.58    2.45
  -1  -4  -6    6.73    1.99
  -2  -4  -6  131.23    6.62
  -2  -4  -6  142.19    4.95
   2   4   6  152.36    6.62
  -3  -4  -6   10.78    2.48
  -3  -4  -6    8.26    1.62
   3   4   6    6.30    2.30
  -4  -4  -6    5.14    1.51
   4   4   6    8.33    2.66
  -4  -4  -6    6.87    2.31
  -5  -4  -6   31.95    4.23
   5   4   6   29.21    3.88
  -5  -4  -6   31.26    3.00
   6   4   6   15.64    3.10
  -6  -4  -6   19.74    2.81
  -7  -4  -6    1.17    1.67
   7   4   6   -1.01    0.96
  -8  -4  -6   26.59    3.61
  -9  -4  -6    5.75    2.37
 -19   5   6   -1.05    1.85
 -18   5   6   -2.35    2.24
 -17   5   6    3.20    2.86
 -16   5   6   33.07    5.17
 -15   5   6    6.90    3.86
 -15   5   6    9.32    3.18
 -14   5   6   -1.40    2.80
 -14   5   6    2.96    2.20
 -13   5   6    2.70    2.31
 -13   5   6    5.12    3.55
 -12   5   6    6.53    3.45
 -12   5   6   -0.30    1.77
 -11   5   6   39.66    4.83
 -11   5   6   40.53    4.01
 -10   5   6   87.91    6.20
 -10   5   6   92.15    5.18
  -9   5   6   14.99    2.45
  -9   5   6   10.31    3.10
  -8   5   6  297.28   10.80
  -8   5   6  292.25    9.11
  -7   5   6    1.51    2.33
  -7   5   6    0.06    0.61
  -6   5   6   -3.71    1.96
  -6   5   6   -0.16    0.84
  -5   5   6    3.84    0.96
  -5   5   6    4.46    2.36
  -4   5   6   10.96    1.04
   4  -5  -6   14.96    2.34
  -4   5   6   13.75    2.65
  -3   5   6   15.20    2.55
   3  -5  -6   14.24    2.33
  -2   5   6  125.80    6.13
   2  -5  -6  124.88    5.69
  -1   5   6  367.49   11.69
   1  -5  -6  361.61   11.57
   0   5   6 1089.56   27.78
   0  -5  -6 1107.61   22.94
   0  -5  -6 1113.52   28.13
   1   5   6  392.61   12.62
  -1  -5  -6  393.15   13.11
  -1  -5  -6  417.98    9.73
  -2  -5  -6  135.38    6.96
  -2  -5  -6  133.32    4.66
   2   5   6  130.10    6.57
  -3  -5  -6    1.83    1.87
   3   5   6    4.15    2.37
  -3  -5  -6   -0.03    1.01
   4   5   6    0.73    2.42
  -4  -5  -6    3.27    1.95
  -4  -5  -6    1.43    1.21
  -5  -5  -6  102.00    5.13
  -5  -5  -6  103.23    6.74
  -6  -5  -6   31.25    4.74
  -6  -5  -6   36.19    3.48
  -7  -5  -6   -0.82    2.11
 -19   6   6    0.50    1.53
 -18   6   6    3.44    2.68
 -17   6   6   13.14    3.88
 -16   6   6    1.58    3.45
 -16   6   6    0.27    2.41
 -15   6   6   -2.04    3.02
 -15   6   6    0.64    2.45
 -14   6   6    0.19    3.15
 -14   6   6   -0.62    1.96
 -13   6   6   34.22    4.47
 -13   6   6   22.77    4.61
 -12   6   6    2.05    1.94
 -12   6   6    0.01    3.40
 -11   6   6  202.00    9.56
 -11   6   6  193.17    8.15
 -10   6   6   18.02    3.89
 -10   6   6   11.75    2.45
  -9   6   6   48.27    4.87
  -9   6   6   43.48    3.29
  -8   6   6   24.71    3.80
  -7   6   6   16.91    1.93
  -7   6   6   15.30    3.21
  -6   6   6    3.50    2.55
  -6   6   6    3.17    1.06
   5  -6  -6  149.40    6.71
  -5   6   6  150.31    7.14
  -5   6   6  147.25    4.38
   4  -6  -6    0.68    1.47
  -4   6   6   -0.18    2.10
  -4   6   6    0.91    0.54
   3  -6  -6  323.25   10.82
  -3   6   6  318.56   10.83
  -2   6   6    2.48    2.13
   2  -6  -6    1.75    1.47
  -1   6   6  600.63   16.93
   1  -6  -6  578.30   17.10
   0  -6  -6 1026.31   21.21
   0   6   6 1008.65   26.20
   0  -6  -6 1012.91   26.84
   1   6   6    9.54    2.71
  -1  -6  -6   12.37    2.80
  -1  -6  -6   15.02    1.48
   2   6   6   17.88    3.21
  -2  -6  -6   24.61    3.75
   3   6   6   13.67    2.94
  -3  -6  -6   20.83    3.63
   5   6   6   50.15    4.52
  -5  -6  -6   37.74    4.98
  -6  -6  -6   46.85    5.64
  -7  -6  -6    3.16    2.53
  -8  -6  -6   49.23    6.56
  -9  -6  -6    0.19    2.82
 -10  -6  -6    1.17    3.40
 -11  -6  -6    2.16    4.32
 -12  -6  -6   -4.97    3.81
 -19   7   6    4.11    2.65
 -18   7   6   -0.13    2.57
 -17   7   6   -5.31    3.65
 -17   7   6    0.41    2.46
 -16   7   6   -4.00    3.35
 -16   7   6    3.62    2.76
 -15   7   6    4.80    3.69
 -15   7   6    4.78    2.68
 -14   7   6   21.16    3.98
 -14   7   6   28.86    4.89
 -13   7   6    1.79    1.90
 -13   7   6    5.79    3.69
 -12   7   6    2.24    3.72
 -12   7   6    9.43    2.47
 -11   7   6   81.18    6.75
 -11   7   6   85.30    5.28
 -10   7   6   10.48    2.27
 -10   7   6   11.75    3.74
  -9   7   6   -0.82    2.90
  -9   7   6   -0.82    0.84
  -8   7   6   67.54    3.83
  -8   7   6   73.24    5.86
  -7   7   6   73.53    5.72
   6  -7  -6  295.43   10.72
  -6   7   6  300.44   10.99
  -6   7   6  296.39    7.98
  -5   7   6  111.43    6.48
   5  -7  -6  119.73    6.14
  -5   7   6  115.97    3.62
  -4   7   6  269.18    9.99
   4  -7  -6  272.95    9.98
   3  -7  -6   26.95    3.36
  -3   7   6   40.62    4.03
  -2   7   6  140.60    6.72
   2  -7  -6  121.49    6.36
   1  -7  -6   12.55    2.64
  -1   7   6   12.59    2.80
   0   7   6  981.15   25.85
   0  -7  -6  981.72   26.77
  -1  -7  -6   33.06    4.28
   1   7   6   32.90    3.85
   2   7   6   10.04    2.95
  -2  -7  -6   12.57    3.04
   4   7   6   13.08    3.26
  -4  -7  -6   16.77    3.71
  -5  -7  -6   15.83    3.95
  -6  -7  -6   38.25    5.53
  -7  -7  -6   28.17    5.09
  -8  -7  -6    5.91    3.13
  -9  -7  -6    4.42    3.60
 -10  -7  -6   -1.64    3.41
 -11  -7  -6   15.71    5.66
 -19   8   6    3.42    3.14
 -18   8   6    7.62    5.06
 -18   8   6    3.29    2.84
 -17   8   6    0.87    4.16
 -17   8   6   -3.44    2.13
 -16   8   6    2.11    2.72
 -16   8   6    8.06    4.19
 -15   8   6   33.95    4.88
 -15   8   6   37.56    5.71
 -14   8   6   10.12    3.03
 -14   8   6   15.22    4.50
 -13   8   6   69.64    5.62
 -13   8   6   64.50    6.38
 -12   8   6   17.54    3.27
 -12   8   6   16.27    4.37
 -11   8   6   43.73    4.16
 -11   8   6   45.72    5.49
 -10   8   6    2.34    3.46
  -9   8   6   16.95    4.11
  -8   8   6   32.06    4.47
  -7   8   6  128.32    7.50
  -6   8   6   66.35    5.36
   6  -8  -6   69.75    4.91
   5  -8  -6  579.01   17.39
  -5   8   6  557.28   17.34
  -4   8   6   29.57    3.86
   4  -8  -6   29.47    3.57
   3  -8  -6  130.26    6.79
  -3   8   6  117.06    6.91
  -2   8   6  167.30    7.67
   2  -8  -6  151.25    7.67
   1  -8  -6   24.62    3.70
  -1   8   6   24.60    3.65
   0   8   6   12.11    3.09
   0  -8  -6    8.24    2.62
  -1  -8  -6  132.10    7.75
   1   8   6  124.43    6.87
  -2  -8  -6   88.05    6.42
   2   8   6   54.45    4.10
   3   8   6   78.90    5.39
  -3  -8  -6   92.37    6.79
  -4  -8  -6    3.66    2.60
  -5  -8  -6   13.70    3.94
  -6  -8  -6    2.10    2.76
  -7  -8  -6   18.00    4.69
  -8  -8  -6    2.22    3.33
  -9  -8  -6   27.52    6.21
 -10  -8  -6    1.75    4.20
 -19   9   6   10.91    4.03
 -18   9   6    3.92    3.21
 -18   9   6   12.37    5.26
 -17   9   6   -1.60    3.87
 -17   9   6    0.28    2.51
 -16   9   6   41.20    6.54
 -16   9   6   54.05    6.08
 -15   9   6   -5.03    3.03
 -15   9   6   -2.62    1.91
 -14   9   6   95.85    6.63
 -14   9   6   87.53    7.67
 -13   9   6    4.06    3.72
 -13   9   6    6.94    2.61
 -12   9   6    3.63    3.56
 -11   9   6   24.28    4.77
 -10   9   6   72.79    6.63
  -9   9   6   55.80    5.83
  -8   9   6  169.52    9.08
   7  -9  -6  168.70    8.13
  -7   9   6  153.53    8.69
   6  -9  -6   51.64    4.78
  -6   9   6   51.73    5.11
  -5   9   6   23.98    4.02
   5  -9  -6   28.90    3.91
  -4   9   6   13.47    3.42
   4  -9  -6   15.21    3.08
   3  -9  -6    1.92    1.69
  -3   9   6   -1.30    2.53
   2  -9  -6   42.36    4.61
  -2   9   6   48.71    4.69
  -1   9   6    1.64    2.64
   1  -9  -6   -1.47    1.48
   0   9   6   34.74    4.24
   0  -9  -6   27.34    4.28
  -1  -9  -6    2.33    2.09
   1   9   6    1.75    2.63
  -2  -9  -6   26.96    4.64
  -3  -9  -6    7.59    2.99
  -4  -9  -6   -0.92    2.17
  -5  -9  -6   12.68    3.94
  -6  -9  -6   18.78    4.68
  -7  -9  -6   11.01    4.02
  -8  -9  -6   23.68    5.97
  -9  -9  -6   10.48    4.87
 -19  10   6    0.14    5.11
 -19  10   6    2.82    3.15
 -18  10   6   -2.39    4.22
 -18  10   6    3.14    2.99
 -17  10   6   75.80    7.28
 -17  10   6   71.14    8.02
 -16  10   6    1.94    2.60
 -16  10   6    4.26    4.28
 -15  10   6   26.06    4.58
 -15  10   6   37.52    6.00
 -14  10   6    2.96    2.53
 -14  10   6    0.55    3.55
 -13  10   6   28.75    5.28
 -12  10   6    3.30    3.44
 -11  10   6   33.71    5.42
 -10  10   6   21.35    4.57
  -9  10   6   44.93    5.52
  -8  10   6   30.81    4.89
   7 -10  -6   61.40    5.41
  -7  10   6   64.29    5.83
   6 -10  -6   20.08    3.63
  -6  10   6   19.72    4.04
   5 -10  -6   16.26    3.36
  -5  10   6   14.26    3.72
  -4  10   6    0.60    3.21
   4 -10  -6    4.31    2.28
  -3  10   6   24.16    4.22
   3 -10  -6   18.41    3.41
   2 -10  -6   25.13    4.11
  -2  10   6   19.26    3.75
  -1  10   6    8.84    3.13
   1 -10  -6    4.08    2.31
   0 -10  -6   54.76    5.83
   0  10   6   53.70    4.99
  -1 -10  -6    5.07    2.67
  -2 -10  -6   18.50    4.20
  -3 -10  -6   17.17    4.55
  -4 -10  -6    4.34    3.16
  -5 -10  -6   69.33    8.05
  -6 -10  -6    3.99    3.51
  -7 -10  -6   11.63    4.84
  -8 -10  -6   30.72    7.08
 -19  11   6    0.79    5.57
 -19  11   6   10.99    4.11
 -18  11   6   -0.48    4.58
 -18  11   6    6.23    3.63
 -17  11   6    4.92    2.99
 -17  11   6    9.25    5.00
 -16  11   6   14.05    3.88
 -16  11   6    3.41    4.39
 -15  11   6    2.17    3.97
 -15  11   6    0.30    2.33
 -14  11   6   -0.15    3.65
 -13  11   6   25.41    5.29
 -12  11   6   20.20    4.99
 -11  11   6   36.83    5.67
 -10  11   6   18.57    4.70
  -9  11   6   12.21    4.29
  -8  11   6    3.74    3.66
  -7  11   6   14.81    4.27
   7 -11  -6   18.81    3.61
   6 -11  -6   33.50    4.51
  -6  11   6   42.08    5.23
   5 -11  -6   47.41    5.16
  -5  11   6   42.76    5.23
   4 -11  -6   83.95    6.32
  -4  11   6  101.70    7.00
   3 -11  -6    0.39    1.90
  -3  11   6   -0.95    2.80
   2 -11  -6   11.28    3.05
  -2  11   6    9.92    3.32
   1 -11  -6    9.26    3.07
  -1  11   6   12.45    3.29
   0 -11  -6   40.50    5.53
   0  11   6   41.70    4.52
  -1 -11  -6   -0.62    2.07
  -2 -11  -6   31.77    5.49
  -3 -11  -6   -0.02    2.60
  -4 -11  -6   60.10    7.72
  -5 -11  -6    3.74    3.62
  -6 -11  -6   47.26    7.84
  -7 -11  -6    2.49    3.95
 -18  12   6   -2.20    4.40
 -17  12   6    3.93    4.79
 -16  12   6    4.62    4.53
 -15  12   6    4.70    4.25
 -14  12   6   -0.74    3.60
 -13  12   6   15.02    4.96
 -12  12   6   26.12    5.48
 -11  12   6    5.33    3.74
 -10  12   6    4.86    3.59
  -9  12   6   30.33    5.20
   8 -12  -6   15.01    3.53
  -8  12   6   12.28    4.31
   7 -12  -6    3.72    2.33
  -7  12   6   13.94    4.13
  -6  12   6    4.99    3.30
   6 -12  -6    7.17    2.84
  -5  12   6  199.49    9.93
   5 -12  -6  198.65   10.00
  -4  12   6    1.54    2.85
   4 -12  -6    3.17    2.26
   3 -12  -6   57.27    6.05
  -3  12   6   60.18    5.38
  -2  12   6   -2.05    2.12
   2 -12  -6    4.00    2.57
  -1  12   6   24.14    3.98
   1 -12  -6   31.19    5.13
   0 -12  -6   -1.09    1.82
  -1 -12  -6   13.84    4.11
  -2 -12  -6   38.62    6.37
  -3 -12  -6   67.95    8.22
  -4 -12  -6   -1.62    3.40
  -5 -12  -6   18.71    5.78
  -6 -12  -6   -1.04    3.98
 -18  13   6   -1.39    5.12
 -17  13   6   -3.01    4.12
 -16  13   6   -0.74    4.18
 -15  13   6   -8.00    3.38
 -14  13   6   27.82    6.06
 -13  13   6    7.16    4.44
 -12  13   6   33.69    6.00
 -11  13   6   11.50    4.43
 -10  13   6    0.80    3.11
  -9  13   6   11.95    4.34
  -8  13   6   10.26    4.12
   8 -13  -6   12.98    3.55
   7 -13  -6    0.25    2.21
  -7  13   6    0.15    3.16
  -6  13   6   24.45    4.53
   6 -13  -6   20.81    4.09
  -5  13   6   -1.97    2.56
   5 -13  -6   -1.25    1.88
  -4  13   6   -2.62    2.54
   4 -13  -6   -2.74    1.70
  -3  13   6    3.80    2.95
   3 -13  -6    1.08    2.24
  -2  13   6    2.65    2.43
   2 -13  -6    4.60    2.88
   1 -13  -6    5.20    3.06
   0 -13  -6   84.59    8.31
  -1 -13  -6    6.59    3.69
  -2 -13  -6   33.57    6.39
  -3 -13  -6   13.55    4.86
  -4 -13  -6    6.84    4.41
  -5 -13  -6    4.65    4.59
 -17  14   6   -4.68    4.18
 -16  14   6   -0.78    4.34
 -15  14   6   41.26    7.20
 -14  14   6   25.32    6.13
 -13  14   6   -1.61    3.92
 -12  14   6    0.05    4.09
 -11  14   6   17.72    5.04
 -10  14   6    7.58    4.27
  -9  14   6   70.32    7.28
   8 -14  -6    3.12    2.59
  -8  14   6    0.55    3.59
   7 -14  -6    6.09    2.92
  -7  14   6    9.36    3.84
   6 -14  -6   13.44    3.70
  -6  14   6   12.19    3.95
   5 -14  -6   50.90    6.04
  -5  14   6   47.45    5.76
  -4  14   6    6.06    3.32
   4 -14  -6    1.83    2.17
   3 -14  -6    5.59    2.99
  -3  14   6    3.57    2.96
   2 -14  -6    9.05    3.83
   1 -14  -6   30.18    5.74
   0 -14  -6    2.65    3.15
  -1 -14  -6  101.12    9.69
  -2 -14  -6   17.67    5.49
  -3 -14  -6   -3.83    2.96
  -4 -14  -6    6.57    4.85
 -16  15   6    4.68    4.96
 -15  15   6    2.28    4.59
 -14  15   6    1.35    4.36
 -13  15   6   -3.14    3.88
 -12  15   6   24.76    5.85
 -11  15   6    3.24    4.11
 -10  15   6   34.49    6.22
  -9  15   6    3.47    4.08
   8 -15  -6   27.72    5.06
  -8  15   6   32.38    5.69
  -7  15   6   -1.28    3.28
   7 -15  -6    5.52    3.11
   6 -15  -6   -0.56    2.56
  -6  15   6   -1.54    3.08
   5 -15  -6    2.21    2.39
  -5  15   6    2.36    3.19
   4 -15  -6   15.86    4.46
  -4  15   6   19.73    4.15
   3 -15  -6    4.22    3.13
   2 -15  -6   43.55    6.58
   1 -15  -6    7.96    3.80
   0 -15  -6   37.67    6.94
  -1 -15  -6    2.74    3.74
  -2 -15  -6    5.09    4.33
 -15  16   6   -1.69    2.21
 -14  16   6   -1.38    1.97
 -13  16   6   -0.89    3.75
 -12  16   6   -0.11    4.18
 -11  16   6   23.53    5.82
 -10  16   6    3.48    4.11
   9 -16  -6   31.36    5.70
  -9  16   6   29.08    5.62
  -8  16   6    2.99    3.56
   8 -16  -6   -4.46    2.17
   7 -16  -6   19.49    4.66
  -7  16   6   21.29    4.93
  -6  16   6    6.51    3.96
   6 -16  -6    5.12    3.21
   5 -16  -6   31.10    5.74
  -5  16   6   35.55    5.38
   4 -16  -6   63.66    7.68
   2 -16  -6    5.93    3.35
   1 -16  -6    1.53    1.50
   0 -16  -6    2.26    2.76
  -1 -16  -6    2.31    3.89
 -14  17   6   -1.96    2.16
 -13  17   6   -2.33    1.94
 -12  17   6   -2.21    2.08
 -11  17   6   -0.34    3.85
 -10  17   6    0.24    3.97
  -9  17   6    5.39    4.32
   9 -17  -6    4.18    3.19
   8 -17  -6    4.27    3.51
  -8  17   6    6.88    4.28
  -7  17   6    8.11    3.96
   7 -17  -6    6.85    3.65
   6 -17  -6    6.59    3.93
   5 -17  -6   -0.57    2.53
   4 -17  -6    0.20    1.62
   3 -17  -6    0.77    1.70
   2 -17  -6    1.06    2.28
   1 -17  -6   -1.10    2.05
 -12  18   6   -3.25    2.08
 -11  18   6   -5.25    3.62
 -10  18   6   -1.14    3.71
  -9  18   6   12.11    4.82
  -8  18   6    0.77    3.79
   8 -18  -6   -0.99    1.64
   7 -18  -6   -0.27    1.51
   6 -18  -6   -0.38    1.77
   5 -18  -6    0.65    2.29
   4 -18  -6    0.94    2.47
 -10  19   6    5.44    4.94
  -9  19   6   -1.77    3.82
   6 -18   7   33.90    5.81
   7 -18   7    4.44    4.35
  -8  18  -7   -3.85    3.83
  -9  18  -7   -0.44    4.23
 -10  18  -7    3.31    5.33
   2 -17   7    5.97    3.27
   3 -17   7   30.98    5.11
   4 -17   7    1.71    3.08
   5 -17   7   43.02    5.90
   6 -17   7   -0.31    3.21
   7 -17   7   17.82    4.69
  -7  17  -7   15.38    5.40
  -8  17  -7   -4.08    4.19
  -9  17  -7    2.14    4.54
 -10  17  -7   -3.89    3.93
 -11  17  -7   10.79    6.40
  -6 -16   7    5.81    4.35
  -1 -16   7    0.51    2.97
   0 -16   7    0.10    2.85
   1 -16   7   14.21    3.82
   2 -16   7   37.35    5.30
   3 -16   7    7.83    3.28
   4 -16   7   -2.56    2.19
   5 -16   7    3.32    3.17
   6 -16   7    1.71    2.93
  -6  16  -7   -1.44    3.69
   7 -16   7    8.21    3.57
  -7  16  -7    3.30    3.96
  -8  16  -7   -2.83    3.70
  -9  16  -7   11.05    4.99
 -10  16  -7   39.82    7.55
 -11  16  -7   -5.78    2.05
 -12  16  -7   -4.08    2.53
  -7 -15   7    4.31    4.37
  -6 -15   7   23.04    5.53
  -5 -15   7   16.70    4.96
  -4 -15   7   17.04    4.86
  -4 -15   7   10.45    3.81
  -3 -15   7    1.96    2.95
  -2 -15   7   60.96    6.12
  -1 -15   7    2.86    2.85
   0 -15   7   34.03    5.01
   1 -15   7    0.28    2.57
   2 -15   7   53.60    5.77
   3 -15   7   -1.80    2.15
   4 -15   7    4.91    2.79
   5 -15   7    1.16    2.29
  -5  15  -7    1.72    3.21
  -6  15  -7   14.97    4.64
   6 -15   7    9.59    3.48
  -7  15  -7    1.14    3.93
   7 -15   7    3.93    3.10
  -8  15  -7    1.41    4.08
  -9  15  -7    6.56    4.51
 -10  15  -7    1.38    4.21
 -11  15  -7   -1.17    3.74
 -12  15  -7   -3.72    2.07
  -8 -14   7    8.65    3.90
  -7 -14   7    2.78    3.03
  -7 -14   7    3.61    3.47
  -6 -14   7    0.95    3.08
  -6 -14   7    1.69    2.81
  -5 -14   7    5.47    3.37
  -5 -14   7    8.73    3.34
  -4 -14   7    3.32    2.63
  -4 -14   7   -3.23    2.27
  -3 -14   7   13.25    3.94
  -3 -14   7   12.63    3.43
  -2 -14   7   24.86    4.56
  -2 -14   7   21.61    4.04
  -1 -14   7    6.12    2.98
   0 -14   7    4.36    2.68
   1 -14   7    3.40    2.73
   2 -14   7   17.32    3.69
   3 -14   7   11.42    3.28
   4 -14   7    2.16    2.42
  -4  14  -7    2.90    3.57
  -5  14  -7   61.73    6.72
   5 -14   7   48.34    5.33
   6 -14   7   -2.95    2.10
  -6  14  -7   -1.30    3.14
   7 -14   7    0.85    2.34
  -7  14  -7    0.88    3.80
  -8  14  -7   11.13    4.65
  -9  14  -7   -0.65    3.90
 -10  14  -7    5.38    4.48
 -11  14  -7    8.37    5.16
 -12  14  -7   -2.51    2.29
 -13  14  -7   -4.54    2.23
 -10 -13   7    6.39    5.32
  -9 -13   7    0.64    2.88
  -9 -13   7   -2.56    3.12
  -8 -13   7    2.71    3.12
  -8 -13   7    4.08    3.24
  -7 -13   7   19.05    4.84
  -7 -13   7   17.07    4.03
  -6 -13   7   -1.05    2.73
  -6 -13   7   -1.91    1.94
  -5 -13   7    5.75    2.86
  -5 -13   7    5.38    3.52
  -4 -13   7   43.47    5.24
  -4 -13   7   45.12    5.80
  -3 -13   7   -3.78    2.14
  -3 -13   7   -0.54    2.24
  -2 -13   7   -0.96    2.00
  -2 -13   7    3.37    2.40
  -1 -13   7   18.50    3.71
  -1 -13   7   12.76    3.04
   0 -13   7   -1.39    2.10
   1 -13   7   -0.74    2.18
   2 -13   7   -0.28    1.86
   3 -13   7    3.58    2.24
  -3  13  -7    9.25    3.59
   4 -13   7   20.87    3.73
  -4  13  -7   28.80    5.12
   5 -13   7    6.73    2.87
  -5  13  -7   12.70    4.07
   6 -13   7   53.40    5.46
  -6  13  -7   59.13    6.94
   7 -13   7    3.62    2.74
  -7  13  -7    8.75    4.15
  -8  13  -7   30.77    5.96
  -9  13  -7   -0.33    3.38
 -10  13  -7    3.36    3.96
 -11  13  -7    8.49    4.95
 -12  13  -7    5.80    4.68
 -13  13  -7   24.97    6.85
 -11 -12   7   12.10    4.54
 -10 -12   7    4.55    3.21
 -10 -12   7    4.50    3.41
  -9 -12   7    2.14    2.52
  -9 -12   7    8.26    3.83
  -8 -12   7    4.15    3.36
  -8 -12   7    6.43    2.88
  -7 -12   7    6.53    3.44
  -7 -12   7    9.18    3.22
  -6 -12   7   -0.40    2.09
  -6 -12   7    2.41    2.61
  -5 -12   7  125.80    8.64
  -5 -12   7  136.67    7.79
  -4 -12   7    6.35    2.83
  -4 -12   7    2.45    2.63
  -3 -12   7   -0.03    2.15
  -3 -12   7   -3.26    1.93
  -2 -12   7    6.86    2.88
  -2 -12   7    6.61    2.63
  -1 -12   7    0.84    1.87
  -1 -12   7   -0.52    1.69
   0 -12   7  151.19    7.66
   0 -12   7  174.16    8.29
   1 -12   7   -1.23    1.14
   1 -12   7   10.88    3.09
   2 -12   7  101.74    6.40
  -2  12  -7   96.85    6.74
  -3  12  -7   33.30    5.02
   3 -12   7   33.72    4.24
   4 -12   7    5.67    2.59
  -4  12  -7    6.07    3.63
   5 -12   7   72.64    5.59
  -5  12  -7   89.10    7.57
   6 -12   7   29.30    4.30
  -6  12  -7   21.00    4.90
  -7  12  -7   -0.60    2.95
   7 -12   7    6.61    2.87
  -8  12  -7   -0.23    3.06
  -9  12  -7    8.04    4.45
 -10  12  -7   35.30    6.46
 -11  12  -7    3.60    3.99
 -12  12  -7   14.78    5.45
 -13  12  -7   -1.14    4.55
 -14  12  -7   17.49    6.37
 -12 -11   7   13.83    4.64
 -11 -11   7    1.95    2.91
 -11 -11   7    0.03    2.95
 -10 -11   7    9.52    3.14
 -10 -11   7    9.13    3.66
  -9 -11   7   14.88    4.24
  -9 -11   7   13.83    3.63
  -8 -11   7   44.17    6.18
  -8 -11   7   34.35    4.78
  -7 -11   7   -1.85    1.94
  -7 -11   7    2.29    2.58
  -6 -11   7   19.16    3.77
  -6 -11   7   22.82    4.50
  -5 -11   7    5.32    2.58
  -5 -11   7   -3.42    1.70
  -4 -11   7   16.47    3.38
  -4 -11   7   20.59    4.14
  -3 -11   7   28.25    4.23
  -3 -11   7   24.01    3.79
  -2 -11   7   47.19    4.82
  -2 -11   7   38.38    4.28
  -1 -11   7   44.03    4.47
  -1 -11   7   36.18    4.21
   1 -11   7  105.24    5.70
   1 -11   7   99.50    6.19
   2 -11   7   36.59    4.21
  -2  11  -7   31.95    4.53
  -3  11  -7   38.61    5.06
   3 -11   7   28.60    3.91
  -4  11  -7   28.85    5.02
   4 -11   7   32.09    4.08
   5 -11   7   47.79    4.83
  -5  11  -7   42.24    5.89
   6 -11   7    2.47    2.46
  -6  11  -7    2.09    3.40
  -7  11  -7    4.00    3.55
   7 -11   7    3.75    2.52
  -8  11  -7   68.66    7.58
  -9  11  -7   -1.54    2.93
 -10  11  -7    0.39    3.73
 -11  11  -7    2.53    4.19
 -12  11  -7   -4.50    3.64
 -13  11  -7    4.73    4.69
 -14  11  -7    4.46    4.90
 -12 -10   7    1.76    3.02
 -11 -10   7    1.01    2.82
 -10 -10   7    1.13    2.48
  -9 -10   7   39.67    4.99
  -8 -10   7    9.35    2.86
  -7 -10   7    0.30    1.99
  -7 -10   7    4.48    2.58
  -6 -10   7    6.58    2.62
  -6 -10   7   16.96    3.75
  -5 -10   7    1.69    2.08
  -5 -10   7    4.14    2.22
  -4 -10   7   30.21    4.33
  -4 -10   7   30.16    4.02
  -3 -10   7   46.10    4.77
  -3 -10   7   53.46    4.90
  -2 -10   7   71.69    5.24
  -2 -10   7   75.82    5.39
  -1 -10   7  218.30    9.03
   0  10  -7   23.69    3.46
   0 -10   7   22.32    3.40
   0 -10   7   16.40    2.75
   1 -10   7    7.78    1.86
  -1  10  -7    5.91    2.72
   1 -10   7    8.88    2.64
   2 -10   7    0.91    1.38
  -2  10  -7    3.65    2.87
   2 -10   7   -0.83    1.87
   3 -10   7    9.76    2.62
  -3  10  -7    9.86    3.45
  -4  10  -7    7.35    3.46
   4 -10   7    4.04    2.15
   5 -10   7    7.21    2.73
  -5  10  -7    6.35    3.63
  -6  10  -7    7.33    3.55
   6 -10   7   10.72    3.17
  -7  10  -7   86.52    7.89
  -8  10  -7   -1.97    2.60
  -9  10  -7   -0.12    3.13
 -10  10  -7   -1.05    3.36
 -11  10  -7    6.06    4.52
 -12  10  -7   -1.62    3.62
 -13  10  -7   -0.70    4.17
 -14  10  -7    1.91    4.80
 -15  10  -7    1.51    5.53
 -13  -9   7   -0.22    2.93
 -12  -9   7    5.94    3.21
 -11  -9   7    3.62    3.03
 -10  -9   7   21.28    4.05
  -9  -9   7   35.22    4.70
  -8  -9   7   45.29    4.88
  -7  -9   7    4.57    2.31
  -6  -9   7   -2.15    1.61
  -5  -9   7    2.74    2.03
  -5  -9   7    0.63    1.93
  -4  -9   7   11.17    2.82
  -4  -9   7   13.66    2.96
  -3  -9   7  169.77    7.67
  -3  -9   7  154.23    7.65
  -2  -9   7  100.28    5.76
  -2  -9   7  107.99    5.96
   1   9  -7   22.42    3.06
  -1  -9   7   21.96    3.19
   0  -9   7   83.37    4.71
   0  -9   7   83.16    5.26
   1  -9   7   48.13    4.25
  -1   9  -7   52.29    4.56
   1  -9   7   57.85    3.59
   2  -9   7   33.88    2.84
  -2   9  -7   25.35    3.78
   2  -9   7   45.16    4.19
   3  -9   7   -1.29    1.53
   3  -9   7   -0.15    1.13
  -3   9  -7    0.56    2.03
  -4   9  -7   -1.47    2.49
   4  -9   7    3.20    2.11
  -5   9  -7    8.28    3.28
   5  -9   7    3.05    2.06
  -6   9  -7    3.50    2.76
   6  -9   7    4.89    2.60
  -7   9  -7  165.32    9.88
  -8   9  -7   -2.15    2.78
  -9   9  -7   19.40    4.90
 -10   9  -7   -0.47    3.41
 -11   9  -7   -0.76    3.53
 -12   9  -7    0.95    3.78
 -13   9  -7   19.19    5.70
 -14   9  -7   14.29    5.95
 -15   9  -7   17.58    6.51
 -14  -8   7   -1.13    3.10
 -13  -8   7    0.10    2.91
 -12  -8   7    1.17    2.54
 -11  -8   7   93.25    6.88
 -10  -8   7    3.61    2.45
  -9  -8   7    0.80    2.06
  -8  -8   7   32.61    4.20
  -7  -8   7   40.07    4.35
  -6  -8   7  138.60    7.13
  -5  -8   7  142.96    7.09
  -4  -8   7   -1.08    1.71
  -4  -8   7    3.03    1.71
  -3  -8   7   51.85    4.05
  -3  -8   7   44.58    4.15
   2   8  -7   21.30    2.55
  -2  -8   7   18.60    2.99
   1   8  -7   43.88    3.68
  -1  -8   7   50.49    3.65
  -1  -8   7   51.21    4.07
   0  -8   7    1.63    1.28
   0  -8   7   -1.55    1.66
   0   8  -7   -0.94    0.72
   1  -8   7   43.04    2.89
  -1   8  -7   44.95    4.24
   1  -8   7   44.40    3.89
   2  -8   7    4.85    1.38
  -2   8  -7    9.16    2.81
   2  -8   7    2.50    1.78
   3  -8   7   46.73    3.97
  -3   8  -7   43.18    4.85
  -4   8  -7   21.13    4.01
   4  -8   7   26.88    3.44
  -5   8  -7  147.23    8.76
   5  -8   7  155.77    7.36
   6  -8   7   62.79    5.03
  -6   8  -7   61.58    6.36
  -7   8  -7   19.94    4.41
  -8   8  -7    0.65    2.88
  -9   8  -7   -3.52    3.14
 -10   8  -7    2.96    3.39
 -11   8  -7    2.35    3.42
 -12   8  -7    7.16    4.43
 -13   8  -7   10.21    4.88
 -14   8  -7    0.12    4.27
 -15   8  -7   -1.03    4.50
 -14  -7   7    6.93    3.31
 -13  -7   7    2.40    2.90
 -12  -7   7   49.18    5.70
 -11  -7   7    4.30    2.35
 -10  -7   7   16.61    3.47
  -9  -7   7   -0.37    1.83
  -8  -7   7    3.78    1.94
  -7  -7   7    4.16    2.13
  -6  -7   7   86.59    5.47
  -5  -7   7   -0.52    1.21
  -4  -7   7  173.80    7.46
   3   7  -7   11.97    1.78
  -3  -7   7   11.53    2.43
  -3  -7   7    7.00    1.95
  -2  -7   7    0.75    1.34
   2   7  -7    1.65    1.38
  -2  -7   7    1.68    1.72
  -1  -7   7   42.67    3.07
   1   7  -7   34.01    3.02
   1   7  -7   33.20    3.27
  -1  -7   7   30.85    3.16
   0  -7   7  135.10    5.30
   0  -7   7  143.03    6.22
   0   7  -7  134.85    5.80
   0   7  -7  127.49    6.27
   1  -7   7  153.33    6.61
   1  -7   7  159.97    5.41
  -1   7  -7  154.68    6.67
  -1   7  -7  156.40    7.32
   2  -7   7   74.63    4.76
   2  -7   7   70.95    3.20
  -2   7  -7   77.63    5.34
  -2   7  -7   70.33    4.70
   3  -7   7   55.81    4.05
  -3   7  -7   54.43    4.92
  -3   7  -7   57.71    4.68
   4  -7   7   60.88    4.52
  -4   7  -7   52.43    4.78
  -4   7  -7   59.31    5.44
   5  -7   7    1.61    1.91
  -5   7  -7   -0.68    2.03
  -5   7  -7    0.78    2.26
  -6   7  -7    6.06    2.98
  -7   7  -7   15.47    3.85
  -8   7  -7   23.06    4.65
  -9   7  -7   95.25    8.25
 -10   7  -7    9.54    3.98
 -11   7  -7   -0.10    2.68
 -12   7  -7   11.74    4.56
 -13   7  -7   10.50    4.59
 -14   7  -7   -0.68    3.91
 -15   7  -7    6.12    5.49
 -16   7  -7    2.56    5.83
 -15  -6   7   42.09    6.32
 -14  -6   7    0.08    2.74
 -13  -6   7    8.98    3.28
 -12  -6   7    7.09    2.72
 -11  -6   7   -1.22    1.78
 -10  -6   7   22.37    3.65
  -9  -6   7   63.15    5.31
  -8  -6   7   53.01    4.78
  -7  -6   7   41.11    4.10
  -6  -6   7    0.24    1.41
  -5  -6   7  196.61    7.99
   4   6  -7    2.94    1.19
  -4  -6   7    2.07    1.49
   4   6  -7    1.54    1.07
   3   6  -7   14.09    1.83
  -3  -6   7   15.32    2.58
   3   6  -7   12.67    1.91
  -2  -6   7    0.74    1.39
  -2  -6   7    1.14    1.39
   2   6  -7    0.97    1.34
   2   6  -7    0.39    1.48
   0   6  -7    8.72    2.11
   0  -6   7    0.42    1.38
   0   6  -7    4.81    1.95
   0  -6   7    6.11    1.31
  -1   6  -7  169.14    6.82
  -1   6  -7  152.34    7.27
   1  -6   7  153.98    6.44
   1  -6   7  170.38    5.03
  -2   6  -7    3.32    1.99
  -2   6  -7    4.01    1.84
   2  -6   7    0.54    1.37
  -3   6  -7   -1.01    1.47
   3  -6   7    0.15    1.40
  -3   6  -7    1.42    1.86
  -4   6  -7   43.60    4.73
  -4   6  -7   56.26    4.67
   4  -6   7   54.06    4.02
   5  -6   7   30.85    3.47
  -5   6  -7   18.77    3.38
  -5   6  -7   27.77    4.14
  -6   6  -7   10.72    3.28
  -6   6  -7   13.32    3.21
  -7   6  -7  196.73    9.21
  -7   6  -7  198.34   10.33
  -8   6  -7   20.56    4.50
  -9   6  -7   97.73    8.06
 -10   6  -7   -0.60    2.75
 -11   6  -7   16.78    4.71
 -12   6  -7   10.40    4.26
 -13   6  -7    0.34    3.65
 -14   6  -7    2.02    4.10
 -15   6  -7    0.51    4.94
 -16   6  -7   -6.52    6.56
 -15  -5   7   -1.04    2.72
 -14  -5   7    0.19    2.49
 -13  -5   7   16.81    3.98
 -12  -5   7   17.19    3.64
 -11  -5   7    4.34    2.44
 -10  -5   7    3.77    2.15
  -9  -5   7    1.26    1.72
  -8  -5   7  122.03    6.48
  -7  -5   7   18.73    3.06
  -6  -5   7   21.42    3.02
  -5  -5   7    2.57    1.55
  -4  -5   7    5.99    1.82
  -4  -5   7    6.92    1.65
  -3  -5   7  116.09    5.50
  -3  -5   7  129.40    4.91
  -2  -5   7  316.95    9.56
  -2  -5   7  343.92   10.15
  -1  -5   7    0.02    1.23
  -1  -5   7   -0.63    1.75
  -1  -5   7    3.84    1.17
   0  -5   7  278.14    7.22
   0  -5   7  270.76    8.66
   0  -5   7  268.37    9.19
   1  -5   7   20.36    3.22
   1  -5   7   27.16    2.72
   2  -5   7  186.27    7.02
   3  -5   7   81.93    4.62
  -3   5  -7   84.99    5.04
  -3   5  -7   91.30    5.87
  -4   5  -7   16.41    3.18
  -4   5  -7   21.78    3.22
   4  -5   7   18.66    2.78
  -5   5  -7    3.89    2.43
  -5   5  -7    1.33    1.86
  -6   5  -7   23.97    3.76
  -6   5  -7   25.64    4.31
  -7   5  -7   34.92    4.46
  -7   5  -7   46.83    5.34
  -8   5  -7  211.69    9.82
  -8   5  -7  239.29   11.39
  -9   5  -7   -0.63    2.29
  -9   5  -7    3.86    3.18
 -10   5  -7   10.75    3.86
 -11   5  -7    4.57    3.57
 -12   5  -7    2.89    3.61
 -13   5  -7   10.66    4.58
 -14   5  -7   23.29    6.06
 -15   5  -7    2.88    4.86
 -16  -4   7    8.15    3.68
 -15  -4   7    0.56    2.56
 -14  -4   7   -2.01    1.99
 -13  -4   7   13.81    3.42
 -12  -4   7    1.56    2.03
 -11  -4   7   11.87    2.95
 -10  -4   7   37.55    4.31
  -9  -4   7   48.99    4.49
  -8  -4   7    0.16    1.32
  -7  -4   7    0.37    1.30
  -6  -4   7   48.57    3.69
  -5  -4   7   65.96    4.03
  -5  -4   7   61.40    3.06
  -4  -4   7  256.66    7.49
  -4  -4   7  258.68    8.66
  -3  -4   7  686.25   17.24
  -3  -4   7  683.44   17.05
  -2  -4   7   13.12    2.13
  -2  -4   7   14.86    2.06
  -1  -4   7  576.81   13.57
  -1  -4   7  560.05   15.18
  -1  -4   7  560.75   14.47
   0  -4   7    1.73    2.08
   0  -4   7    4.00    1.47
   1  -4   7  149.04    6.63
   1  -4   7  143.94    5.70
   2  -4   7  206.67    8.11
   2  -4   7  199.46    7.14
   3  -4   7   91.14    4.67
   3  -4   7   76.86    5.40
   4  -4   7   13.45    3.33
   4  -4   7   20.10    2.67
  -5   4  -7  146.94    7.96
  -5   4  -7  148.59    7.17
  -6   4  -7   70.60    5.52
  -6   4  -7   69.00    5.73
  -7   4  -7  234.58    9.87
  -7   4  -7  252.84   11.30
  -8   4  -7   -1.24    1.99
  -8   4  -7    0.62    2.36
  -9   4  -7    8.79    2.93
  -9   4  -7    6.97    3.25
 -10   4  -7    7.00    3.49
 -10   4  -7    3.81    2.77
 -11   4  -7    4.24    3.38
 -12   4  -7    1.99    3.31
 -13   4  -7   70.98    7.96
 -14   4  -7    9.84    4.72
 -16  -3   7    4.23    3.31
 -15  -3   7    0.75    2.60
 -14  -3   7   12.55    3.48
 -13  -3   7   17.87    3.66
 -12  -3   7  135.71    7.75
 -11  -3   7  139.57    7.69
 -10  -3   7  114.28    6.48
  -9  -3   7   30.58    3.60
  -8  -3   7    7.91    2.09
  -7  -3   7   10.60    2.30
  -6  -3   7    4.44    1.44
  -6  -3   7    4.36    1.60
  -5  -3   7   32.62    2.50
  -5  -3   7   33.28    3.06
  -4  -3   7  130.71    4.77
  -4  -3   7  117.13    5.19
  -3  -3   7    0.03    1.09
  -3  -3   7    2.93    1.58
  -2  -3   7  129.46    5.10
  -2  -3   7  137.23    5.47
  -1  -3   7  112.34    4.74
  -1  -3   7  114.74    5.14
   0  -3   7  145.03    6.15
   0  -3   7  141.26    5.46
   1  -3   7    1.88    1.38
   1  -3   7   -0.22    2.01
   2  -3   7  166.08    7.33
   2  -3   7  180.67    6.43
   3  -3   7   31.73    3.58
   3  -3   7   27.43    2.78
   4  -3   7   69.58    5.24
   5  -3   7  106.33    6.44
  -6   3  -7  132.20    6.80
  -6   3  -7  133.99    7.59
  -7   3  -7   72.05    5.97
  -7   3  -7   64.49    5.27
  -8   3  -7    2.12    2.44
  -8   3  -7    0.20    1.98
  -9   3  -7    5.96    3.10
  -9   3  -7    7.78    2.91
 -10   3  -7    3.68    2.66
 -10   3  -7    4.14    2.88
 -11   3  -7   35.92    5.75
 -12   3  -7   11.47    4.29
 -13   3  -7   -1.04    3.46
 -17  -2   7    2.45    3.16
 -16  -2   7   -0.87    2.54
 -15  -2   7   33.69    5.43
 -14  -2   7   61.71    6.48
 -13  -2   7   65.70    6.21
 -12  -2   7    5.34    2.47
 -11  -2   7   29.72    4.09
 -10  -2   7    3.58    1.87
  -9  -2   7   -0.53    1.31
  -8  -2   7   92.96    5.13
  -8  -2   7   95.55    4.27
  -7  -2   7  345.34    9.50
  -7  -2   7  331.13   10.73
  -6  -2   7   86.87    4.51
  -6  -2   7   87.24    4.04
  -5  -2   7   12.91    2.10
  -4  -2   7   12.08    1.85
  -4  -2   7    8.60    1.79
  -3  -2   7   74.86    3.81
  -3  -2   7   72.42    3.66
  -2  -2   7   17.21    1.97
  -2  -2   7   17.48    2.22
  -1  -2   7  345.72    9.51
  -1  -2   7  359.34   10.67
   0  -2   7    6.30    2.16
   0  -2   7    4.94    1.49
   1  -2   7  526.64   13.36
   1  -2   7  534.60   15.14
   2  -2   7   11.32    1.91
   2  -2   7   14.68    2.79
   3  -2   7    8.50    2.57
   3  -2   7   12.15    2.04
   4  -2   7   -0.28    2.46
   5  -2   7   18.10    3.50
   6  -2   7    2.12    3.00
  -7   2  -7   88.08    5.58
  -7   2  -7   76.54    6.21
  -8   2  -7    0.03    1.97
  -8   2  -7   -1.01    2.20
  -9   2  -7    0.00    2.39
  -9   2  -7   -0.57    2.10
 -10   2  -7   -2.73    2.06
 -10   2  -7    1.41    2.62
 -11   2  -7    5.80    3.43
 -11   2  -7    2.72    2.87
 -12   2  -7   10.55    4.40
 -15   2  -7   11.73    4.25
 -17  -1   7   11.22    4.27
 -16  -1   7    0.62    2.73
 -15  -1   7   41.73    5.87
 -14  -1   7   25.12    4.47
 -13  -1   7    4.74    2.51
 -12  -1   7   16.62    3.53
 -11  -1   7   58.00    5.21
 -10  -1   7   -0.30    1.60
  -9  -1   7  124.35    6.33
  -9  -1   7  125.31    5.58
  -8  -1   7   37.77    3.48
  -8  -1   7   35.41    2.92
  -7  -1   7  179.50    6.92
  -7  -1   7  173.10    6.25
  -6  -1   7   31.05    2.59
  -6  -1   7   32.49    2.92
  -5  -1   7    1.75    1.20
  -5  -1   7    0.78    1.56
  -4  -1   7    0.87    1.52
  -4  -1   7    2.47    1.15
  -3  -1   7   52.23    3.44
  -3  -1   7   51.40    2.93
  -2  -1   7  128.17    4.68
  -2  -1   7  128.24    5.40
  -1  -1   7    2.58    1.67
  -1  -1   7   -0.83    0.93
   0  -1   7  297.07    8.29
   0   1  -7  306.69    7.26
   0  -1   7  283.39    9.54
  -1   1  -7   95.46    3.29
   1  -1   7   95.46    5.07
   1  -1   7   94.64    4.09
   2  -1   7   18.39    2.08
  -2   1  -7   13.48    1.55
   2  -1   7   15.77    2.86
   3  -1   7   69.50    4.77
   4  -1   7   56.63    4.72
   5  -1   7    0.89    2.71
   6  -1   7   11.34    3.50
   7  -1   7   13.90    4.02
  -8   1  -7   64.68    6.05
  -8   1  -7   56.44    5.04
  -9   1  -7    3.21    2.82
  -9   1  -7    5.43    2.49
 -10   1  -7   17.39    4.02
 -10   1  -7   10.67    3.32
 -11   1  -7    1.88    2.60
 -11   1  -7    9.49    3.72
 -14   1  -7    5.72    3.36
 -15   1  -7    2.66    3.41
 -18   0   7   -1.63    2.34
 -17   0   7   -2.40    1.60
 -16   0   7    6.14    3.26
 -15   0   7   -1.45    1.93
 -14   0   7    8.59    3.12
 -13   0   7    1.63    1.93
 -12   0   7    0.21    1.84
 -11   0   7    8.62    2.51
 -10   0   7  153.81    6.65
 -10   0   7  133.56    7.02
  -9   0   7  148.43    6.39
  -9   0   7  149.93    6.86
  -8   0   7    1.11    1.28
  -8   0   7   -0.82    1.76
  -7   0   7   80.28    4.49
  -7   0   7   79.84    4.33
  -6   0   7  222.11    7.42
  -6   0   7  221.82    7.51
  -5   0   7    0.96    1.53
  -5   0   7    0.09    0.94
  -4   0   7   77.00    3.61
  -4   0   7   81.96    4.37
  -3   0   7    4.48    1.93
  -3   0   7    8.76    1.41
  -2   0   7   28.69    2.10
  -2   0   7   34.05    3.00
  -1   0   7    5.95    1.25
   1   0  -7    4.66    1.04
  -1   0   7    5.33    1.86
   0   0   7   37.09    2.29
   0   0   7   43.77    3.52
   0   0  -7   39.15    2.17
   1   0   7   11.76    2.37
   1   0   7   16.44    1.81
  -1   0  -7   15.09    1.68
   2   0   7   17.68    2.90
   3   0   7   25.44    3.33
   4   0   7  102.64    6.03
   5   0   7   47.83    4.75
   6   0   7  167.26    8.62
   7   0   7  126.59    7.69
  -9   0  -7   38.12    5.16
  -9   0  -7   47.49    5.06
 -10   0  -7    1.36    2.82
 -10   0  -7    2.15    2.48
 -13   0  -7   26.39    4.84
 -14   0  -7    1.91    3.06
 -18   1   7    0.11    2.02
 -17   1   7    2.55    2.95
 -16   1   7   10.55    3.58
 -15   1   7    3.78    2.73
 -14   1   7   22.33    4.14
 -13   1   7    0.68    1.84
 -12   1   7    0.82    1.82
 -11   1   7   11.97    3.21
 -11   1   7    3.15    1.90
 -10   1   7  184.28    7.94
 -10   1   7  177.02    7.55
  -9   1   7   27.15    3.18
  -9   1   7   26.46    3.08
  -8   1   7   58.98    4.21
  -8   1   7   51.34    3.74
  -7   1   7    5.26    2.10
  -7   1   7    9.01    1.81
  -6   1   7  111.88    5.46
  -6   1   7  109.95    4.73
  -5   1   7    6.63    1.40
  -5   1   7    6.41    1.88
  -4   1   7  229.92    6.75
  -4   1   7  237.48    7.96
  -3   1   7   11.37    2.28
  -2   1   7  168.04    4.91
   2  -1  -7  161.40    5.28
  -2   1   7  163.24    6.59
   1  -1  -7    3.60    1.21
  -1   1   7    2.87    1.02
  -1   1   7    1.20    1.84
   0   1   7   14.67    2.44
   0  -1  -7   16.20    1.75
   0   1   7   13.93    1.58
  -1  -1  -7   31.48    2.57
   1   1   7   33.41    3.23
  -2  -1  -7   42.81    3.11
   2   1   7   50.71    4.08
   3   1   7   17.64    3.04
  -3  -1  -7   13.29    2.24
   4   1   7    3.30    2.46
   5   1   7    6.72    2.95
   6   1   7   73.27    6.02
   7   1   7   27.80    4.25
   8   1   7   12.43    3.96
  -9  -1  -7    6.09    2.73
  -9  -1  -7    7.36    3.25
 -11  -1  -7   15.56    3.39
 -12  -1  -7   43.95    5.34
 -13  -1  -7    3.44    2.90
 -14  -1  -7   49.56    6.57
 -18   2   7    0.92    1.68
 -17   2   7    1.24    2.82
 -16   2   7    4.15    2.69
 -15   2   7   -0.08    2.32
 -14   2   7   52.96    5.75
 -13   2   7   37.30    4.74
 -12   2   7   -2.52    2.76
 -12   2   7   -0.70    1.48
 -11   2   7   20.42    3.42
 -11   2   7   29.84    4.00
 -10   2   7  139.18    6.92
 -10   2   7  135.71    6.61
  -9   2   7   29.90    3.22
  -9   2   7   30.53    3.40
  -8   2   7    0.06    1.12
  -8   2   7    0.63    2.14
  -7   2   7  128.36    5.37
  -7   2   7  121.75    6.10
  -6   2   7   33.63    2.57
  -6   2   7   37.53    3.35
  -5   2   7    8.57    2.20
  -5   2   7    5.92    1.12
  -4   2   7   10.66    1.35
  -4   2   7   13.09    2.40
  -3   2   7  324.00   10.43
  -3   2   7  336.37    8.11
  -2   2   7   47.79    2.24
  -2   2   7   41.39    3.40
   2  -2  -7   48.05    2.92
   1  -2  -7    0.08    1.03
  -1   2   7    1.28    0.88
  -1   2   7    1.74    1.88
   0   2   7    0.29    1.62
   0  -2  -7    5.03    1.53
   1   2   7  249.78    9.08
  -1  -2  -7  252.44    8.30
   2   2   7  600.98   17.47
  -2  -2  -7  654.99   17.16
  -3  -2  -7   61.13    4.09
   3   2   7   62.34    4.82
  -4  -2  -7  110.38    5.88
   4   2   7  112.53    6.37
   5   2   7   99.27    6.35
   6   2   7   10.79    3.43
   7   2   7    7.84    3.53
   8   2   7   -3.25    2.65
  -9  -2  -7   32.66    4.78
  -9  -2  -7   32.25    4.07
  -9  -2  -7   26.68    4.05
 -10  -2  -7   -0.48    1.87
 -11  -2  -7   35.90    4.72
 -12  -2  -7    0.71    2.34
 -18   3   7    0.61    1.37
 -16   3   7    7.84    3.22
 -15   3   7  153.52    9.04
 -14   3   7   24.82    4.26
 -13   3   7   53.50    5.40
 -13   3   7   41.06    4.80
 -12   3   7   19.67    3.97
 -12   3   7   17.76    3.37
 -11   3   7   16.63    3.63
 -11   3   7    8.50    2.31
 -10   3   7   14.30    3.15
 -10   3   7    9.47    2.24
  -9   3   7   55.27    3.85
  -9   3   7   61.49    4.87
  -8   3   7    2.39    2.26
  -8   3   7    8.25    1.81
  -7   3   7  132.63    6.47
  -7   3   7  137.13    5.35
  -6   3   7    7.65    2.31
  -5   3   7  435.08   10.64
  -5   3   7  422.87   12.83
  -4   3   7   71.37    4.61
  -4   3   7   61.98    2.65
   3  -3  -7    0.39    1.25
  -3   3   7   -0.20    0.61
  -3   3   7    3.34    1.97
  -2   3   7   31.02    1.62
  -2   3   7   28.92    3.05
   2  -3  -7   27.57    2.60
   1  -3  -7   25.61    2.57
  -1   3   7   34.00    3.22
   0  -3  -7   66.66    3.92
   0   3   7   65.51    4.37
  -1  -3  -7   43.37    3.40
   1   3   7   46.07    3.95
   2   3   7  155.36    7.13
  -2  -3  -7  158.03    6.95
   3   3   7    5.03    2.54
  -3  -3  -7    4.37    1.85
  -4  -3  -7   89.90    5.66
   4   3   7   95.83    6.01
  -5  -3  -7   64.05    5.06
   5   3   7   65.59    5.34
   6   3   7   30.95    4.35
  -7  -3  -7    2.27    1.80
   7   3   7    1.62    2.95
  -8  -3  -7    1.88    1.76
   8   3   7    9.76    3.32
  -9  -3  -7    0.10    1.62
 -10  -3  -7    8.52    2.94
 -19   4   7    0.87    1.98
 -18   4   7    0.27    3.07
 -17   4   7    3.98    2.80
 -16   4   7   81.60    7.35
 -15   4   7    0.45    2.23
 -14   4   7   -0.77    1.74
 -14   4   7    1.90    3.17
 -13   4   7    1.61    1.91
 -13   4   7    2.54    3.30
 -12   4   7    0.34    1.73
 -12   4   7    2.12    3.18
 -11   4   7   42.14    4.16
 -11   4   7   46.03    4.79
 -10   4   7   61.89    4.18
 -10   4   7   46.26    4.83
  -9   4   7    5.23    2.76
  -9   4   7    3.10    1.52
  -8   4   7   54.12    4.49
  -8   4   7   53.77    3.43
  -6   4   7   26.18    3.47
  -6   4   7   27.39    2.12
  -5   4   7  308.92    7.93
  -5   4   7  306.04   10.48
  -4   4   7   87.25    2.86
  -4   4   7   83.61    5.15
   4  -4  -7   80.06    4.37
   3  -4  -7   40.49    3.12
  -3   4   7   34.17    3.52
  -3   4   7   36.89    1.52
   2  -4  -7    1.45    1.35
  -2   4   7    4.41    2.10
  -1   4   7    4.32    2.24
   1  -4  -7    5.32    1.74
   0   4   7   -0.65    1.89
   0  -4  -7   -0.83    1.28
  -1  -4  -7  418.09   13.34
   1   4   7  441.55   13.70
   2   4   7  174.59    7.83
  -2  -4  -7  196.46    8.22
   3   4   7    7.00    2.76
  -3  -4  -7    5.47    2.16
   4   4   7    1.90    2.72
  -4  -4  -7    1.74    1.93
  -4  -4  -7    2.93    1.42
  -5  -4  -7   -1.46    1.47
  -5  -4  -7    0.21    1.25
   5   4   7    0.42    2.72
   6   4   7    9.83    3.35
  -6  -4  -7    4.35    2.45
  -6  -4  -7    9.76    2.14
   7   4   7   31.44    4.38
  -7  -4  -7   35.07    5.03
  -7  -4  -7   30.47    3.61
 -19   5   7   -1.36    1.72
 -18   5   7    3.07    2.98
 -17   5   7   19.46    4.39
 -16   5   7    4.66    2.74
 -15   5   7   -1.09    2.09
 -15   5   7   -3.38    3.19
 -14   5   7   42.58    5.00
 -14   5   7   43.19    5.18
 -13   5   7   23.36    3.79
 -13   5   7   28.27    4.77
 -12   5   7   35.83    4.87
 -12   5   7   24.76    3.72
 -11   5   7   96.90    5.61
 -11   5   7   98.77    6.95
 -10   5   7   85.98    6.57
 -10   5   7   97.09    5.19
  -9   5   7   79.31    4.42
  -9   5   7   80.37    5.93
  -8   5   7    9.36    1.63
  -8   5   7   15.34    3.26
  -7   5   7   16.56    1.90
  -7   5   7   21.58    3.37
  -6   5   7    0.01    2.19
  -6   5   7    0.86    0.93
  -5   5   7   50.09    2.33
   5  -5  -7   41.97    3.61
  -5   5   7   51.67    4.33
  -4   5   7    2.53    0.60
  -4   5   7    1.27    2.19
   4  -5  -7    3.21    1.64
  -3   5   7    1.83    2.20
   3  -5  -7    6.93    1.89
  -2   5   7  122.40    6.25
   2  -5  -7  124.55    5.82
   1  -5  -7  406.51   12.71
  -1   5   7  407.21   13.05
   0  -5  -7  590.64   12.95
   0   5   7  611.37   17.32
   0  -5  -7  586.05   17.17
   1   5   7  607.68   17.25
  -1  -5  -7  562.94   17.33
  -1  -5  -7  579.42   13.36
  -2  -5  -7    0.49    1.66
  -2  -5  -7   -0.43    0.83
   2   5   7   -3.81    2.05
   3   5   7   74.43    5.57
  -3  -5  -7   75.30    5.56
  -3  -5  -7   77.35    3.81
  -4  -5  -7   57.51    5.35
   4   5   7   58.47    5.05
  -5  -5  -7   16.43    3.51
   5   5   7   15.18    3.50
  -6  -5  -7   60.64    5.96
   6   5   7   50.77    4.70
  -7  -5  -7    1.61    2.50
  -8  -5  -7  128.57    8.95
  -9  -5  -7    4.36    3.39
 -10  -5  -7    3.39    3.58
 -11  -5  -7   -5.60    3.30
 -12  -5  -7   -4.50    4.62
 -19   6   7   -1.22    1.80
 -18   6   7    3.02    2.91
 -17   6   7   -1.20    2.28
 -16   6   7    1.21    2.40
 -16   6   7    4.14    3.96
 -15   6   7    3.83    3.55
 -15   6   7    5.23    2.66
 -14   6   7   11.80    4.14
 -14   6   7   11.50    3.17
 -13   6   7    7.18    2.74
 -13   6   7    4.63    3.50
 -12   6   7   19.75    3.29
 -12   6   7   17.75    4.25
 -11   6   7   74.79    4.83
 -11   6   7   74.91    6.28
 -10   6   7  287.92   11.59
 -10   6   7  291.54    9.84
  -9   6   7   31.68    4.41
  -9   6   7   28.61    2.83
  -8   6   7    1.41    1.14
  -8   6   7    3.13    2.81
  -7   6   7    5.91    2.77
  -7   6   7    5.49    1.30
  -6   6   7  128.41    4.33
  -6   6   7  118.84    6.84
  -5   6   7    3.61    0.85
   5  -6  -7    5.86    1.88
  -5   6   7    3.28    2.49
   4  -6  -7  225.40    8.79
  -4   6   7  236.24    9.19
  -3   6   7   69.57    5.08
   3  -6  -7   66.91    4.50
   2  -6  -7    9.99    2.23
  -2   6   7    9.88    2.66
   1  -6  -7  172.67    7.79
  -1   6   7  178.73    8.03
   0  -6  -7  182.97    8.22
   0   6   7  181.16    8.17
   1   6   7    9.47    2.91
  -1  -6  -7   16.90    3.16
   2   6   7   39.72    4.35
  -2  -6  -7   49.15    4.88
   3   6   7   63.53    5.34
  -3  -6  -7   66.25    5.43
  -4  -6  -7   47.68    5.31
   4   6   7   48.00    4.81
  -5  -6  -7   12.20    3.25
   5   6   7    3.99    1.49
  -6  -6  -7   37.30    5.35
  -7  -6  -7   47.37    6.15
  -8  -6  -7   -0.51    2.26
  -9  -6  -7   26.20    5.55
 -10  -6  -7   -3.20    3.07
 -11  -6  -7   16.51    5.93
 -19   7   7    6.13    3.43
 -18   7   7   17.33    4.25
 -17   7   7   -1.06    2.33
 -17   7   7   -1.51    3.80
 -16   7   7    9.35    4.16
 -16   7   7    2.54    2.67
 -15   7   7   81.53    7.38
 -15   7   7   89.58    6.68
 -14   7   7   49.93    5.96
 -14   7   7   51.92    5.29
 -13   7   7  116.37    7.98
 -13   7   7  103.91    6.46
 -12   7   7   59.94    4.97
 -12   7   7   52.69    5.94
 -11   7   7   63.97    4.50
 -11   7   7   56.76    5.92
 -10   7   7    0.36    3.08
 -10   7   7    2.54    1.55
  -9   7   7   20.42    3.85
  -8   7   7    4.04    1.44
  -8   7   7    7.31    3.13
  -7   7   7  104.54    4.17
  -7   7   7  112.09    6.85
  -6   7   7    1.05    0.83
   6  -7  -7    3.08    1.83
  -6   7   7   -0.14    2.16
  -5   7   7   99.84    6.28
   5  -7  -7   88.81    5.48
  -5   7   7   96.79    2.98
  -4   7   7   -0.14    2.26
   4  -7  -7    0.50    1.36
  -3   7   7   17.52    3.31
   3  -7  -7   14.34    2.81
   2  -7  -7    3.62    1.91
  -2   7   7    5.51    2.62
  -1   7   7   54.65    4.64
   1  -7  -7   37.67    4.21
   0  -7  -7    6.12    2.39
   0   7   7    7.55    2.86
  -1  -7  -7   66.16    5.21
   1   7   7   53.55    4.77
  -2  -7  -7    3.17    2.00
   2   7   7    5.31    2.83
  -3  -7  -7  153.42    8.70
   3   7   7  138.09    7.57
  -4  -7  -7    9.87    3.18
  -5  -7  -7    4.42    2.63
  -6  -7  -7    7.92    3.07
  -7  -7  -7   11.40    3.89
  -8  -7  -7   -0.94    2.63
  -9  -7  -7   20.15    5.40
 -10  -7  -7    4.38    4.13
 -11  -7  -7    2.13    4.52
 -19   8   7    5.83    2.91
 -18   8   7   24.75    5.06
 -17   8   7    3.69    3.01
 -17   8   7    1.85    4.04
 -16   8   7  122.57    8.12
 -16   8   7  117.55    8.94
 -15   8   7    0.19    3.52
 -15   8   7    3.43    2.66
 -14   8   7  189.74    9.24
 -14   8   7  169.98   10.08
 -13   8   7   -2.39    1.72
 -13   8   7   -2.32    3.05
 -12   8   7    1.27    1.85
 -12   8   7    1.11    3.42
 -11   8   7    3.55    1.65
 -11   8   7   -0.84    3.44
 -10   8   7   56.36    5.83
  -9   8   7   11.48    3.89
  -8   8   7   14.95    1.98
  -8   8   7   17.83    4.07
  -7   8   7   13.95    3.61
  -7   8   7   16.38    1.79
   6  -8  -7   58.20    4.89
  -6   8   7   51.17    5.08
   5  -8  -7  140.38    7.17
  -5   8   7  136.53    7.54
   4  -8  -7   22.65    3.40
  -4   8   7   23.96    3.92
  -3   8   7    2.19    2.66
   3  -8  -7    4.45    2.07
   2  -8  -7   70.60    5.14
  -2   8   7   64.51    5.40
   1  -8  -7   20.61    3.59
  -1   8   7   16.81    3.44
   0   8   7   38.19    4.42
   0  -8  -7   30.76    4.25
   1   8   7   68.45    5.52
  -1  -8  -7   73.78    5.98
  -2  -8  -7   30.28    4.72
   2   8   7   23.20    3.88
  -3  -8  -7   25.85    4.52
   3   8   7   11.88    2.36
  -4  -8  -7    3.35    2.76
  -5  -8  -7    2.55    2.44
  -6  -8  -7   24.28    5.13
  -7  -8  -7    9.94    3.70
  -8  -8  -7   56.88    7.72
  -9  -8  -7   11.01    4.93
 -10  -8  -7    9.54    5.38
 -19   9   7   -0.62    2.46
 -18   9   7    0.45    4.10
 -18   9   7    2.49    3.00
 -17   9   7   64.41    7.67
 -17   9   7   76.59    7.23
 -16   9   7    3.35    2.86
 -16   9   7    4.96    4.49
 -15   9   7    8.61    4.10
 -15   9   7    0.12    2.28
 -14   9   7    7.03    2.75
 -14   9   7   13.70    4.38
 -13   9   7    5.45    2.18
 -13   9   7    5.47    3.93
 -12   9   7   22.48    4.80
 -12   9   7   17.31    3.02
 -11   9   7   76.79    6.94
 -10   9   7   66.43    6.45
 -10   9   7   68.55    4.32
  -9   9   7   59.41    6.15
  -8   9   7    2.86    3.28
   7  -9  -7  303.18   11.84
  -7   9   7  309.73   12.49
  -6   9   7   12.40    3.66
   6  -9  -7   10.32    2.67
   5  -9  -7    3.92    2.27
  -5   9   7    4.11    2.87
  -4   9   7    2.96    2.92
   4  -9  -7    0.86    1.63
  -3   9   7   -0.65    2.94
   3  -9  -7   -0.37    1.62
   2  -9  -7   35.26    4.45
  -2   9   7   33.31    4.27
   1  -9  -7   33.61    4.44
  -1   9   7   42.75    4.73
   0  -9  -7   42.06    5.01
   0   9   7   45.82    4.91
   1   9   7    2.29    2.93
  -1  -9  -7    3.19    2.42
  -2  -9  -7    3.22    2.62
   2   9   7    6.43    2.69
  -3  -9  -7   -0.94    2.10
  -4  -9  -7    4.55    3.06
  -5  -9  -7   61.29    7.36
  -6  -9  -7    4.87    3.64
  -7  -9  -7   34.74    6.55
  -8  -9  -7   41.76    7.46
  -9  -9  -7   14.93    5.56
 -19  10   7   -0.69    5.43
 -19  10   7    4.53    2.70
 -18  10   7   51.67    6.52
 -18  10   7   42.58    7.21
 -17  10   7    7.56    4.80
 -17  10   7    0.45    2.56
 -16  10   7   -0.11    3.99
 -16  10   7   12.03    3.74
 -15  10   7    4.68    3.97
 -15  10   7   -1.18    1.88
 -14  10   7    3.65    2.44
 -14  10   7    0.05    3.69
 -13  10   7   30.56    4.08
 -13  10   7   24.32    5.24
 -12  10   7   33.10    5.40
 -11  10   7   -2.83    3.24
 -10  10   7  114.29    8.34
  -9  10   7   21.51    4.72
  -8  10   7   35.33    5.03
  -7  10   7   -2.51    2.90
   7 -10  -7   -1.54    1.73
  -6  10   7   22.81    4.42
   6 -10  -7   19.31    3.54
  -5  10   7   13.77    3.91
   5 -10  -7   10.14    2.86
   4 -10  -7  156.89    8.38
  -4  10   7  150.87    8.69
   3 -10  -7   13.16    3.18
  -3  10   7    8.20    3.36
   2 -10  -7   13.93    3.34
  -2  10   7   16.30    3.57
   1 -10  -7   25.05    4.22
  -1  10   7   36.29    4.41
   0 -10  -7    2.02    2.27
   0  10   7    4.20    2.91
  -1 -10  -7   -1.26    2.29
   1  10   7    0.75    2.37
  -2 -10  -7   15.79    4.11
  -3 -10  -7    8.91    3.57
  -4 -10  -7   51.90    7.03
  -5 -10  -7    5.14    3.56
  -6 -10  -7   35.62    6.76
  -7 -10  -7    9.02    4.88
  -8 -10  -7    6.05    4.80
 -19  11   7   31.77    7.71
 -19  11   7   26.58    4.81
 -18  11   7    1.54    2.99
 -18  11   7    1.00    4.97
 -17  11   7    6.97    5.07
 -16  11   7   -1.34    4.04
 -15  11   7    3.53    4.34
 -14  11   7    3.36    4.11
 -13  11   7   54.05    6.73
 -12  11   7    3.99    3.76
 -11  11   7   26.40    5.03
 -10  11   7   17.39    4.57
  -9  11   7    4.89    3.84
  -8  11   7   57.67    6.12
  -7  11   7    6.42    3.64
   7 -11  -7    3.41    2.29
  -6  11   7    6.03    3.61
   6 -11  -7    6.04    2.68
  -5  11   7  244.15   11.34
   5 -11  -7  238.77   10.96
  -4  11   7   40.12    5.01
   4 -11  -7   33.12    4.74
   3 -11  -7   18.11    3.89
  -3  11   7   15.86    3.75
  -2  11   7    1.02    2.71
   2 -11  -7    2.46    2.20
   1 -11  -7    2.30    2.31
  -1  11   7   -1.98    2.35
   0  11   7   -2.38    2.36
   0 -11  -7    3.65    2.52
  -1 -11  -7    3.92    2.66
  -2 -11  -7    8.73    3.75
  -3 -11  -7   41.74    6.81
  -4 -11  -7    1.48    3.42
  -5 -11  -7   24.81    5.74
  -6 -11  -7    1.18    4.04
  -7 -11  -7    0.35    4.21
 -18  12   7    0.36    4.82
 -17  12   7   -4.11    4.16
 -16  12   7   37.10    6.80
 -15  12   7   -2.57    3.89
 -14  12   7   43.78    6.74
 -13  12   7    1.08    4.02
 -12  12   7   42.28    6.20
 -11  12   7   19.05    4.83
 -10  12   7   -0.08    3.33
  -9  12   7   14.22    4.32
   8 -12  -7   12.97    3.41
  -8  12   7    7.70    3.93
   7 -12  -7   14.82    3.42
  -7  12   7   11.10    4.07
  -6  12   7   30.85    4.92
   6 -12  -7   49.03    5.56
   5 -12  -7   16.44    3.87
  -5  12   7   13.83    3.91
  -4  12   7   13.99    3.86
   4 -12  -7   22.40    4.35
   3 -12  -7   24.03    4.56
  -3  12   7   30.42    4.33
   2 -12  -7   12.27    3.49
  -2  12   7    9.99    3.30
   1 -12  -7    2.73    2.77
  -1  12   7    2.77    2.56
   0 -12  -7    2.97    2.68
  -1 -12  -7    1.88    2.78
  -2 -12  -7   18.88    4.94
  -3 -12  -7   26.68    6.09
  -4 -12  -7    3.74    4.22
  -5 -12  -7    4.11    4.27
  -6 -12  -7    1.83    4.74
 -18  13   7    2.82    5.53
 -17  13   7    3.96    4.83
 -16  13   7   11.16    5.23
 -15  13   7   28.80    6.34
 -14  13   7    5.28    4.40
 -13  13   7   38.34    6.40
 -12  13   7    2.54    3.99
 -11  13   7   -4.56    3.37
 -10  13   7   37.72    5.93
  -9  13   7    8.21    3.98
   8 -13  -7   14.39    3.59
  -8  13   7   11.67    4.10
  -7  13   7   25.83    5.01
   7 -13  -7   29.24    4.75
   6 -13  -7   24.57    4.55
  -6  13   7   26.45    4.75
   5 -13  -7    0.38    2.33
  -5  13   7   -0.58    2.68
   4 -13  -7    0.02    2.49
  -4  13   7    7.81    3.42
  -3  13   7    6.62    2.96
   3 -13  -7    8.00    3.41
  -2  13   7    2.94    2.62
   2 -13  -7    2.88    2.87
   1 -13  -7    8.15    3.52
   0 -13  -7    6.36    3.41
  -1 -13  -7   55.31    7.36
  -2 -13  -7    2.01    3.72
  -3 -13  -7   -2.85    3.45
  -4 -13  -7    1.51    4.30
  -5 -13  -7    2.40    4.52
 -17  14   7   13.79    5.72
 -16  14   7   25.77    6.51
 -15  14   7   25.18    6.34
 -14  14   7   -1.26    4.05
 -13  14   7   -0.77    3.91
 -12  14   7    6.81    4.50
 -11  14   7    0.27    3.82
 -10  14   7    9.30    4.48
  -9  14   7   -2.91    3.28
   8 -14  -7  114.02    8.29
  -8  14   7  162.43    9.86
  -7  14   7   -0.84    3.04
   7 -14  -7    4.07    2.60
   6 -14  -7    6.04    2.93
  -6  14   7    4.97    3.43
  -5  14   7    8.40    3.62
   5 -14  -7    3.55    2.87
   4 -14  -7   11.20    3.88
  -4  14   7   17.03    4.21
  -3  14   7    2.51    2.91
   3 -14  -7    4.05    3.44
   2 -14  -7   62.46    7.47
   1 -14  -7   12.33    4.35
   0 -14  -7   49.36    7.29
  -1 -14  -7    0.29    3.29
  -2 -14  -7   -1.76    3.05
  -3 -14  -7    0.75    3.87
 -16  15   7   29.48    7.13
 -15  15   7    0.95    4.37
 -14  15   7   -0.85    3.33
 -12  15   7   15.16    5.54
 -11  15   7   30.25    6.10
 -10  15   7    9.61    4.39
   9 -15  -7   30.37    5.41
  -9  15   7   37.96    6.12
   8 -15  -7    4.65    3.15
  -8  15   7    2.36    3.72
   7 -15  -7    8.70    3.68
  -7  15   7   14.09    4.40
  -6  15   7   13.62    4.12
   6 -15  -7   14.95    4.39
   5 -15  -7   40.62    6.13
  -5  15   7   47.29    5.70
   4 -15  -7   -0.43    2.41
  -4  15   7    3.72    2.86
   3 -15  -7  125.04    9.70
   2 -15  -7    1.43    3.51
   1 -15  -7   12.87    4.84
   0 -15  -7    4.04    3.92
  -1 -15  -7   18.02    5.06
  -2 -15  -7   11.21    4.90
 -15  16   7    0.57    2.42
 -14  16   7   -0.68    2.03
 -13  16   7   -3.65    2.58
 -12  16   7    9.31    5.05
 -11  16   7   10.22    4.59
 -10  16   7   -4.05    3.71
   9 -16  -7    3.64    3.06
  -9  16   7    0.05    3.60
  -8  16   7   -0.54    3.85
   8 -16  -7    0.63    2.95
  -7  16   7    6.87    4.13
   7 -16  -7    6.19    3.46
   6 -16  -7    5.26    3.33
  -6  16   7   19.99    4.91
  -5  16   7    7.88    3.77
   5 -16  -7    8.62    4.08
   4 -16  -7   12.45    4.23
   3 -16  -7    3.14    2.91
   2 -16  -7    8.58    4.61
   1 -16  -7    5.65    4.34
   0 -16  -7    9.10    4.99
 -13  17   7   -1.30    2.09
 -12  17   7   -1.98    1.48
 -11  17   7   -0.73    3.58
 -10  17   7   -4.57    3.35
   9 -17  -7    1.08    2.58
  -9  17   7    3.24    3.85
   8 -17  -7   -1.24    1.99
  -8  17   7    1.14    3.44
   7 -17  -7   -0.58    2.28
  -7  17   7   17.06    4.92
   6 -17  -7   -0.06    1.97
   5 -17  -7    0.28    1.34
   4 -17  -7   -0.97    1.36
   3 -17  -7    0.67    2.01
   2 -17  -7   -0.01    1.94
 -12  18   7   -3.43    1.98
 -11  18   7    6.53    5.04
 -10  18   7    8.62    4.12
   9 -18  -7   -0.36    1.98
  -9  18   7    6.83    4.08
   8 -18  -7   -2.97    1.86
  -8  18   7   18.94    5.28
   7 -18  -7   -1.30    1.76
   6 -18  -7   -0.77    2.19
 -10  19   7    6.63    5.29
  -9  19   7   22.43    6.25
   4 -18   8    1.32    3.65
   5 -18   8    7.85    4.16
   6 -18   8   12.30    4.63
   7 -18   8   -4.57    3.49
  -8  18  -8   -1.82    3.60
  -9  18  -8    2.13    5.09
   0 -17   8    4.78    3.88
   1 -17   8   16.32    4.63
   2 -17   8    8.77    3.77
   3 -17   8   -2.42    2.89
   4 -17   8   13.25    4.07
   5 -17   8   -2.28    3.04
   6 -17   8    7.26    3.65
  -7  17  -8    6.70    4.73
   7 -17   8    5.56    3.93
  -8  17  -8   -3.13    3.97
  -9  17  -8    4.24    4.20
 -10  17  -8    2.88    5.61
  -3 -16   8    5.27    3.61
  -2 -16   8    2.88    3.34
  -1 -16   8   12.36    4.10
   0 -16   8   -0.75    2.91
   1 -16   8   13.15    4.00
   2 -16   8    7.04    3.32
   3 -16   8    8.67    3.46
   4 -16   8   -2.44    2.50
   5 -16   8    5.35    3.29
  -6  16  -8   13.31    4.98
   6 -16   8    9.51    3.64
   7 -16   8   -0.86    3.10
  -7  16  -8    2.80    4.15
  -8  16  -8    4.01    4.38
  -9  16  -8   13.67    5.58
 -10  16  -8    2.87    4.01
 -11  16  -8   -2.80    2.50
  -6 -15   8   11.92    4.31
  -5 -15   8   13.60    4.07
  -4 -15   8   -0.70    2.75
  -3 -15   8    4.36    3.21
  -2 -15   8    1.74    2.93
  -1 -15   8   25.99    4.68
   0 -15   8    2.66    2.85
   1 -15   8   39.81    5.29
   2 -15   8    3.58    2.95
   3 -15   8   -2.45    2.21
   4 -15   8    0.54    2.62
  -5  15  -8    1.58    3.78
   5 -15   8    4.18    2.99
   6 -15   8    5.68    3.26
  -6  15  -8    8.53    4.35
   7 -15   8    1.63    2.88
  -7  15  -8    8.23    4.31
  -8  15  -8   36.63    6.87
  -9  15  -8   16.87    5.69
 -10  15  -8   -3.89    3.76
 -11  15  -8   -5.57    1.81
 -12  15  -8   -3.99    2.23
  -8 -14   8   12.33    4.05
  -8 -14   8    6.33    3.81
  -7 -14   8    2.11    3.28
  -7 -14   8    1.68    3.01
  -6 -14   8   -2.00    2.71
  -6 -14   8   -1.49    2.59
  -5 -14   8   -0.70    2.44
  -5 -14   8   -4.59    2.38
  -4 -14   8   48.04    5.80
  -3 -14   8    4.25    2.80
  -2 -14   8   51.22    5.65
  -1 -14   8    2.04    2.70
   0 -14   8    8.96    3.38
   1 -14   8   -0.85    2.31
   2 -14   8    4.17    2.72
   3 -14   8    2.27    2.22
  -4  14  -8   36.94    5.63
   4 -14   8   35.45    4.85
  -5  14  -8    9.10    4.32
   5 -14   8   12.21    3.51
  -6  14  -8   16.41    4.95
   6 -14   8    8.06    3.33
   7 -14   8   18.16    4.05
  -7  14  -8   12.46    4.84
  -8  14  -8   15.69    5.15
  -9  14  -8   -1.78    3.83
 -10  14  -8   -0.73    3.91
 -11  14  -8    2.16    4.11
 -12  14  -8   -1.11    2.41
 -10 -13   8    7.63    4.76
 -10 -13   8    8.75    4.47
  -9 -13   8    2.55    2.77
  -9 -13   8   -0.28    3.17
  -8 -13   8    1.25    3.15
  -8 -13   8    2.60    2.95
  -7 -13   8   15.11    3.89
  -7 -13   8   28.84    5.61
  -6 -13   8   -2.83    2.07
  -6 -13   8    1.68    2.83
  -5 -13   8  132.32    8.96
  -5 -13   8  129.92    8.21
  -4 -13   8   12.70    3.62
  -4 -13   8    6.21    3.12
  -3 -13   8   36.05    5.19
  -3 -13   8   39.91    5.12
  -2 -13   8    3.95    2.56
  -1 -13   8   -1.37    2.15
   0 -13   8   17.03    3.65
   1 -13   8   47.86    5.21
   2 -13   8    0.46    2.38
   3 -13   8  134.32    7.56
  -3  13  -8  120.11    8.22
  -4  13  -8    2.91    3.23
   4 -13   8    1.51    2.36
   5 -13   8   20.74    4.13
  -5  13  -8   39.18    5.89
   6 -13   8    2.61    2.34
  -6  13  -8   -2.26    3.15
  -7  13  -8   -1.90    3.54
   7 -13   8    2.30    2.74
  -8  13  -8   -4.01    3.19
  -9  13  -8   11.53    4.66
 -10  13  -8   -3.93    3.45
 -11  13  -8    0.20    4.03
 -12  13  -8   -3.35    2.26
 -13  13  -8   -3.69    4.06
 -11 -12   8   10.59    4.15
 -10 -12   8    4.70    2.64
 -10 -12   8    1.54    2.89
  -9 -12   8   -2.20    2.48
  -9 -12   8    5.33    3.25
  -8 -12   8   59.81    7.22
  -8 -12   8   56.48    6.18
  -7 -12   8    9.73    3.64
  -7 -12   8   12.33    3.54
  -6 -12   8   13.00    3.83
  -6 -12   8   10.46    3.42
  -5 -12   8   28.38    4.34
  -5 -12   8   19.61    4.49
  -4 -12   8   12.41    3.58
  -4 -12   8   15.79    3.63
  -3 -12   8   11.35    3.11
  -3 -12   8   20.94    3.82
  -2 -12   8   12.19    3.27
  -2 -12   8    8.44    2.95
  -1 -12   8   11.42    3.28
   0 -12   8    3.06    2.54
   1 -12   8   -0.55    1.93
   2 -12   8   32.34    4.31
  -2  12  -8   35.27    4.87
   3 -12   8   20.68    3.73
  -3  12  -8   30.08    5.06
  -4  12  -8    4.03    3.40
   4 -12   8    3.57    2.35
   5 -12   8   47.22    5.04
  -5  12  -8   56.85    6.56
   6 -12   8   16.13    3.65
  -6  12  -8   23.19    5.43
   7 -12   8    0.59    2.62
  -7  12  -8    0.45    3.21
  -8  12  -8    0.05    3.34
  -9  12  -8    5.19    4.02
 -10  12  -8    3.26    3.87
 -11  12  -8    3.00    4.02
 -12  12  -8   -0.72    4.18
 -13  12  -8    5.49    5.30
 -11 -11   8    5.12    2.76
 -11 -11   8   -0.08    2.63
 -10 -11   8    7.98    3.48
 -10 -11   8   12.58    3.92
  -9 -11   8   52.79    5.81
  -9 -11   8   45.23    6.33
  -8 -11   8    1.91    2.39
  -8 -11   8    3.12    2.86
  -7 -11   8    3.20    2.80
  -7 -11   8    8.51    3.13
  -6 -11   8   19.92    4.08
  -6 -11   8   21.74    3.99
  -5 -11   8   18.79    3.74
  -5 -11   8   23.33    4.33
  -4 -11   8    3.61    2.44
  -4 -11   8    2.41    2.33
  -3 -11   8    5.58    2.56
  -3 -11   8    3.03    2.49
  -2 -11   8   33.61    4.12
  -2 -11   8   21.16    3.75
  -1 -11   8    0.18    1.72
  -1 -11   8    0.18    2.08
   0 -11   8   20.04    3.60
  -1  11  -8    8.68    3.12
   1 -11   8   10.79    2.99
  -2  11  -8    2.10    3.05
   2 -11   8   -0.42    2.11
  -3  11  -8   25.84    4.87
   3 -11   8   31.42    3.98
   4 -11   8    1.48    2.26
  -4  11  -8   -3.76    2.67
   5 -11   8   -0.15    1.89
  -5  11  -8    4.11    3.33
  -6  11  -8   34.22    5.96
   6 -11   8   26.31    4.23
   7 -11   8   28.15    4.41
  -7  11  -8   24.33    5.34
  -8  11  -8    4.68    3.94
  -9  11  -8   -0.12    2.96
 -10  11  -8   10.12    4.41
 -11  11  -8    1.97    4.30
 -12  11  -8   -5.17    3.92
 -13  11  -8   -1.36    4.12
 -14  11  -8   -8.33    4.16
 -12 -10   8   -1.48    2.80
 -11 -10   8    1.54    2.61
 -10 -10   8   28.74    4.89
  -9 -10   8   -0.48    2.24
  -8 -10   8   59.20    5.71
  -7 -10   8    2.07    2.05
  -7 -10   8    3.39    2.27
  -6 -10   8   27.16    4.17
  -6 -10   8   22.95    4.17
  -5 -10   8   15.05    3.37
  -5 -10   8   15.68    3.44
  -4 -10   8   -1.08    1.81
  -4 -10   8    7.13    2.63
  -3 -10   8   21.84    3.68
  -3 -10   8   23.32    3.72
  -1 -10   8   14.04    2.77
  -1 -10   8    7.97    2.46
   0  10  -8  294.32   10.93
   0 -10   8  292.13   10.16
   0 -10   8  287.48   10.79
  -1  10  -8   10.14    3.16
   1 -10   8   15.32    3.16
   2 -10   8   61.50    5.08
  -2  10  -8   65.78    5.68
   3 -10   8    3.61    2.24
  -3  10  -8    2.06    2.76
  -4  10  -8   10.16    3.48
   4 -10   8    5.54    2.61
  -5  10  -8   19.81    4.38
   5 -10   8   12.02    3.06
  -6  10  -8   19.18    4.56
   6 -10   8   16.72    3.60
  -7  10  -8   22.29    5.10
  -8  10  -8    6.53    3.65
  -9  10  -8    0.88    3.10
 -10  10  -8   -5.05    3.15
 -11  10  -8    4.24    4.11
 -12  10  -8   14.14    5.47
 -13  10  -8   12.87    5.66
 -14  10  -8   31.67    7.34
 -13  -9   8    0.38    3.12
 -12  -9   8    0.18    2.79
 -11  -9   8  101.62    7.49
 -10  -9   8    8.69    3.07
  -9  -9   8   21.83    3.89
  -8  -9   8   10.05    3.08
  -7  -9   8   32.43    4.33
  -6  -9   8  204.14    9.07
  -5  -9   8   98.23    6.25
  -5  -9   8  112.33    6.76
  -4  -9   8    4.82    2.28
  -4  -9   8    3.25    2.10
  -3  -9   8  202.33    8.87
  -3  -9   8  204.20    8.76
  -2  -9   8   18.06    2.93
  -2  -9   8   17.22    3.21
  -1  -9   8  259.19    9.95
   1   9  -8  293.59   10.12
   0  -9   8    0.97    1.25
   0   9  -8   -1.24    0.76
   0  -9   8    2.60    1.96
  -1   9  -8   20.21    3.53
   1  -9   8   22.24    3.27
   2  -9   8   21.80    3.39
  -2   9  -8   18.92    3.64
   3  -9   8   17.59    3.22
  -3   9  -8   28.99    4.44
  -4   9  -8   10.35    3.45
   4  -9   8    6.81    2.42
  -5   9  -8   29.35    5.07
   5  -9   8   34.44    4.17
  -6   9  -8    5.86    3.44
   6  -9   8    8.99    2.92
  -7   9  -8   11.29    4.02
  -8   9  -8   12.16    4.05
  -9   9  -8   13.19    4.45
 -10   9  -8    2.15    3.53
 -11   9  -8   11.61    4.87
 -12   9  -8    2.28    4.31
 -13   9  -8   -1.01    4.13
 -14   9  -8    0.25    4.71
 -15   9  -8   -1.14    5.03
 -14  -8   8   38.63    6.35
 -13  -8   8    5.12    3.15
 -12  -8   8   28.34    4.85
 -11  -8   8    4.83    2.75
 -10  -8   8   14.97    3.62
  -9  -8   8   -0.57    1.62
  -8  -8   8    3.24    2.20
  -7  -8   8  110.52    6.59
  -6  -8   8   88.59    5.81
  -5  -8   8   27.17    3.67
  -4  -8   8   94.61    5.77
  -4  -8   8   89.36    5.63
  -3  -8   8    0.15    1.72
  -3  -8   8    0.17    1.07
  -2  -8   8   13.24    2.73
   2   8  -8   14.45    2.43
  -2  -8   8   13.59    2.52
  -1  -8   8    5.79    2.07
   1   8  -8    6.63    2.24
  -1  -8   8    9.84    2.06
   0  -8   8   37.49    2.81
   0   8  -8   29.61    3.58
   0  -8   8   32.71    3.55
   1  -8   8  107.77    5.85
  -1   8  -8   99.09    6.20
   1  -8   8  114.14    4.54
  -1   8  -8  110.96    5.83
  -2   8  -8   11.51    2.85
   2  -8   8    9.86    2.72
  -2   8  -8    9.45    2.82
  -3   8  -8   11.38    3.22
   3  -8   8    8.15    2.38
  -3   8  -8    6.79    2.61
  -4   8  -8    3.85    2.74
  -4   8  -8    4.94    2.59
   4  -8   8    3.22    1.96
   5  -8   8    2.27    2.14
  -5   8  -8    7.46    3.12
  -6   8  -8    5.07    3.54
   6  -8   8    6.86    2.56
  -7   8  -8  161.11   10.01
  -8   8  -8   39.79    6.08
  -9   8  -8    6.08    3.70
 -10   8  -8    2.76    3.51
 -11   8  -8    0.45    3.50
 -12   8  -8    2.97    4.07
 -13   8  -8   -0.21    4.06
 -14   8  -8   -9.09    3.73
 -15   8  -8    5.34    5.29
 -14  -7   8    2.33    3.11
 -13  -7   8    1.59    2.75
 -12  -7   8    1.50    2.29
 -11  -7   8   11.90    3.03
 -10  -7   8   11.38    3.16
  -9  -7   8   13.75    3.05
  -8  -7   8    3.92    2.11
  -7  -7   8   36.11    4.10
  -6  -7   8   11.45    2.72
  -5  -7   8  179.14    7.85
  -4  -7   8   37.71    3.88
  -3  -7   8    1.18    1.41
   3   7  -8    1.33    1.38
   3   7  -8    0.01    1.39
  -3  -7   8    1.74    1.63
   2   7  -8   25.93    2.85
   2   7  -8   24.52    2.64
  -2  -7   8   19.58    2.94
  -2  -7   8   25.03    2.68
  -1  -7   8    3.85    1.89
   1   7  -8    0.26    0.92
  -1  -7   8    4.28    1.49
   1   7  -8    0.15    0.92
   0  -7   8    3.33    1.90
   0   7  -8    4.19    1.92
   0  -7   8    0.79    1.08
   0   7  -8    1.61    1.84
   1  -7   8   19.05    1.77
   1  -7   8   20.57    3.00
  -1   7  -8   18.75    3.29
  -1   7  -8   21.46    3.06
   2  -7   8   13.85    2.58
  -2   7  -8   10.71    2.63
  -2   7  -8   12.39    2.96
  -3   7  -8  192.06    9.26
  -3   7  -8  174.11    8.13
   3  -7   8  202.03    8.04
  -4   7  -8   23.27    4.07
   4  -7   8   24.83    3.39
  -4   7  -8   28.60    3.96
  -5   7  -8    8.39    3.14
   5  -7   8    7.33    2.38
  -5   7  -8    9.26    2.91
  -6   7  -8    2.77    2.37
  -6   7  -8    2.89    2.69
  -7   7  -8   52.25    5.49
  -7   7  -8   57.76    6.41
  -8   7  -8    4.53    3.48
 -10   7  -8    7.88    3.83
 -11   7  -8   19.15    5.28
 -12   7  -8    7.66    4.14
 -13   7  -8   -4.20    3.37
 -14   7  -8   18.30    6.38
 -15   7  -8   -1.83    4.44
 -15  -6   8   -0.44    2.52
 -14  -6   8    5.69    3.37
 -13  -6   8    4.75    2.70
 -12  -6   8    2.03    2.25
 -11  -6   8    4.01    2.21
 -10  -6   8   56.30    5.34
  -9  -6   8    1.20    1.78
  -8  -6   8   92.97    6.01
  -7  -6   8    1.07    1.80
  -6  -6   8   73.28    4.94
  -5  -6   8    9.19    2.36
   4   6  -8    1.70    1.18
   4   6  -8    2.75    1.45
  -4  -6   8   -0.17    1.54
  -3  -6   8   15.12    2.67
  -2  -6   8   27.83    2.56
  -2  -6   8   29.59    3.24
  -1  -6   8   28.35    2.31
  -1  -6   8   28.69    3.07
   0  -6   8  129.35    5.92
   0  -6   8  127.32    4.33
  -1   6  -8    1.66    1.98
   1  -6   8    0.60    0.74
  -1   6  -8    2.29    1.69
   1  -6   8    1.35    1.36
   2  -6   8   39.44    3.57
  -2   6  -8   33.09    4.06
  -2   6  -8   31.88    3.64
   3  -6   8   42.70    3.88
  -3   6  -8   49.88    4.49
  -3   6  -8   41.11    4.59
  -4   6  -8   31.19    3.86
   4  -6   8   23.21    3.23
  -4   6  -8   26.55    4.12
  -5   6  -8    4.35    2.43
  -5   6  -8    0.49    2.31
   5  -6   8    5.20    2.23
  -6   6  -8  127.49    7.37
  -6   6  -8  126.50    8.13
  -7   6  -8   34.03    5.08
  -7   6  -8   21.19    3.96
  -8   6  -8  239.85   10.77
  -8   6  -8  251.69   12.20
  -9   6  -8    2.10    2.99
 -10   6  -8   10.79    4.17
 -11   6  -8    2.25    3.41
 -12   6  -8    0.99    3.40
 -13   6  -8    2.67    3.96
 -14   6  -8   21.54    6.11
 -15   6  -8    6.98    5.77
 -15  -5   8    2.60    3.02
 -14  -5   8    5.05    3.08
 -13  -5   8    8.85    3.28
 -12  -5   8   -0.97    1.97
 -11  -5   8   41.52    4.83
 -10  -5   8    3.14    1.82
  -9  -5   8    6.31    2.31
  -8  -5   8   22.00    3.39
  -7  -5   8  102.52    5.79
  -6  -5   8   46.36    4.01
  -5  -5   8   43.12    3.10
  -5  -5   8   43.76    3.88
  -4  -5   8   39.23    3.47
  -4  -5   8   43.05    3.28
  -3  -5   8  123.74    5.44
  -3  -5   8  134.86    5.91
  -2  -5   8   94.43    4.87
  -2  -5   8   90.78    4.76
  -1  -5   8  141.38    5.95
  -1  -5   8  142.36    4.73
  -1  -5   8  141.08    6.27
   0  -5   8   28.66    1.51
   0  -5   8   32.85    3.32
   0  -5   8   28.15    2.91
   1  -5   8   45.49    4.01
   1  -5   8   46.23    3.60
   2  -5   8   38.94    4.11
   2  -5   8   35.34    3.26
   3  -5   8   89.51    4.99
   3  -5   8   98.34    6.32
   4  -5   8    1.96    1.76
  -4   5  -8    1.25    2.15
  -4   5  -8    3.00    1.99
  -5   5  -8   62.51    5.74
  -5   5  -8   59.55    5.11
  -6   5  -8    2.07    2.20
  -6   5  -8   -0.27    1.71
  -7   5  -8  134.63    8.54
  -7   5  -8  114.64    7.06
  -8   5  -8   16.50    3.92
  -8   5  -8   15.33    3.46
  -9   5  -8    3.84    2.70
  -9   5  -8    0.89    2.79
 -10   5  -8   12.81    4.25
 -11   5  -8    9.60    4.26
 -12   5  -8   -3.58    3.13
 -13   5  -8   55.92    7.76
 -14   5  -8    0.39    4.15
 -15   5  -8    7.18    6.19
 -16  -4   8   -3.00    2.30
 -15  -4   8   -0.30    2.65
 -14  -4   8   23.51    4.61
 -13  -4   8    9.51    3.16
 -12  -4   8   98.85    6.80
 -11  -4   8  123.14    7.28
 -10  -4   8   19.15    3.32
  -9  -4   8   -0.08    1.35
  -8  -4   8    1.10    1.53
  -7  -4   8    2.71    1.58
  -6  -4   8  278.87    9.67
  -6  -4   8  270.86    7.83
  -5  -4   8   21.51    2.22
  -5  -4   8   29.77    3.07
  -4  -4   8  288.15    9.42
  -4  -4   8  293.83    8.67
  -3  -4   8   77.18    4.24
  -3  -4   8   84.53    4.48
  -2  -4   8  296.17    9.28
  -2  -4   8  300.87    9.47
  -1  -4   8   12.78    2.15
  -1  -4   8   14.79    2.62
  -1  -4   8   12.10    1.20
   0  -4   8    7.53    1.84
   0  -4   8    7.91    2.38
   1  -4   8  145.95    6.83
   1  -4   8  151.38    6.22
   2  -4   8  141.21    5.99
   2  -4   8  132.22    6.89
   3  -4   8   21.50    2.71
   3  -4   8   21.04    3.52
   4  -4   8   56.09    3.95
   4  -4   8   68.60    5.70
  -6   4  -8  126.97    7.82
  -6   4  -8  134.70    7.14
  -7   4  -8   21.54    4.22
  -7   4  -8   17.09    3.43
  -8   4  -8   12.64    3.81
  -8   4  -8   22.17    3.96
  -9   4  -8    1.26    2.39
  -9   4  -8   -2.97    2.18
 -10   4  -8   -0.38    2.72
 -10   4  -8   -1.67    2.27
 -11   4  -8    6.33    3.75
 -12   4  -8   15.91    4.81
 -13   4  -8    2.97    4.00
 -14   4  -8    8.38    5.02
 -16  -3   8    8.87    3.73
 -15  -3   8    1.47    2.60
 -14  -3   8   26.92    4.58
 -13  -3   8    5.26    2.60
 -12  -3   8  135.12    7.76
 -11  -3   8   40.96    4.57
 -10  -3   8    0.13    1.65
  -9  -3   8    8.41    2.36
  -8  -3   8   52.72    4.05
  -7  -3   8  301.44    8.69
  -7  -3   8  313.02   10.44
  -6  -3   8   62.89    4.08
  -6  -3   8   60.62    3.38
  -5  -3   8  185.81    7.11
  -5  -3   8  192.89    6.43
  -4  -3   8   19.27    2.20
  -4  -3   8   18.65    2.43
  -3  -3   8  204.19    7.25
  -3  -3   8  219.44    7.39
  -2  -3   8   43.76    3.45
  -2  -3   8   41.29    2.99
  -1  -3   8   11.46    1.93
  -1  -3   8    9.94    2.28
   0  -3   8   25.81    2.53
   0  -3   8   25.16    3.11
   1  -3   8  236.20    9.04
   1  -3   8  251.06    8.07
   2  -3   8    6.34    2.71
   2  -3   8    8.41    2.02
   3  -3   8   64.49    5.33
   3  -3   8   68.39    4.05
   4  -3   8    7.85    2.82
   5  -3   8  162.47    8.39
   6  -3   8   13.36    4.03
  -7   3  -8   12.26    3.08
  -7   3  -8    7.17    3.23
  -8   3  -8    1.96    2.75
  -8   3  -8    2.87    2.40
  -9   3  -8   22.10    4.04
  -9   3  -8   26.15    4.98
 -10   3  -8    0.47    2.74
 -10   3  -8    0.49    2.43
 -11   3  -8   33.77    5.14
 -11   3  -8   26.93    5.35
 -12   3  -8   -1.32    3.21
 -13   3  -8   29.30    6.32
 -17  -2   8    7.76    3.87
 -16  -2   8   12.74    3.98
 -15  -2   8   15.58    3.97
 -14  -2   8    1.71    2.33
 -13  -2   8    9.00    2.89
 -12  -2   8    0.07    1.97
 -11  -2   8    7.53    2.54
 -10  -2   8   11.19    2.71
  -9  -2   8  159.80    7.28
  -8  -2   8  230.94    8.77
  -8  -2   8  235.92    7.57
  -7  -2   8  227.76    8.41
  -7  -2   8  248.89    7.72
  -6  -2   8  232.67    7.43
  -6  -2   8  222.45    8.05
  -5  -2   8   84.48    4.28
  -5  -2   8   84.36    4.38
  -4  -2   8   37.94    2.95
  -4  -2   8   40.38    3.23
  -3  -2   8   -0.19    1.09
  -3  -2   8    0.06    1.60
  -2  -2   8  143.87    5.35
  -2  -2   8  138.07    5.82
  -1  -2   8    8.25    2.19
  -1  -2   8    5.69    1.56
   0  -2   8  354.61    9.85
   0  -2   8  341.78   11.14
   1  -2   8   50.92    3.33
   1  -2   8   45.00    4.03
   2  -2   8  202.90    6.99
   2  -2   8  203.16    8.45
  -2   2  -8  202.27    5.65
   3  -2   8    5.88    1.65
   3  -2   8    3.48    2.33
   4  -2   8   41.13    4.56
   5  -2   8   43.47    4.62
   6  -2   8    4.86    3.39
   7  -2   8    2.18    3.36
  -8   2  -8   70.23    6.52
  -8   2  -8   58.46    5.47
  -9   2  -8    0.89    2.21
  -9   2  -8   -0.65    2.39
 -10   2  -8   16.78    3.84
 -10   2  -8   18.01    4.29
 -11   2  -8   13.35    3.84
 -11   2  -8   18.54    4.65
 -12   2  -8    1.42    3.38
 -17  -1   8   -0.19    1.67
 -16  -1   8   20.35    4.41
 -15  -1   8   14.38    3.75
 -14  -1   8   15.82    3.88
 -13  -1   8    2.51    2.19
 -12  -1   8    5.64    2.50
 -11  -1   8    4.58    2.22
 -10  -1   8   34.97    3.97
  -9  -1   8  164.74    6.67
  -9  -1   8  173.56    7.61
  -8  -1   8   62.02    4.01
  -8  -1   8   61.89    4.12
  -7  -1   8  148.51    6.35
  -7  -1   8  152.13    5.93
  -6  -1   8   15.52    2.22
  -6  -1   8   16.78    2.35
  -5  -1   8    7.02    1.65
  -5  -1   8    7.27    1.93
  -4  -1   8   42.20    3.46
  -4  -1   8   38.18    2.84
  -3  -1   8   11.59    2.20
  -3  -1   8   11.19    1.72
  -2  -1   8  214.59    6.66
  -2  -1   8  210.34    7.58
  -1  -1   8  391.84   11.73
  -1  -1   8  370.17   10.07
   0  -1   8  197.28    7.86
   0   1  -8  193.27    5.26
   0  -1   8  207.86    6.59
  -1   1  -8  441.71   10.80
   1  -1   8  436.04   13.56
   1  -1   8  443.85   11.70
   2  -1   8   32.48    2.72
   2  -1   8   32.48    3.68
  -2   1  -8   32.25    2.30
   3  -1   8    4.64    2.60
   4  -1   8    1.16    2.66
   5  -1   8    0.96    2.99
   6  -1   8   32.41    4.53
   7  -1   8   78.48    6.52
  -9   1  -8    2.01    2.60
  -9   1  -8    2.90    2.31
 -10   1  -8   -0.56    2.37
 -10   1  -8   -2.51    2.35
 -11   1  -8    3.08    2.79
 -11   1  -8   -2.04    2.83
 -14   1  -8    1.72    3.38
 -18   0   8    0.41    2.29
 -17   0   8   -0.15    1.71
 -16   0   8    1.66    2.42
 -15   0   8   18.66    4.16
 -14   0   8    4.01    2.50
 -13   0   8    8.60    2.93
 -12   0   8   35.40    4.49
 -11   0   8    0.90    1.75
 -10   0   8   70.75    4.96
 -10   0   8   68.53    4.91
  -9   0   8   89.62    5.07
  -9   0   8   75.39    4.80
  -8   0   8  155.77    6.39
  -8   0   8  127.55    6.03
  -7   0   8    7.86    2.12
  -7   0   8    7.98    1.75
  -6   0   8   10.38    2.15
  -6   0   8    7.79    1.77
  -5   0   8  100.58    5.07
  -5   0   8  102.32    4.51
  -4   0   8   10.20    1.63
  -4   0   8    8.99    2.21
  -3   0   8    6.17    2.01
  -3   0   8    5.99    1.34
  -2   0   8  333.76    8.94
  -2   0   8  347.76   10.77
  -1   0   8  227.54    8.46
  -1   0   8  247.15    7.06
   1   0  -8  246.35    6.70
   0   0   8    0.50    1.00
   0   0   8    1.05    1.92
   0   0  -8   -0.45    0.83
   1   0   8  130.97    4.98
  -1   0  -8  141.73    4.90
   1   0   8  136.29    6.66
   2   0   8   26.71    3.47
  -2   0  -8   26.68    2.40
   3   0   8    4.26    2.55
  -3   0  -8    4.49    1.51
   4   0   8   77.41    5.76
   5   0   8   15.95    3.79
   6   0   8   -4.03    2.75
   7   0   8    7.64    3.61
   8   0   8    2.25    3.46
  -9   0  -8    7.42    3.42
  -9   0  -8    6.67    3.05
 -10   0  -8   13.57    3.37
 -10   0  -8   14.56    3.87
 -13   0  -8    3.62    3.14
 -14   0  -8   14.41    4.65
 -18   1   8   -1.82    1.41
 -17   1   8   -0.37    2.67
 -16   1   8    0.18    2.82
 -15   1   8   -1.02    1.88
 -14   1   8   46.94    5.45
 -13   1   8   -1.36    1.56
 -12   1   8   11.69    2.92
 -11   1   8    2.70    2.01
 -11   1   8    2.62    2.77
 -10   1   8   11.91    3.09
 -10   1   8   11.30    2.48
  -9   1   8   45.88    3.89
  -9   1   8   34.97    3.52
  -8   1   8  116.79    5.84
  -8   1   8  109.21    5.31
  -7   1   8    7.74    2.29
  -7   1   8    9.58    1.87
  -6   1   8  365.34   10.40
  -6   1   8  371.07   11.30
  -5   1   8    9.38    2.16
  -5   1   8    7.39    1.53
  -4   1   8  129.21    4.59
  -4   1   8  130.04    5.90
   2  -1  -8    9.25    1.51
  -2   1   8    9.55    2.35
  -2   1   8    6.78    1.24
  -1   1   8    2.77    2.15
  -1   1   8    4.47    1.28
   1  -1  -8    2.26    1.15
   0   1   8   73.88    3.33
   0   1   8   80.84    4.76
   0  -1  -8   79.01    3.61
   1   1   8   43.32    3.91
  -1  -1  -8   46.52    3.13
   2   1   8   75.09    5.00
  -2  -1  -8   71.43    4.07
  -3  -1  -8   42.67    3.33
   3   1   8   40.85    4.22
  -4  -1  -8   24.96    3.04
   4   1   8   20.70    3.59
   5   1   8   10.85    3.43
   6   1   8   52.49    5.44
   7   1   8   10.56    3.60
   8   1   8    3.52    3.18
  -9  -1  -8   35.44    4.64
  -9  -1  -8   40.28    5.52
 -11  -1  -8   32.69    4.74
 -12  -1  -8    2.56    2.58
 -13  -1  -8   13.74    3.98
 -18   2   8   -1.64    1.35
 -17   2   8    9.34    3.48
 -16   2   8   -1.51    2.31
 -15   2   8   91.92    6.97
 -14   2   8    2.63    2.36
 -13   2   8   27.20    4.21
 -12   2   8    8.14    2.54
 -12   2   8    5.27    3.11
 -11   2   8    1.23    1.77
 -11   2   8   -0.06    2.56
 -10   2   8   29.93    3.63
 -10   2   8   18.89    2.89
  -9   2   8   20.31    3.23
  -9   2   8   15.35    2.58
  -8   2   8   52.55    4.18
  -8   2   8   47.20    3.48
  -7   2   8   33.49    2.82
  -7   2   8   29.88    3.38
  -6   2   8   17.77    2.75
  -6   2   8   18.66    2.05
  -5   2   8   19.76    2.86
  -4   2   8    0.90    0.92
  -4   2   8    0.92    1.90
  -3   2   8    6.18    1.14
  -3   2   8    2.75    2.08
  -2   2   8   49.57    4.01
   2  -2  -8   51.39    3.09
  -2   2   8   52.42    2.49
  -1   2   8   54.59    2.56
  -1   2   8   53.09    4.28
   1  -2  -8   54.72    3.19
   0  -2  -8    4.75    1.53
   0   2   8   10.13    2.41
  -1  -2  -8   19.34    2.42
   1   2   8   24.65    3.28
   2   2   8  173.96    7.88
  -2  -2  -8  186.41    7.23
  -3  -2  -8  147.86    6.67
   3   2   8  140.89    7.35
  -4  -2  -8  220.64    8.81
   4   2   8  219.36    9.47
  -5  -2  -8    0.42    1.64
   5   2   8    0.06    2.75
   6   2   8    1.59    3.01
   7   2   8   19.08    4.27
   8   2   8   10.41    3.46
 -18   3   8   -2.43    1.54
 -17   3   8    3.14    2.40
 -16   3   8   79.83    7.35
 -15   3   8    0.64    2.33
 -14   3   8    8.47    2.85
 -13   3   8   85.27    6.05
 -13   3   8   87.76    6.72
 -12   3   8    0.03    3.24
 -12   3   8    6.34    2.17
 -11   3   8   22.96    3.99
 -11   3   8   20.43    3.27
 -10   3   8    3.17    1.62
 -10   3   8    5.93    2.78
  -9   3   8   21.60    2.73
  -9   3   8   23.27    3.58
  -8   3   8  216.36    7.64
  -8   3   8  211.32    8.68
  -7   3   8  172.24    6.28
  -7   3   8  181.81    7.75
  -5   3   8   94.12    3.72
  -5   3   8   92.21    5.49
  -4   3   8  210.03    5.71
  -4   3   8  208.94    8.09
   3  -3  -8    4.25    1.50
  -3   3   8    2.25    2.10
  -3   3   8    2.00    0.86
  -2   3   8   -2.84    1.74
  -2   3   8    1.02    0.77
   2  -3  -8    1.35    1.19
  -1   3   8    6.06    2.41
   1  -3  -8    4.42    1.56
   0   3   8   82.12    5.27
   0  -3  -8   79.72    4.48
  -1  -3  -8  350.57   11.23
   1   3   8  346.10   11.79
  -2  -3  -8   26.06    3.21
   2   3   8   23.86    3.42
   3   3   8  183.40    8.52
  -3  -3  -8  196.70    8.22
  -4  -3  -8   24.04    3.44
   4   3   8   29.13    4.02
   5   3   8   21.02    3.87
  -5  -3  -8   21.76    3.53
  -6  -3  -8    9.31    2.87
   6   3   8   13.92    3.60
  -7  -3  -8  101.66    7.10
   7   3   8  112.36    7.50
   8   3   8   -1.51    2.72
  -8  -3  -8    3.50    2.04
 -19   4   8   -2.90    1.65
 -18   4   8    2.07    2.74
 -17   4   8   29.25    5.08
 -16   4   8    1.49    2.57
 -15   4   8   11.49    3.19
 -14   4   8    1.36    2.18
 -14   4   8    3.12    2.86
 -13   4   8   21.56    3.76
 -13   4   8   25.40    4.26
 -12   4   8  210.82    9.05
 -12   4   8  202.35    9.62
 -11   4   8   72.86    5.89
 -11   4   8   71.89    4.77
 -10   4   8   49.31    3.75
 -10   4   8   40.04    4.55
  -9   4   8  230.09    8.35
  -9   4   8  257.95    9.96
  -8   4   8    9.43    1.81
  -8   4   8    9.66    2.92
  -6   4   8   14.49    2.98
  -6   4   8   12.81    1.61
  -5   4   8    0.76    0.79
  -5   4   8    1.27    1.98
   4  -4  -8   13.17    2.31
  -4   4   8   12.88    2.82
  -4   4   8   14.37    1.19
  -3   4   8  151.44    7.04
  -3   4   8  148.10    3.93
   3  -4  -8  149.56    6.23
   2  -4  -8   43.35    3.46
  -2   4   8   49.88    4.32
  -1   4   8  824.94   22.59
   1  -4  -8  843.88   21.78
   0  -4  -8    3.63    1.73
   0   4   8    1.55    2.15
   1   4   8   10.39    2.88
  -1  -4  -8   13.29    2.65
   2   4   8   12.29    3.15
  -2  -4  -8   14.14    2.76
  -3  -4  -8   47.13    4.47
   3   4   8   38.73    4.34
   4   4   8  108.87    6.94
  -4  -4  -8  104.57    6.50
   5   4   8   34.51    4.46
  -5  -4  -8   32.65    4.36
   6   4   8   22.76    3.86
  -6  -4  -8   15.03    3.51
   7   4   8    2.48    3.09
  -7  -4  -8   -1.70    1.90
  -8  -4  -8   61.12    6.71
  -9  -4  -8    2.47    2.85
 -10  -4  -8   -2.76    2.75
 -11  -4  -8    1.27    4.32
 -12  -4  -8    2.22    5.32
 -19   5   8   -2.86    1.57
 -18   5   8    0.89    2.71
 -17   5   8    2.05    2.93
 -16   5   8    9.98    3.36
 -15   5   8   -2.02    3.00
 -15   5   8    6.14    2.66
 -14   5   8    9.47    3.03
 -14   5   8   10.29    3.84
 -13   5   8   21.09    4.19
 -13   5   8   15.36    3.21
 -12   5   8   24.93    3.57
 -12   5   8   20.47    4.25
 -11   5   8   29.32    3.41
 -11   5   8   31.39    4.56
 -10   5   8  164.87    8.61
 -10   5   8  172.01    7.09
  -9   5   8    8.56    1.91
  -9   5   8    7.30    3.22
  -8   5   8   80.24    5.93
  -7   5   8   74.19    3.57
  -7   5   8   71.04    5.61
  -6   5   8   33.39    2.24
  -6   5   8   34.92    3.87
   5  -5  -8  162.08    6.99
  -5   5   8  166.26    4.66
  -5   5   8  157.09    7.38
  -4   5   8  221.41    8.89
  -4   5   8  209.28    5.10
   4  -5  -8  220.58    8.29
  -3   5   8   24.49    3.43
   3  -5  -8   25.07    2.95
  -2   5   8    7.93    2.64
   2  -5  -8    2.87    1.57
   1  -5  -8   31.19    3.40
  -1   5   8   42.05    4.11
   0   5   8    1.28    2.27
   0  -5  -8    1.55    1.76
   1   5   8   -0.87    2.25
  -1  -5  -8    4.31    2.08
  -2  -5  -8   69.63    5.11
   2   5   8   61.01    5.13
   3   5   8    3.20    2.68
  -3  -5  -8   -0.02    1.86
  -4  -5  -8    9.93    2.74
   4   5   8   12.79    3.53
  -5  -5  -8   11.87    2.96
   5   5   8    5.07    2.93
  -6  -5  -8    9.57    3.11
   6   5   8    9.19    3.41
  -7  -5  -8   31.54    5.16
  -8  -5  -8    5.44    3.21
  -9  -5  -8    4.28    3.59
 -10  -5  -8   -3.34    2.75
 -11  -5  -8   -6.75    3.37
 -12  -5  -8    7.63    8.00
 -19   6   8   12.31    4.28
 -18   6   8    3.40    2.88
 -17   6   8    8.40    3.34
 -16   6   8   -1.78    3.52
 -16   6   8    0.42    2.01
 -15   6   8   32.41    4.80
 -15   6   8   37.20    5.52
 -14   6   8   -1.28    3.01
 -14   6   8    1.43    1.83
 -13   6   8   -0.09    1.85
 -13   6   8   -4.91    2.91
 -12   6   8   13.86    4.27
 -12   6   8   18.15    3.23
 -11   6   8  153.46    6.97
 -11   6   8  166.71    8.97
 -10   6   8   47.21    5.17
 -10   6   8   45.73    3.66
  -8   6   8    3.75    2.98
  -8   6   8    3.16    1.36
  -7   6   8  177.32    5.74
  -7   6   8  161.88    8.39
  -6   6   8  240.64   10.10
  -6   6   8  261.37    6.89
   5  -6  -8   39.45    3.72
  -5   6   8   34.78    1.71
  -5   6   8   38.10    4.21
   4  -6  -8   26.17    3.22
  -4   6   8   30.08    3.84
   3  -6  -8   67.82    4.62
  -3   6   8   74.68    5.43
  -2   6   8   82.95    5.72
   2  -6  -8   87.87    5.23
   1  -6  -8    2.64    1.65
  -1   6   8    1.84    2.54
   0  -6  -8    0.88    1.73
   0   6   8    2.28    2.57
  -1  -6  -8    4.30    2.29
   1   6   8    8.77    3.01
  -2  -6  -8    2.61    2.04
   2   6   8    2.27    2.80
   3   6   8   31.30    4.14
  -3  -6  -8   30.26    4.32
   4   6   8    3.64    2.83
  -4  -6  -8    2.13    2.21
   5   6   8    5.40    2.76
  -5  -6  -8    1.59    2.34
  -6  -6  -8   54.64    6.40
  -7  -6  -8    0.22    2.59
  -8  -6  -8   -2.27    2.80
  -9  -6  -8    4.28    3.42
 -10  -6  -8   22.22    6.09
 -11  -6  -8    1.28    4.61
 -19   7   8    2.70    2.67
 -18   7   8    7.94    3.58
 -17   7   8    2.36    4.29
 -17   7   8    5.48    3.28
 -16   7   8   42.78    6.02
 -16   7   8   38.82    5.37
 -15   7   8   -0.45    3.60
 -15   7   8    1.61    1.97
 -14   7   8   77.86    6.21
 -14   7   8   65.86    6.54
 -13   7   8    1.89    2.05
 -13   7   8    3.61    3.36
 -12   7   8   20.75    4.59
 -12   7   8   14.24    3.02
 -11   7   8    2.18    3.68
 -11   7   8    9.46    2.27
 -10   7   8    5.25    3.55
  -9   7   8   20.25    4.20
  -8   7   8   12.39    1.75
  -8   7   8    8.95    3.59
  -7   7   8   22.67    4.08
  -7   7   8   19.68    1.86
  -6   7   8   37.32    4.33
   6  -7  -8   50.20    4.43
  -5   7   8  100.02    6.54
   5  -7  -8  102.16    5.92
  -4   7   8   11.82    3.28
   4  -7  -8    7.63    2.21
   3  -7  -8    6.83    2.22
  -3   7   8    7.15    2.92
  -2   7   8   24.94    3.93
   2  -7  -8   27.50    3.54
   1  -7  -8   22.16    3.47
  -1   7   8   20.85    3.69
   0   7   8   28.22    4.15
   0  -7  -8   20.55    3.58
   1   7   8  232.62    9.95
  -1  -7  -8  241.27   10.59
   2   7   8   14.48    3.58
  -2  -7  -8    8.46    2.84
   3   7   8   20.63    3.87
  -3  -7  -8   26.29    4.35
  -4  -7  -8   19.61    4.07
   4   7   8   24.28    3.99
  -5  -7  -8    1.65    2.61
  -6  -7  -8    1.35    2.59
  -7  -7  -8    2.52    3.27
  -8  -7  -8   26.60    5.86
  -9  -7  -8   14.92    5.46
 -10  -7  -8    1.89    4.24
 -19   8   8    3.11    2.23
 -18   8   8   14.49    4.15
 -17   8   8   48.07    6.73
 -17   8   8   53.12    6.24
 -16   8   8    0.86    2.69
 -16   8   8   -1.63    3.52
 -15   8   8   62.82    5.97
 -15   8   8   55.55    6.60
 -14   8   8   19.05    4.82
 -14   8   8   21.79    3.94
 -13   8   8   35.39    4.28
 -13   8   8   26.89    4.97
 -12   8   8    2.99    2.01
 -12   8   8    1.42    3.55
 -11   8   8   14.29    4.32
 -10   8   8   54.79    5.93
 -10   8   8   68.75    4.10
  -9   8   8  172.81    9.36
  -9   8   8  170.17    6.40
  -8   8   8    6.17    3.25
  -7   8   8   84.18    6.66
  -6   8   8   21.56    4.08
   6  -8  -8   18.32    3.23
  -5   8   8   -1.02    2.79
   5  -8  -8    3.79    1.96
   4  -8  -8    8.88    2.46
  -4   8   8    9.56    3.37
  -3   8   8   27.21    4.16
   3  -8  -8   23.95    3.65
   2  -8  -8   64.70    5.07
  -2   8   8   64.19    5.49
   1  -8  -8  357.44   13.20
  -1   8   8  344.76   12.99
   0   8   8   58.00    5.28
   0  -8  -8   46.42    5.06
   1   8   8  278.20   11.42
  -1  -8  -8  289.84   12.31
   2   8   8    0.72    2.73
  -2  -8  -8    1.96    2.37
  -3  -8  -8    1.63    2.39
   3   8   8    1.05    2.50
  -4  -8  -8    0.22    2.39
  -5  -8  -8   45.05    6.30
  -6  -8  -8    3.68    3.18
  -7  -8  -8   66.74    8.01
  -8  -8  -8   14.68    5.15
  -9  -8  -8   16.09    5.67
 -19   9   8   -2.20    2.22
 -18   9   8   19.04    4.33
 -18   9   8   14.94    5.72
 -17   9   8   22.66    5.72
 -17   9   8   24.24    4.85
 -16   9   8    6.11    4.43
 -16   9   8   15.03    3.93
 -15   9   8    1.04    3.72
 -15   9   8    5.02    2.54
 -14   9   8    4.44    3.76
 -14   9   8    0.58    2.26
 -13   9   8    4.45    3.78
 -13   9   8    4.40    2.65
 -12   9   8   44.45    3.99
 -12   9   8   50.45    5.96
 -11   9   8    3.84    3.94
 -10   9   8  108.14    8.14
  -9   9   8    8.90    3.95
  -8   9   8   64.05    6.07
   7  -9  -8   22.21    3.64
  -7   9   8   18.31    4.25
  -6   9   8   65.92    6.08
   6  -9  -8   64.79    5.20
   5  -9  -8    9.80    2.69
  -5   9   8   11.03    3.42
   4  -9  -8   99.85    6.43
  -4   9   8  105.38    7.06
   3  -9  -8   -0.69    1.46
  -3   9   8    2.70    3.11
  -2   9   8   98.01    6.80
   2  -9  -8  112.80    6.95
   1  -9  -8  243.42   10.86
  -1   9   8  229.61   10.46
   0  -9  -8  174.37    9.29
   0   9   8  194.07    9.20
   1   9   8   73.16    5.80
  -1  -9  -8   71.34    6.71
  -2  -9  -8   22.76    4.60
   2   9   8   24.23    3.98
  -3  -9  -8   25.33    4.93
  -4  -9  -8   23.62    5.08
  -5  -9  -8   14.47    4.33
  -6  -9  -8    7.25    3.87
  -7  -9  -8   20.00    5.36
  -8  -9  -8   -3.36    3.89
 -19  10   8    5.33    2.98
 -19  10   8    3.50    5.25
 -18  10   8    1.13    4.75
 -18  10   8    2.19    3.04
 -17  10   8    1.38    4.54
 -17  10   8   -3.58    2.50
 -16  10   8    6.69    3.03
 -16  10   8   -0.39    3.91
 -15  10   8    1.17    4.09
 -14  10   8   30.61    5.73
 -13  10   8   22.95    5.22
 -12  10   8   23.74    5.03
 -11  10   8  174.92   10.34
 -10  10   8    0.32    3.56
  -9  10   8   13.84    4.12
  -8  10   8    7.79    3.96
  -7  10   8   39.40    5.49
   7 -10  -8   41.65    4.91
   6 -10  -8    2.20    2.05
  -6  10   8    6.37    3.42
   5 -10  -8  191.80    9.44
  -5  10   8  184.81    9.75
  -4  10   8   45.86    5.32
   4 -10  -8   37.31    4.83
  -3  10   8   52.23    5.28
   3 -10  -8   44.83    5.19
  -2  10   8    6.82    3.33
   2 -10  -8    5.35    2.44
  -1  10   8   40.54    4.92
   1 -10  -8   44.69    5.45
   0  10   8    4.41    2.79
   0 -10  -8    9.73    3.21
   1  10   8    1.76    3.16
  -1 -10  -8    1.09    2.40
  -2 -10  -8   51.77    6.59
  -3 -10  -8   23.63    5.35
  -4 -10  -8    0.58    2.92
  -5 -10  -8   13.34    5.01
  -6 -10  -8    7.32    4.39
  -7 -10  -8   16.63    5.67
 -19  11   8   -0.80    5.16
 -18  11   8    8.27    5.34
 -17  11   8    9.92    5.10
 -16  11   8   10.32    5.15
 -15  11   8    1.59    3.93
 -14  11   8   25.89    5.79
 -13  11   8    8.30    4.19
 -12  11   8    5.52    4.10
 -11  11   8    2.74    3.76
 -10  11   8   -0.47    3.18
  -9  11   8   31.66    5.23
   8 -11  -8   50.53    5.55
  -8  11   8   59.90    6.32
  -7  11   8   55.99    6.01
   7 -11  -8   48.93    5.38
  -6  11   8  109.48    7.81
   6 -11  -8   97.13    6.98
   5 -11  -8   11.38    3.33
  -5  11   8   15.30    4.07
  -4  11   8   77.60    6.50
   4 -11  -8   62.67    6.19
   3 -11  -8    2.88    2.30
  -3  11   8    0.96    2.64
  -2  11   8   -0.20    2.48
   2 -11  -8    1.57    2.33
   1 -11  -8   16.27    3.84
  -1  11   8   25.34    4.14
   0 -11  -8    3.07    2.62
   0  11   8    1.60    2.60
  -1 -11  -8    0.77    2.65
  -2 -11  -8   92.38    8.61
  -3 -11  -8   10.32    4.25
  -4 -11  -8   37.80    6.86
  -5 -11  -8    2.99    4.12
  -6 -11  -8   12.73    5.58
 -18  12   8    3.11    5.39
 -17  12   8   -1.18    4.28
 -16  12   8   -0.22    4.24
 -15  12   8   27.23    6.24
 -14  12   8    1.67    4.00
 -13  12   8   30.03    5.97
 -12  12   8    6.32    4.20
 -11  12   8    3.08    3.55
 -10  12   8   -0.64    3.02
  -9  12   8   22.63    4.80
   8 -12  -8    5.10    2.71
  -8  12   8    1.31    3.22
  -7  12   8  105.07    7.74
   7 -12  -8   97.06    7.09
  -6  12   8   12.19    4.02
   6 -12  -8   10.38    3.49
   5 -12  -8   25.38    4.64
  -5  12   8   30.57    4.75
   4 -12  -8    5.20    2.86
  -4  12   8    5.89    3.01
  -3  12   8    4.08    3.09
   3 -12  -8    4.12    2.85
   2 -12  -8    3.52    2.52
  -2  12   8    3.07    2.63
  -1  12   8   52.25    5.34
   1 -12  -8   47.23    6.36
   0 -12  -8    1.97    2.70
  -1 -12  -8   85.64    8.34
  -2 -12  -8   -0.51    2.24
  -3 -12  -8    7.29    4.27
  -4 -12  -8    0.82    3.91
  -5 -12  -8    1.56    4.42
 -18  13   8    9.62    5.81
 -17  13   8    1.47    4.93
 -16  13   8   11.12    5.19
 -15  13   8    7.33    4.70
 -14  13   8    7.14    4.68
 -13  13   8    4.81    4.19
 -12  13   8   -4.23    3.61
 -11  13   8   36.34    6.10
 -10  13   8   65.45    7.18
  -9  13   8   49.22    6.32
  -8  13   8  118.26    8.70
   8 -13  -8  124.17    8.43
  -7  13   8   42.06    5.86
   7 -13  -8   20.13    4.40
   6 -13  -8    9.74    3.52
  -6  13   8   15.29    4.14
  -5  13   8    5.18    3.49
   5 -13  -8    4.94    3.02
   4 -13  -8   51.15    6.44
  -4  13   8   44.32    5.43
  -3  13   8    3.02    2.93
   3 -13  -8   -0.18    2.58
  -2  13   8   42.42    5.10
   2 -13  -8   33.85    5.78
   1 -13  -8    1.51    2.76
   0 -13  -8   31.36    5.76
  -1 -13  -8   -1.66    2.90
  -2 -13  -8    4.95    4.02
  -3 -13  -8   -5.05    2.70
  -4 -13  -8   37.39    7.43
 -17  14   8    8.86    5.27
 -16  14   8    1.46    4.82
 -15  14   8    1.64    4.53
 -14  14   8    6.31    4.37
 -13  14   8    1.78    4.38
 -12  14   8    0.21    4.01
 -11  14   8    1.37    3.66
 -10  14   8   43.42    6.39
  -9  14   8   35.00    5.91
  -8  14   8   -1.06    3.06
   8 -14  -8   -0.55    2.33
   7 -14  -8   21.02    4.61
  -7  14   8   20.63    4.89
  -6  14   8    6.72    3.67
   6 -14  -8    6.48    3.64
  -5  14   8   60.45    6.49
   5 -14  -8   50.08    6.59
  -4  14   8    1.91    3.13
   4 -14  -8    2.14    3.16
   3 -14  -8   40.17    6.59
  -3  14   8   45.21    5.35
   2 -14  -8    5.11    3.45
   1 -14  -8   16.46    4.86
   0 -14  -8    6.50    3.87
  -1 -14  -8   -1.46    3.44
  -2 -14  -8   -1.63    3.29
  -3 -14  -8   11.08    5.12
 -16  15   8    9.11    5.56
 -15  15   8    5.83    4.88
 -14  15   8   -2.88    2.52
 -13  15   8   -2.62    4.05
 -12  15   8   -1.49    3.80
 -11  15   8   -3.89    3.60
 -10  15   8    4.53    4.07
  -9  15   8    7.39    4.31
   9 -15  -8    5.93    3.53
   8 -15  -8    4.16    3.13
  -8  15   8   13.93    4.41
  -7  15   8   10.24    4.34
   7 -15  -8   11.46    3.76
  -6  15   8   16.29    4.50
   6 -15  -8   14.44    4.69
   5 -15  -8    4.71    3.85
  -5  15   8    3.54    3.20
  -4  15   8   12.59    3.73
   4 -15  -8   17.92    5.25
   3 -15  -8   -0.37    3.56
   2 -15  -8   48.76    7.48
   1 -15  -8    4.68    4.18
   0 -15  -8    4.18    4.12
  -1 -15  -8   -3.11    3.64
 -14  16   8   -2.54    1.79
 -13  16   8   -0.89    1.52
 -12  16   8   -1.26    3.97
 -11  16   8   -4.16    3.81
 -10  16   8    3.04    3.86
   9 -16  -8    2.27    2.99
  -9  16   8    3.07    3.71
  -8  16   8   13.99    4.74
   8 -16  -8   12.22    4.27
   7 -16  -8   15.08    4.43
  -7  16   8   18.30    5.15
  -6  16   8    4.41    3.32
   6 -16  -8    0.38    3.03
   5 -16  -8   -0.05    3.69
  -5  16   8   -0.50    3.16
   4 -16  -8   -1.12    3.49
   3 -16  -8    4.23    4.33
   2 -16  -8    2.41    4.07
   1 -16  -8    8.05    4.77
 -13  17   8   -2.18    2.03
 -12  17   8   -1.14    1.66
 -11  17   8    1.01    2.53
 -10  17   8   85.72    8.96
  -9  17   8    4.87    4.38
   9 -17  -8    0.65    1.28
  -8  17   8   53.67    6.86
  -7  17   8    0.18    3.14
   7 -17  -8   -2.08    1.19
   6 -17  -8    0.56    1.77
   5 -17  -8   -0.73    1.61
   4 -17  -8   15.21    5.65
   3 -17  -8   -3.00    4.03
 -11  18   8   -7.56    3.72
 -10  18   8    8.80    5.34
  -9  18   8   15.86    4.61
  -8  18   8   25.27    5.90
   2 -18   9    5.66    4.11
   3 -18   9   -0.16    3.63
   4 -18   9   13.47    4.70
   5 -18   9   -0.79    3.66
   6 -18   9   16.01    5.07
   7 -18   9    4.68    4.65
  -8  18  -9    2.09    4.87
  -2 -17   9    2.47    3.91
  -1 -17   9   19.91    5.24
   0 -17   9   13.02    4.75
   1 -17   9   16.33    4.80
   2 -17   9   -4.09    2.72
   3 -17   9   21.39    4.66
   4 -17   9   12.42    4.06
   5 -17   9    0.87    3.19
   6 -17   9   13.11    4.36
  -7  17  -9    1.93    3.96
   7 -17   9    3.91    4.08
  -8  17  -9   -1.08    4.04
  -9  17  -9   34.51    7.76
  -5 -16   9   15.62    5.23
  -4 -16   9   -0.69    3.61
  -3 -16   9    1.60    3.69
  -2 -16   9   32.92    5.67
  -1 -16   9   37.92    5.69
   0 -16   9    0.63    3.09
   1 -16   9   28.99    5.21
   2 -16   9    4.85    3.07
   3 -16   9    1.22    2.81
   4 -16   9   11.42    3.94
   5 -16   9   -0.68    3.07
   6 -16   9    3.68    3.36
  -6  16  -9    6.10    4.56
   7 -16   9    9.12    4.15
  -7  16  -9    4.66    4.34
  -8  16  -9   -0.21    4.00
  -9  16  -9   20.88    5.95
 -10  16  -9   -2.95    4.28
  -7 -15   9    4.96    4.51
  -6 -15   9    1.36    3.59
  -5 -15   9    2.72    3.27
  -4 -15   9   29.46    5.23
  -3 -15   9    4.60    2.93
  -2 -15   9   47.27    5.90
  -1 -15   9    0.49    3.09
   0 -15   9    2.22    3.12
   1 -15   9    6.87    3.44
   2 -15   9    1.72    2.76
   3 -15   9   -2.52    2.27
   4 -15   9   30.18    4.92
  -5  15  -9   13.98    4.70
   5 -15   9    6.21    3.37
   6 -15   9   21.14    4.53
  -6  15  -9   16.02    5.04
   7 -15   9   28.97    5.24
  -7  15  -9   30.30    6.18
  -8  15  -9    6.02    4.96
  -9  15  -9    1.51    4.43
 -10  15  -9   -3.99    2.82
 -11  15  -9   -3.34    2.78
  -8 -14   9    0.19    3.49
  -7 -14   9    3.89    3.44
  -6 -14   9    0.28    2.98
  -5 -14   9   56.63    6.35
  -4 -14   9   -0.68    2.55
  -3 -14   9   10.89    3.52
  -2 -14   9   -0.26    3.08
  -1 -14   9   -1.94    2.51
   0 -14   9   -1.76    2.34
   1 -14   9    1.56    2.72
   2 -14   9    1.44    2.32
   3 -14   9   21.49    4.05
   4 -14   9    5.95    3.21
  -4  14  -9   10.24    4.11
  -5  14  -9   10.33    4.46
   5 -14   9   18.76    4.28
   6 -14   9   31.80    4.95
  -6  14  -9   29.08    5.82
   7 -14   9    4.04    3.02
  -7  14  -9    2.31    3.49
  -8  14  -9    0.13    3.75
  -9  14  -9    2.10    3.82
 -10  14  -9   14.24    5.37
 -11  14  -9   -3.36    1.75
 -12  14  -9   -4.36    2.61
 -10 -13   9    0.92    4.04
  -9 -13   9   -0.60    3.22
  -9 -13   9   -1.31    2.62
  -8 -13   9   16.64    4.21
  -8 -13   9   22.00    5.16
  -7 -13   9    2.62    3.46
  -7 -13   9    0.90    2.80
  -6 -13   9   11.56    3.72
  -5 -13   9    7.34    3.12
  -4 -13   9   29.78    4.69
  -3 -13   9   55.79    5.85
  -2 -13   9   -1.42    2.02
  -1 -13   9    7.79    3.03
   0 -13   9    2.14    2.52
   1 -13   9    1.11    2.43
   2 -13   9   77.28    6.49
  -3  13  -9   39.44    5.64
   3 -13   9   17.94    3.79
   4 -13   9   19.32    3.78
  -4  13  -9   21.78    4.93
   5 -13   9   10.07    3.14
  -5  13  -9   13.00    4.45
   6 -13   9   20.83    4.21
  -6  13  -9   10.21    4.46
   7 -13   9   -1.13    2.15
  -7  13  -9    5.48    3.77
  -8  13  -9    2.27    3.66
  -9  13  -9    6.24    4.19
 -10  13  -9   16.21    5.30
 -11  13  -9   -2.84    3.39
 -12  13  -9   -2.60    2.08
 -11 -12   9    5.93    4.63
 -10 -12   9    4.00    3.02
 -10 -12   9    0.50    2.86
  -9 -12   9   11.76    4.09
  -9 -12   9   14.69    4.29
  -8 -12   9    6.51    3.15
  -8 -12   9    9.01    4.00
  -7 -12   9    8.86    3.66
  -7 -12   9    8.84    3.18
  -6 -12   9   -0.63    2.09
  -6 -12   9    3.81    2.99
  -5 -12   9  101.12    7.49
  -5 -12   9  103.70    7.28
  -4 -12   9    3.19    2.55
  -3 -12   9   25.63    4.29
  -2 -12   9   12.28    3.32
  -1 -12   9    0.82    2.32
   0 -12   9   61.91    5.61
   1 -12   9    9.06    3.03
   2 -12   9   28.99    4.38
  -2  12  -9   32.41    5.00
  -3  12  -9   20.43    4.63
   3 -12   9   20.37    3.64
  -4  12  -9   14.28    4.51
   4 -12   9   10.90    3.23
  -5  12  -9   15.01    4.74
   5 -12   9   15.62    3.74
   6 -12   9   14.93    3.72
  -6  12  -9   11.90    4.61
  -7  12  -9   20.72    5.45
   7 -12   9   13.89    3.60
  -8  12  -9   -0.45    3.65
  -9  12  -9   25.46    5.92
 -10  12  -9    1.58    3.86
 -11  12  -9    0.39    4.16
 -12  12  -9    1.63    3.23
 -13  12  -9   -1.76    4.65
 -11 -11   9    7.36    2.83
 -11 -11   9   -1.53    2.49
 -10 -11   9   27.90    5.21
 -10 -11   9   33.62    5.33
  -9 -11   9   26.64    5.14
  -9 -11   9   21.49    4.30
  -8 -11   9   45.73    5.56
  -8 -11   9   43.76    5.93
  -7 -11   9   -0.77    2.00
  -7 -11   9    3.15    2.57
  -6 -11   9    2.27    2.77
  -6 -11   9   -0.26    2.31
  -5 -11   9   12.10    3.21
  -5 -11   9    2.15    2.47
  -4 -11   9   13.06    3.35
  -4 -11   9    8.54    2.97
  -3 -11   9    1.74    2.14
  -2 -11   9   10.97    3.09
  -1 -11   9   -2.39    1.89
   0 -11   9   12.30    3.07
   1 -11   9   13.81    3.19
  -1  11  -9   17.80    3.99
  -2  11  -9    5.56    3.30
   2 -11   9    5.72    2.69
  -3  11  -9    4.78    3.57
   3 -11   9   10.57    2.97
   4 -11   9   65.80    5.58
  -4  11  -9   59.96    6.51
   5 -11   9   10.09    3.09
  -5  11  -9    5.84    3.41
   6 -11   9    4.88    2.66
  -6  11  -9    4.36    3.18
  -7  11  -9   28.26    5.62
   7 -11   9   25.51    4.23
  -8  11  -9   11.69    4.38
  -9  11  -9    9.99    4.42
 -10  11  -9   -1.73    3.31
 -11  11  -9    4.53    4.46
 -12  11  -9    2.92    4.64
 -13  11  -9    2.30    4.79
 -12 -10   9    1.13    3.19
 -11 -10   9   21.39    4.65
 -10 -10   9   11.47    3.74
  -9 -10   9   10.70    3.34
  -8 -10   9    4.43    2.69
  -7 -10   9    8.19    2.95
  -7 -10   9    7.69    3.05
  -6 -10   9    0.88    2.42
  -6 -10   9    1.68    2.19
  -5 -10   9   32.48    4.33
  -5 -10   9   37.64    4.64
  -4 -10   9   -0.07    1.80
  -4 -10   9   -0.86    1.86
  -3 -10   9    0.40    1.02
  -3 -10   9    0.81    1.94
  -2 -10   9    1.53    2.11
  -1 -10   9   13.83    3.16
   0 -10   9   19.57    3.47
   1 -10   9    3.07    2.40
  -1  10  -9    6.38    2.80
  -2  10  -9   15.64    3.86
   2 -10   9   26.52    4.03
  -3  10  -9    2.45    2.74
   3 -10   9   -1.92    1.64
  -4  10  -9   13.05    3.99
   4 -10   9    8.59    2.85
  -5  10  -9    0.42    2.90
   5 -10   9   -0.01    1.93
  -6  10  -9    0.43    2.88
   6 -10   9   -0.83    2.28
  -7  10  -9    6.23    3.75
  -8  10  -9   -0.87    2.70
  -9  10  -9    3.64    3.60
 -10  10  -9    8.93    4.61
 -11  10  -9    4.71    4.38
 -12  10  -9   20.38    6.27
 -13  10  -9   14.57    5.79
 -14  10  -9   -3.05    4.63
 -13  -9   9   -1.37    3.09
 -12  -9   9   16.43    4.16
 -11  -9   9    2.11    2.74
 -10  -9   9   28.80    4.62
  -9  -9   9    7.83    3.14
  -8  -9   9   14.61    3.40
  -7  -9   9    6.18    2.66
  -6  -9   9    5.48    2.48
  -5  -9   9    5.31    2.49
  -5  -9   9   10.30    2.79
  -4  -9   9   19.19    3.20
  -4  -9   9   21.75    3.67
  -3  -9   9   18.28    3.01
  -3  -9   9   17.85    3.48
  -2  -9   9   13.75    3.10
  -2  -9   9   19.43    2.88
   1   9  -9   -0.73    1.75
  -1  -9   9    0.50    1.90
   0   9  -9    1.61    2.02
   0  -9   9   -0.18    1.80
   1  -9   9   39.61    4.12
  -1   9  -9   45.62    4.88
   2  -9   9   -3.74    1.75
  -2   9  -9    0.01    2.32
   3  -9   9   43.59    4.43
  -3   9  -9   45.20    5.39
  -4   9  -9   24.46    4.79
   4  -9   9   30.12    4.03
  -5   9  -9    4.78    3.17
   5  -9   9    5.21    2.45
   6  -9   9    0.68    2.26
  -6   9  -9    1.24    2.87
  -7   9  -9   37.90    6.09
  -8   9  -9    3.46    3.35
  -9   9  -9    0.94    3.26
 -10   9  -9    6.45    4.11
 -11   9  -9   -0.18    3.68
 -12   9  -9   18.07    5.79
 -13   9  -9    0.40    4.60
 -14   9  -9    2.04    4.87
 -14  -8   9    8.10    3.83
 -13  -8   9    7.52    3.65
 -12  -8   9    3.64    2.83
 -11  -8   9   12.77    3.52
 -10  -8   9    2.57    2.30
  -9  -8   9   -0.37    1.87
  -8  -8   9    1.79    2.12
  -7  -8   9   21.82    3.61
  -6  -8   9    0.18    1.78
  -5  -8   9   63.76    5.31
  -4  -8   9   27.20    3.66
  -3  -8   9   64.06    4.47
  -3  -8   9   67.71    5.06
   2   8  -9    9.27    2.29
   2   8  -9   11.22    2.55
  -2  -8   9    7.35    2.43
  -2  -8   9   10.46    2.16
  -1  -8   9   51.17    4.37
   0   8  -9    0.16    1.83
   0  -8   9    0.04    1.63
   0   8  -9    0.77    1.90
  -1   8  -9  238.18   10.16
  -1   8  -9  229.95    9.14
   1  -8   9  231.74    9.05
  -2   8  -9    3.03    2.25
  -2   8  -9    5.32    2.57
   2  -8   9    0.53    1.88
  -3   8  -9  158.14    7.82
   3  -8   9  131.21    6.91
  -3   8  -9  141.23    8.26
  -4   8  -9    0.17    2.44
   4  -8   9    1.06    1.91
  -4   8  -9    3.63    2.56
  -5   8  -9    7.57    3.08
  -5   8  -9    2.24    2.35
   5  -8   9    3.22    2.24
  -6   8  -9    7.41    3.57
   6  -8   9    4.54    2.53
  -6   8  -9    7.77    3.20
  -7   8  -9   11.61    4.07
  -8   8  -9   31.31    5.72
  -9   8  -9  145.36   10.27
 -10   8  -9   17.47    5.11
 -11   8  -9    4.40    4.11
 -12   8  -9    4.01    4.22
 -13   8  -9    0.43    4.31
 -14   8  -9   -0.49    4.85
 -14  -7   9   28.18    5.32
 -13  -7   9    3.23    3.10
 -12  -7   9   -3.44    2.43
 -11  -7   9    0.73    2.25
 -10  -7   9   31.94    4.49
  -9  -7   9   11.92    2.95
  -8  -7   9  111.31    6.73
  -7  -7   9    5.88    2.45
  -6  -7   9    7.38    2.52
  -5  -7   9   36.02    4.01
  -4  -7   9   26.27    3.44
   3   7  -9   37.98    3.03
  -3  -7   9   29.93    3.14
  -3  -7   9   36.97    3.92
   3   7  -9   33.30    3.18
   2   7  -9  175.75    7.54
   2   7  -9  176.51    6.87
  -2  -7   9  171.98    6.60
  -2  -7   9  173.67    7.51
  -1  -7   9   21.88    3.05
  -1  -7   9   19.82    2.17
   1   7  -9   20.75    2.97
   1   7  -9   17.37    2.64
   0   7  -9  101.12    6.15
   0   7  -9   87.42    5.24
   0  -7   9   99.67    5.50
   1  -7   9   18.42    2.94
  -1   7  -9   14.77    2.89
  -1   7  -9   16.11    3.23
   2  -7   9   32.48    3.52
  -2   7  -9   35.34    4.44
  -2   7  -9   37.94    4.10
  -3   7  -9   55.55    5.48
  -3   7  -9   50.36    4.77
   3  -7   9   57.38    4.63
   4  -7   9   -0.11    1.62
  -4   7  -9    2.28    2.31
  -4   7  -9    1.96    2.39
  -5   7  -9   20.76    4.16
   5  -7   9   17.87    3.39
  -5   7  -9   25.61    4.21
  -6   7  -9   78.43    6.45
  -6   7  -9   84.91    6.94
  -7   7  -9   46.62    6.02
  -7   7  -9   52.43    5.73
  -8   7  -9  145.70    8.81
  -8   7  -9  171.44   10.48
  -9   7  -9    2.70    3.30
 -10   7  -9    0.70    3.11
 -11   7  -9   -2.12    3.19
 -12   7  -9    0.43    3.62
 -13   7  -9    3.50    4.43
 -14   7  -9   -0.31    4.46
 -15  -6   9    1.73    3.06
 -14  -6   9    5.19    3.15
 -13  -6   9    1.95    2.62
 -12  -6   9   -1.41    1.91
 -11  -6   9   50.23    5.45
 -10  -6   9   14.08    3.28
  -9  -6   9    0.36    1.91
  -8  -6   9  154.01    7.75
  -7  -6   9    5.29    2.07
  -6  -6   9   -0.25    1.60
  -5  -6   9   44.46    4.10
  -4  -6   9   59.02    4.53
  -4  -6   9   69.70    4.16
  -3  -6   9   30.05    3.42
  -3  -6   9   33.03    3.18
  -2  -6   9   14.38    2.63
  -2  -6   9   10.92    2.44
  -2  -6   9   12.11    1.80
  -1  -6   9   20.03    2.83
  -1  -6   9   22.53    1.93
  -1  -6   9   20.85    3.15
   0  -6   9   14.67    2.57
   0  -6   9   14.86    3.17
   1  -6   9    0.09    2.50
   1  -6   9    3.16    1.78
   2  -6   9   12.45    2.51
   3  -6   9    1.20    1.74
  -3   6  -9   -0.41    1.74
  -3   6  -9    5.65    2.71
   4  -6   9   51.10    4.42
  -4   6  -9   43.51    5.16
  -4   6  -9   48.98    4.83
  -5   6  -9   25.89    3.95
  -5   6  -9   39.96    5.10
   5  -6   9   42.79    4.26
  -6   6  -9    4.72    2.57
  -6   6  -9    5.33    2.79
  -7   6  -9   49.65    6.01
  -7   6  -9   43.75    5.27
  -8   6  -9    6.12    3.37
  -8   6  -9    7.86    3.07
  -9   6  -9    8.62    3.77
  -9   6  -9    4.37    2.91
 -10   6  -9   11.86    4.40
 -11   6  -9    0.62    3.30
 -12   6  -9    3.39    3.85
 -13   6  -9    0.78    4.17
 -14   6  -9    7.74    5.09
 -15   6  -9    1.16    5.73
 -15  -5   9   13.66    4.02
 -14  -5   9    9.31    3.37
 -13  -5   9    0.71    2.36
 -12  -5   9    7.18    2.80
 -11  -5   9   12.57    3.18
 -10  -5   9   12.60    3.06
  -9  -5   9   -0.76    1.85
  -8  -5   9   20.14    3.45
  -7  -5   9   11.85    2.65
  -6  -5   9   67.23    4.68
  -5  -5   9   29.55    3.34
  -5  -5   9   31.82    2.73
  -4  -5   9   42.44    3.25
  -4  -5   9   42.23    3.74
  -3  -5   9    7.68    2.01
  -2  -5   9   66.97    4.17
  -2  -5   9   63.17    4.46
  -1  -5   9   15.71    1.43
  -1  -5   9   23.23    3.23
  -1  -5   9   17.84    2.54
   0  -5   9   35.57    3.84
   0  -5   9   39.81    3.36
   1  -5   9   42.83    4.14
   1  -5   9   42.20    3.57
   2  -5   9   15.25    3.18
   2  -5   9   18.87    2.71
   3  -5   9   12.38    3.56
   3  -5   9   12.13    2.64
   4  -5   9  124.63    6.33
   4  -5   9  128.74    7.88
  -5   5  -9   -3.07    2.14
  -5   5  -9    0.29    1.82
  -6   5  -9   20.28    4.18
  -6   5  -9   20.52    3.81
  -7   5  -9   10.25    3.58
  -7   5  -9   15.70    3.52
  -8   5  -9    2.15    2.18
  -8   5  -9    2.34    2.55
  -9   5  -9    2.09    2.57
  -9   5  -9    2.86    2.85
 -10   5  -9   45.12    6.42
 -10   5  -9   38.99    5.61
 -11   5  -9    1.58    3.18
 -12   5  -9   45.88    7.13
 -13   5  -9   -6.54    3.17
 -14   5  -9   16.16    5.79
 -15   5  -9    0.80    8.24
 -16  -4   9    6.32    3.28
 -15  -4   9    6.84    3.33
 -14  -4   9   -1.40    2.31
 -13  -4   9   26.63    4.60
 -12  -4   9    7.74    2.65
 -11  -4   9    1.39    1.81
 -10  -4   9   54.39    4.94
  -9  -4   9   18.68    3.24
  -8  -4   9    2.42    1.72
  -7  -4   9  130.77    6.58
  -6  -4   9   65.74    3.78
  -6  -4   9   64.72    4.47
  -5  -4   9  113.80    4.96
  -5  -4   9  116.94    5.72
  -4  -4   9   14.23    2.35
  -4  -4   9   14.13    2.50
  -3  -4   9   42.80    3.61
  -3  -4   9   58.02    3.84
  -2  -4   9   68.00    4.49
  -2  -4   9   64.64    4.04
  -1  -4   9    1.31    1.34
  -1  -4   9   -1.84    1.89
   0  -4   9    1.64    1.49
   0  -4   9    1.43    2.19
   1  -4   9  266.65   10.12
   1  -4   9  262.23    8.87
   2  -4   9   17.05    3.49
   2  -4   9   18.37    2.63
   3  -4   9  178.93    8.36
   3  -4   9  143.44    6.48
   4  -4   9   28.10    3.32
   4  -4   9   27.90    4.38
   5  -4   9   46.54    5.37
  -6   4  -9    2.19    2.75
  -6   4  -9    0.70    2.08
  -7   4  -9   -0.45    1.89
  -7   4  -9   -1.31    2.54
  -8   4  -9   35.39    4.75
  -8   4  -9   33.55    5.31
  -9   4  -9   30.23    4.88
  -9   4  -9   28.81    5.22
 -10   4  -9    7.53    3.81
 -10   4  -9   11.04    3.61
 -11   4  -9   18.40    4.52
 -11   4  -9   32.00    6.07
 -12   4  -9    1.49    3.91
 -13   4  -9   21.75    5.85
 -14   4  -9   -2.28    4.67
 -16  -3   9    1.11    2.84
 -15  -3   9   10.89    3.42
 -14  -3   9    9.17    3.24
 -13  -3   9   19.12    3.82
 -12  -3   9   -0.50    1.96
 -11  -3   9    0.29    1.77
 -10  -3   9   63.81    5.20
  -9  -3   9   43.22    4.19
  -8  -3   9  119.59    6.19
  -7  -3   9  220.94    8.66
  -7  -3   9  230.93    7.41
  -6  -3   9  104.02    5.41
  -6  -3   9  104.67    4.72
  -5  -3   9  217.33    7.98
  -5  -3   9  210.56    7.34
  -4  -3   9   96.66    4.91
  -4  -3   9   98.37    4.88
  -3  -3   9    2.39    1.99
  -3  -3   9    1.25    1.26
  -2  -3   9  269.40    9.29
  -2  -3   9  268.58    8.55
  -1  -3   9    4.01    2.25
  -1  -3   9    4.67    1.65
   0  -3   9  246.74    9.31
   0  -3   9  258.92    8.36
   1  -3   9  119.72    6.46
   1  -3   9  120.48    5.36
   2  -3   9  417.50   13.90
   2  -3   9  434.10   12.43
   3  -3   9    3.82    2.98
   3  -3   9    5.67    1.96
   4  -3   9   42.74    4.69
   5  -3   9   10.63    3.64
   6  -3   9    1.97    3.41
  -7   3  -9   -0.10    2.49
  -7   3  -9    0.22    2.03
  -8   3  -9  187.60    9.52
  -8   3  -9  223.25   11.27
  -9   3  -9   -0.49    2.51
  -9   3  -9   -0.26    2.23
 -10   3  -9    6.29    3.14
 -10   3  -9    5.65    3.31
 -11   3  -9    8.55    3.59
 -11   3  -9   10.84    4.29
 -12   3  -9   20.41    5.50
 -13   3  -9    0.81    4.20
 -17  -2   9    4.77    3.31
 -16  -2   9    0.15    2.17
 -15  -2   9   10.68    3.69
 -14  -2   9   31.92    4.96
 -13  -2   9   13.37    3.39
 -12  -2   9   13.99    3.16
 -11  -2   9    5.06    2.26
 -10  -2   9  275.87   10.58
  -9  -2   9   67.30    4.70
  -8  -2   9  232.52    8.67
  -8  -2   9  221.27    7.71
  -7  -2   9  202.66    7.27
  -7  -2   9  209.50    8.01
  -6  -2   9   18.17    2.51
  -6  -2   9   22.29    2.79
  -5  -2   9    4.00    1.61
  -5  -2   9    7.78    2.06
  -4  -2   9   10.01    2.16
  -4  -2   9    6.63    1.72
  -3  -2   9  408.75   12.25
  -3  -2   9  416.18   11.43
  -2  -2   9  307.96    9.06
  -2  -2   9  296.26    9.88
  -1  -2   9  536.98   13.88
  -1  -2   9  544.26   15.58
   0  -2   9   47.91    3.31
   0  -2   9   51.13    4.25
   1  -2   9   98.88    5.85
   1  -2   9   83.36    4.28
   2  -2   9    0.92    1.33
   2  -2   9    6.63    2.74
  -2   2  -9    4.21    1.05
   3  -2   9   11.32    3.23
   3  -2   9    8.88    2.11
  -3   2  -9    6.79    1.37
   4  -2   9   42.54    4.97
   5  -2   9    8.89    3.71
   6  -2   9   21.47    4.34
   7  -2   9  104.94    7.80
  -8   2  -9    3.39    3.05
  -8   2  -9    5.43    2.56
  -9   2  -9   12.25    3.44
  -9   2  -9   14.70    4.07
 -10   2  -9   -1.68    2.84
 -10   2  -9   -1.63    2.51
 -11   2  -9    4.17    3.45
 -11   2  -9    0.47    2.68
 -12   2  -9    5.89    4.20
 -12   2  -9    3.36    3.71
 -17  -1   9    0.84    1.53
 -16  -1   9   -0.03    2.60
 -15  -1   9   12.27    3.73
 -14  -1   9   21.00    4.13
 -13  -1   9   42.37    5.11
 -12  -1   9   87.67    6.14
 -11  -1   9   49.07    4.83
 -10  -1   9   63.32    4.73
  -9  -1   9  273.62   10.06
  -9  -1   9  281.71    9.27
  -8  -1   9  185.14    7.15
  -8  -1   9  181.10    7.51
  -7  -1   9   27.39    3.00
  -6  -1   9    3.45    1.94
  -6  -1   9   -0.03    1.24
  -5  -1   9   22.87    2.80
  -5  -1   9   26.66    2.63
  -4  -1   9   14.39    2.57
  -4  -1   9   13.54    1.97
  -3  -1   9  140.15    6.16
  -3  -1   9  131.00    5.13
  -2  -1   9   50.65    4.08
  -2  -1   9   49.62    3.11
  -1  -1   9   45.54    2.99
  -1  -1   9   46.93    3.91
   0   1  -9  256.67    6.53
   0  -1   9  246.15    9.36
   0  -1   9  242.01    7.70
   1  -1   9   56.99    3.51
  -1   1  -9   58.09    2.62
   1  -1   9   55.56    4.59
   2  -1   9   84.02    4.36
  -2   1  -9   86.41    3.66
   2  -1   9   85.29    5.74
   3  -1   9    5.43    2.67
  -3   1  -9    6.36    1.54
   4  -1   9  100.54    6.76
   5  -1   9    1.22    3.12
   6  -1   9  116.49    7.65
   7  -1   9   48.93    5.63
  -9   1  -9   15.84    3.75
  -9   1  -9   13.10    3.97
 -10   1  -9    6.23    3.33
 -10   1  -9    4.93    2.97
 -11   1  -9   -2.17    2.82
 -11   1  -9    2.79    3.21
 -14   1  -9    5.67    4.31
 -18   0   9    0.02    2.05
 -17   0   9   -2.00    1.35
 -16   0   9   -3.06    2.05
 -15   0   9   12.32    3.49
 -14   0   9   26.75    4.49
 -13   0   9   43.94    5.16
 -12   0   9    2.33    2.04
 -11   0   9   -0.65    1.48
 -10   0   9    5.41    2.62
 -10   0   9    4.82    2.05
  -9   0   9   43.62    3.83
  -9   0   9   43.55    3.85
  -8   0   9    8.61    2.07
  -8   0   9   11.46    2.53
  -7   0   9   -0.17    1.13
  -7   0   9   -1.82    1.74
  -6   0   9   15.37    2.23
  -6   0   9   11.22    2.45
  -5   0   9   69.28    4.55
  -5   0   9   81.87    3.99
  -4   0   9    3.01    2.00
  -4   0   9    1.72    1.15
  -3   0   9   21.72    2.96
  -3   0   9   22.37    2.11
  -2   0   9   67.97    3.39
  -2   0   9   70.59    4.78
   1   0  -9   19.96    1.70
  -1   0   9   17.54    1.92
  -1   0   9   16.86    2.93
   0   0   9   11.45    1.75
   0   0   9   14.06    2.82
   0   0  -9   13.60    1.53
   1   0   9  112.99    6.31
   1   0   9  123.51    4.87
  -1   0  -9  116.49    4.57
   2   0   9   21.53    3.50
  -2   0  -9   19.28    2.16
   3   0   9   45.08    4.74
  -3   0  -9   52.76    3.38
  -4   0  -9    0.03    1.28
   4   0   9   -2.64    2.55
   5   0   9    8.58    3.52
   6   0   9  136.52    8.35
   7   0   9    7.54    3.48
   8   0   9    0.42    3.32
  -9   0  -9    1.33    2.47
  -9   0  -9    5.66    3.18
 -10   0  -9   -0.12    3.14
 -10   0  -9   -1.36    2.57
 -13   0  -9    9.16    3.97
 -18   1   9    1.44    2.09
 -17   1   9    0.52    2.97
 -16   1   9   -0.27    2.55
 -15   1   9   15.83    3.94
 -14   1   9   28.40    4.59
 -13   1   9    1.38    2.13
 -12   1   9   13.33    3.04
 -11   1   9    0.26    1.71
 -11   1   9   -3.69    2.67
 -10   1   9   -0.21    2.48
 -10   1   9    1.92    1.64
  -9   1   9   -0.92    2.25
  -9   1   9    1.12    1.44
  -8   1   9   -1.05    1.12
  -8   1   9    0.21    2.00
  -7   1   9   83.12    4.99
  -7   1   9   72.30    4.10
  -6   1   9    4.16    1.44
  -6   1   9    7.26    2.34
  -5   1   9    0.90    1.91
  -5   1   9    2.31    1.17
  -4   1   9   53.99    2.82
  -3   1   9  197.23    7.98
  -2   1   9   16.78    1.81
  -2   1   9   19.44    3.03
   2  -1  -9   18.12    1.84
  -1   1   9   33.32    3.66
   1  -1  -9   37.06    2.50
  -1   1   9   37.71    2.46
   0   1   9    1.74    2.15
   0  -1  -9    2.07    1.25
   0   1   9    3.07    1.28
   1   1   9   27.61    3.50
  -1  -1  -9   20.71    2.31
  -2  -1  -9  340.64   10.59
   2   1   9  360.50   12.47
  -3  -1  -9  122.27    5.69
   3   1   9  120.67    7.10
  -4  -1  -9    1.07    1.46
   4   1   9   -1.92    2.64
   5   1   9   31.92    4.54
  -5  -1  -9   32.91    3.74
   6   1   9   41.55    5.43
   7   1   9    6.69    3.62
   8   1   9   30.55    4.83
 -18   2   9    0.40    1.58
 -17   2   9    4.39    3.00
 -16   2   9   23.19    4.70
 -15   2   9   16.31    3.77
 -14   2   9   52.13    5.69
 -13   2   9   54.51    5.38
 -12   2   9   10.71    3.53
 -12   2   9    7.94    2.50
 -11   2   9   -1.26    1.55
 -11   2   9    3.19    2.92
 -10   2   9   42.77    4.31
 -10   2   9   29.44    3.45
  -9   2   9   26.50    2.99
  -9   2   9   22.38    3.58
  -8   2   9  242.36    9.31
  -8   2   9  222.76    8.03
  -7   2   9    9.68    1.85
  -7   2   9    5.10    2.39
  -6   2   9   10.02    1.69
  -6   2   9   11.98    2.71
  -5   2   9   13.36    2.66
  -4   2   9  108.51    4.03
  -4   2   9   99.47    5.55
  -3   2   9   31.81    2.18
  -3   2   9   31.38    3.54
   2  -2  -9   14.76    1.96
  -2   2   9   11.42    2.73
  -2   2   9   15.39    1.58
   1  -2  -9  181.84    6.57
  -1   2   9  190.22    5.68
  -1   2   9  190.92    7.98
   0  -2  -9  185.11    6.71
   0   2   9  189.36    8.03
   1   2   9   44.27    4.31
  -1  -2  -9   40.78    3.30
  -2  -2  -9    3.19    1.64
   2   2   9    4.17    2.61
  -3  -2  -9   97.24    5.39
   3   2   9  101.22    6.63
   4   2   9   64.60    5.64
  -4  -2  -9   76.58    5.01
  -5  -2  -9    0.38    1.74
   5   2   9   -1.13    2.85
  -6  -2  -9   52.80    5.05
   6   2   9   59.84    5.76
  -7  -2  -9   80.89    6.11
   7   2   9   79.43    6.64
   8   2   9   11.58    3.84
   9   2   9   78.98    7.28
 -19   3   9    0.45    2.27
 -18   3   9   -0.04    1.39
 -17   3   9    9.84    3.70
 -16   3   9    3.94    2.71
 -15   3   9   28.58    4.69
 -14   3   9   47.15    5.26
 -13   3   9   29.14    4.34
 -13   3   9   21.51    3.62
 -12   3   9    6.54    3.47
 -12   3   9   14.06    2.95
 -11   3   9    3.88    1.91
 -11   3   9   -1.91    2.95
 -10   3   9   -0.22    2.97
 -10   3   9    1.76    1.52
  -9   3   9   54.72    3.95
  -9   3   9   57.22    4.77
  -8   3   9    5.55    2.63
  -8   3   9    5.85    1.66
  -7   3   9    2.00    2.29
  -7   3   9    0.76    0.77
  -6   3   9    4.20    1.24
  -6   3   9    5.89    2.50
  -5   3   9    1.20    0.98
  -5   3   9    0.87    2.14
  -4   3   9   55.66    4.68
  -4   3   9   59.11    2.69
  -3   3   9  280.85    7.13
   3  -3  -9  284.92    9.04
  -3   3   9  267.61   10.19
   2  -3  -9   40.64    3.12
  -2   3   9   40.82    4.03
  -2   3   9   41.75    2.20
  -1   3   9  289.85   10.66
   1  -3  -9  287.43    9.34
   0  -3  -9   31.96    3.10
   0   3   9   24.64    3.58
   1   3   9    4.52    2.68
  -1  -3  -9    3.02    1.78
   2   3   9   85.96    6.00
  -2  -3  -9   84.73    5.08
  -3  -3  -9   -1.50    1.39
   3   3   9    2.89    2.80
  -4  -3  -9    0.82    1.78
   4   3   9    0.14    2.68
   5   3   9    7.02    3.36
  -5  -3  -9    1.40    1.74
  -6  -3  -9   14.74    3.37
   6   3   9   14.16    3.88
   7   3   9   26.68    4.72
  -7  -3  -9   23.37    4.22
  -8  -3  -9   45.34    5.81
   8   3   9   52.03    5.62
 -19   4   9   -0.59    1.77
 -18   4   9    2.91    2.84
 -17   4   9   -2.99    2.34
 -16   4   9    0.85    2.49
 -15   4   9   48.29    5.58
 -14   4   9   18.06    3.72
 -14   4   9   24.35    4.33
 -13   4   9   15.40    3.89
 -13   4   9   16.93    3.34
 -12   4   9   -1.35    1.63
 -12   4   9    2.60    3.18
 -11   4   9   80.72    6.42
 -11   4   9   80.89    5.12
 -10   4   9   14.69    2.50
 -10   4   9   15.45    3.64
  -9   4   9    0.34    2.71
  -9   4   9    1.62    1.35
  -8   4   9   27.84    3.90
  -7   4   9   13.27    3.01
  -7   4   9   15.06    1.89
  -6   4   9    9.92    2.72
  -6   4   9    9.79    1.41
  -5   4   9   27.36    3.64
  -5   4   9   27.00    1.92
  -4   4   9  137.82    4.11
  -4   4   9  139.99    6.80
   4  -4  -9  134.73    6.14
  -3   4   9    8.52    2.65
   3  -4  -9    3.92    1.67
  -3   4   9    7.31    1.02
   2  -4  -9   50.84    3.64
  -2   4   9   46.94    4.25
  -1   4   9    9.46    2.93
   1  -4  -9   11.41    2.30
   0  -4  -9   -0.27    1.36
   0   4   9    2.82    2.50
   1   4   9   33.04    4.12
  -1  -4  -9   28.26    3.43
  -2  -4  -9    0.63    1.63
   2   4   9    2.18    2.74
  -3  -4  -9   88.40    5.82
   3   4   9   88.32    6.46
  -4  -4  -9   66.74    5.44
   4   4   9   67.75    5.91
   5   4   9   77.43    6.25
  -5  -4  -9   89.72    6.39
   6   4   9    6.60    3.16
  -6  -4  -9    2.17    1.96
  -7  -4  -9   77.82    6.86
   7   4   9   71.33    6.54
  -8  -4  -9    6.22    3.07
  -9  -4  -9    0.61    2.63
 -10  -4  -9    0.08    3.20
 -19   5   9    5.38    3.64
 -18   5   9   -3.08    2.68
 -17   5   9    1.07    2.33
 -16   5   9    8.81    3.40
 -15   5   9   27.23    4.97
 -15   5   9   21.21    4.30
 -14   5   9   -1.39    1.79
 -14   5   9    2.68    3.41
 -13   5   9    6.93    3.70
 -13   5   9    4.34    2.27
 -12   5   9   10.82    3.81
 -12   5   9   12.44    2.84
 -11   5   9   91.37    5.35
 -11   5   9   90.30    6.80
 -10   5   9   10.92    3.61
 -10   5   9    7.46    2.04
  -9   5   9    0.62    0.69
  -9   5   9    0.82    2.97
  -8   5   9   29.51    4.17
  -8   5   9   31.67    2.72
  -7   5   9   11.91    3.04
  -7   5   9   12.97    1.79
  -6   5   9  340.86    8.65
  -6   5   9  329.57   11.85
   5  -5  -9   28.98    3.23
  -5   5   9   29.90    1.74
  -5   5   9   34.42    4.00
  -4   5   9  178.36    4.43
  -4   5   9  169.51    7.87
   4  -5  -9  172.01    7.31
   3  -5  -9   69.62    4.39
  -3   5   9   65.01    5.29
   2  -5  -9    1.72    1.65
  -2   5   9    1.62    2.47
  -1   5   9  173.76    8.26
   1  -5  -9  166.10    7.41
   0  -5  -9   49.41    4.31
   0   5   9   46.01    4.74
   1   5   9   46.80    4.84
  -1  -5  -9   56.37    4.63
   2   5   9  186.49    8.98
  -2  -5  -9  175.82    8.53
  -3  -5  -9   28.31    4.05
   3   5   9   28.25    4.32
  -4  -5  -9  173.99    9.04
   4   5   9  181.47    9.17
   5   5   9   36.62    4.80
  -5  -5  -9   44.50    5.30
   6   5   9    2.82    3.03
  -6  -5  -9    4.39    2.73
  -7  -5  -9   35.54    5.47
  -8  -5  -9    1.79    2.75
  -9  -5  -9   -0.81    3.02
 -10  -5  -9    5.38    4.15
 -19   6   9    8.25    3.72
 -18   6   9    1.30    2.84
 -17   6   9    9.90    3.59
 -16   6   9   49.54    6.40
 -16   6   9   52.76    5.93
 -15   6   9    0.56    2.14
 -15   6   9    1.19    3.44
 -14   6   9   62.34    6.32
 -14   6   9   64.84    5.65
 -13   6   9   -0.43    3.31
 -13   6   9    0.02    1.96
 -12   6   9   43.86    5.46
 -12   6   9   34.36    3.95
 -11   6   9   59.21    4.30
 -11   6   9   52.18    5.64
 -10   6   9   11.08    3.73
 -10   6   9    3.41    1.34
  -9   6   9    0.08    1.21
  -9   6   9   -1.97    2.93
  -8   6   9  139.35    5.39
  -8   6   9  132.23    7.86
  -7   6   9  195.32    6.01
  -7   6   9  172.38    8.67
  -6   6   9  153.02    8.12
  -6   6   9  152.60    4.62
   5  -6  -9  206.19    8.39
  -5   6   9  192.64    9.04
  -4   6   9   12.45    3.25
   4  -6  -9   15.86    2.85
   3  -6  -9    0.20    1.46
  -3   6   9   -2.25    2.32
   2  -6  -9    1.81    1.67
  -2   6   9    3.15    2.74
  -1   6   9   85.36    6.29
   1  -6  -9   92.64    5.67
   0   6   9   73.22    5.85
   0  -6  -9   60.02    4.84
   1   6   9   51.38    5.20
  -1  -6  -9   59.51    5.27
  -2  -6  -9    6.85    2.63
   2   6   9    9.37    3.30
  -3  -6  -9   11.61    3.19
   3   6   9    3.97    2.83
   4   6   9    9.82    3.35
  -4  -6  -9    8.94    3.10
   5   6   9    1.47    2.76
  -5  -6  -9    1.72    2.17
  -6  -6  -9    4.65    2.77
  -7  -6  -9    2.99    2.87
  -8  -6  -9   10.73    4.19
  -9  -6  -9    9.86    4.33
 -10  -6  -9    1.99    4.53
 -19   7   9    1.18    2.36
 -18   7   9   -2.94    2.46
 -17   7   9   41.33    6.52
 -17   7   9   40.59    5.73
 -16   7   9   11.88    3.50
 -16   7   9   15.14    5.03
 -15   7   9   46.45    5.26
 -15   7   9   41.73    6.00
 -14   7   9   10.32    4.12
 -14   7   9    6.02    2.56
 -13   7   9    8.31    2.60
 -13   7   9    8.96    4.01
 -12   7   9   40.47    5.54
 -12   7   9   46.69    4.26
 -11   7   9    2.70    1.45
 -11   7   9    3.78    3.67
 -10   7   9    7.07    1.91
 -10   7   9    1.82    3.48
  -9   7   9  180.97    6.67
  -9   7   9  189.28    9.41
  -8   7   9    7.58    3.49
  -7   7   9   98.17    7.12
  -6   7   9   30.78    4.40
   6  -7  -9   30.79    3.75
   5  -7  -9    6.59    2.21
  -5   7   9    6.02    3.12
  -4   7   9   49.97    5.06
   4  -7  -9   60.66    4.63
  -3   7   9   10.27    3.40
   3  -7  -9   10.07    2.55
   2  -7  -9   -0.78    1.46
  -2   7   9    4.13    3.14
  -1   7   9   50.97    5.07
   1  -7  -9   40.06    4.42
   0   7   9  131.77    7.87
   0  -7  -9  134.65    7.36
  -1  -7  -9   -3.01    1.50
   1   7   9   -1.72    2.85
   2   7   9    5.29    3.03
  -2  -7  -9    4.14    2.38
   3   7   9    3.18    2.78
  -3  -7  -9   -0.52    2.03
   4   7   9    1.60    2.77
  -4  -7  -9   -0.52    2.25
  -5  -7  -9   -1.71    2.18
  -6  -7  -9   13.09    4.17
  -7  -7  -9   14.42    4.42
  -8  -7  -9    2.36    3.19
  -9  -7  -9   16.98    5.39
 -10  -7  -9   10.40    5.78
 -19   8   9    4.37    2.72
 -18   8   9   32.32    5.51
 -17   8   9   21.03    4.46
 -17   8   9   19.88    5.59
 -16   8   9   -1.59    2.03
 -16   8   9    8.68    4.57
 -15   8   9    4.41    3.94
 -15   8   9    6.51    2.78
 -14   8   9    4.11    2.30
 -14   8   9    2.94    3.84
 -13   8   9    2.65    2.17
 -13   8   9    4.85    3.89
 -12   8   9  119.32    8.37
 -12   8   9  104.12    5.71
 -11   8   9    3.72    3.57
 -11   8   9    1.26    1.40
 -10   8   9  141.75    8.96
  -9   8   9    2.90    3.45
  -8   8   9   57.08    5.64
  -7   8   9   40.17    5.16
   6  -8  -9   20.98    3.47
  -6   8   9   14.31    3.97
  -5   8   9   69.79    5.88
   5  -8  -9   59.21    4.77
   4  -8  -9   21.01    3.46
  -4   8   9   33.07    4.57
  -3   8   9    7.52    3.22
   3  -8  -9    9.09    2.63
  -2   8   9   44.36    5.00
   2  -8  -9   43.59    4.63
  -1   8   9   -2.50    2.51
   1  -8  -9   -1.35    1.54
   0  -8  -9  142.14    8.05
   0   8   9  145.85    8.23
   1   8   9  540.18   17.57
  -1  -8  -9  526.29   18.30
  -2  -8  -9   56.20    6.13
   2   8   9   62.22    5.50
  -3  -8  -9   12.32    3.75
   3   8   9   13.06    3.57
  -4  -8  -9    0.63    2.53
  -5  -8  -9    1.57    2.93
  -6  -8  -9    1.98    3.15
  -7  -8  -9   63.71    8.14
  -8  -8  -9   23.25    5.95
  -9  -8  -9   -2.05    4.47
 -19   9   9    1.07    2.72
 -18   9   9   17.15    4.53
 -18   9   9   19.38    5.87
 -17   9   9    8.03    4.61
 -17   9   9    1.81    2.55
 -16   9   9    6.26    4.64
 -16   9   9   -0.83    2.44
 -15   9   9    3.03    4.03
 -15   9   9    0.60    2.32
 -14   9   9    2.26    3.79
 -13   9   9   16.53    4.66
 -12   9   9   24.61    4.97
 -11   9   9   25.20    4.96
 -10   9   9   21.31    4.93
  -9   9   9    2.46    3.72
  -8   9   9    7.83    3.67
  -7   9   9    1.93    3.33
   7  -9  -9    1.90    1.95
   6  -9  -9   22.03    3.69
  -6   9   9   22.06    4.48
  -5   9   9   51.02    5.51
   5  -9  -9   42.67    4.74
   4  -9  -9   13.42    3.16
  -4   9   9    9.37    3.60
  -3   9   9  183.45    9.34
   3  -9  -9  189.69    9.31
   2  -9  -9    1.58    2.06
  -2   9   9    2.61    2.99
   1  -9  -9  175.63    9.30
  -1   9   9  177.33    9.25
   0   9   9   70.56    6.08
   0  -9  -9   64.57    6.25
  -1  -9  -9    9.69    3.14
   1   9   9   13.00    3.76
  -2  -9  -9   60.51    6.63
   2   9   9   68.98    5.86
  -3  -9  -9   34.06    5.67
  -4  -9  -9    2.93    3.21
  -5  -9  -9   12.62    4.47
  -6  -9  -9   22.22    5.69
  -7  -9  -9   50.06    7.93
  -8  -9  -9   -0.54    4.25
 -19  10   9    0.61    5.36
 -18  10   9   -3.95    4.48
 -17  10   9    0.06    4.20
 -16  10   9   11.37    4.81
 -15  10   9    0.36    3.81
 -14  10   9   44.95    6.49
 -13  10   9   21.52    5.15
 -12  10   9   38.44    5.91
 -11  10   9   11.89    4.33
 -10  10   9    3.06    3.69
  -9  10   9   -1.12    3.20
  -8  10   9   86.64    7.05
   7 -10  -9   45.81    5.20
  -7  10   9   47.11    5.74
  -6  10   9  185.03    9.59
   6 -10  -9  155.74    8.65
  -5  10   9    0.67    3.06
   5 -10  -9   -0.10    2.00
   4 -10  -9   68.86    6.09
  -4  10   9   60.26    5.91
  -3  10   9   13.36    3.65
   3 -10  -9   10.89    3.31
  -2  10   9   37.85    4.79
   2 -10  -9   28.30    4.52
  -1  10   9  240.75   10.86
   1 -10  -9  241.15   11.63
   0 -10  -9   30.17    4.94
   0  10   9   37.49    4.95
   1  10   9   22.30    4.20
  -1 -10  -9   19.06    4.51
  -2 -10  -9   90.35    8.23
  -3 -10  -9    6.73    3.27
  -4 -10  -9    3.96    3.85
  -5 -10  -9   -1.39    3.31
  -6 -10  -9   12.31    5.18
  -7 -10  -9    1.13    4.20
 -19  11   9    3.51    5.92
 -18  11   9    3.03    4.81
 -17  11   9   23.57    6.16
 -16  11   9    2.09    4.45
 -15  11   9   47.67    6.97
 -14  11   9    6.61    4.59
 -13  11   9    0.04    3.78
 -12  11   9   -0.74    3.73
 -11  11   9   16.82    4.89
 -10  11   9   -0.61    2.73
  -9  11   9   57.14    6.37
  -8  11   9    0.66    2.92
   8 -11  -9    2.37    2.30
  -7  11   9   65.22    6.52
   7 -11  -9   65.44    6.05
   6 -11  -9    2.97    2.74
  -6  11   9    7.51    3.57
   5 -11  -9    4.08    2.42
  -5  11   9    5.23    3.41
  -4  11   9   10.10    3.59
   4 -11  -9    5.71    2.97
   3 -11  -9   16.63    3.97
  -3  11   9    6.82    3.21
   2 -11  -9    7.65    3.16
  -2  11   9   12.36    3.65
  -1  11   9   24.70    4.43
   1 -11  -9   38.01    5.70
   0  11   9   -2.01    2.52
   0 -11  -9   -0.52    2.42
  -1 -11  -9   59.54    6.92
  -2 -11  -9    1.08    2.77
  -3 -11  -9   -2.58    3.04
  -4 -11  -9   -1.33    3.65
  -5 -11  -9    1.67    4.42
  -6 -11  -9    1.39    4.51
 -18  12   9    6.20    5.72
 -17  12   9   10.92    5.61
 -16  12   9   33.53    6.61
 -15  12   9   -3.98    3.72
 -14  12   9   -5.74    3.50
 -13  12   9   14.30    5.12
 -12  12   9   16.05    4.81
 -11  12   9   14.12    4.60
 -10  12   9   62.49    6.86
  -9  12   9    0.76    3.05
   8 -12  -9    3.15    2.61
  -8  12   9    5.53    3.51
  -7  12   9   12.74    4.09
   7 -12  -9   10.60    3.14
  -6  12   9   12.50    4.07
   6 -12  -9    7.46    3.11
   5 -12  -9    3.06    2.54
  -5  12   9    6.11    3.50
   4 -12  -9   10.11    3.60
  -4  12   9   18.09    4.00
   3 -12  -9   15.03    4.01
   2 -12  -9   34.59    5.49
  -2  12   9   47.60    5.37
  -1  12   9    3.49    2.80
   1 -12  -9   13.36    4.10
   0 -12  -9   47.30    6.56
  -1 -12  -9   12.90    4.07
  -2 -12  -9    0.37    3.33
  -3 -12  -9   -0.14    3.05
  -4 -12  -9    4.06    4.31
  -5 -12  -9   -4.79    3.97
 -17  13   9   -3.82    4.55
 -16  13   9    2.78    4.61
 -15  13   9   -2.34    3.92
 -14  13   9   13.81    5.15
 -13  13   9    4.32    4.36
 -12  13   9   10.09    4.50
 -11  13   9    1.21    3.70
 -10  13   9   38.85    6.17
  -9  13   9   79.86    7.58
   8 -13  -9   90.42    7.84
  -8  13   9   93.98    7.90
  -7  13   9    7.40    3.74
   7 -13  -9   17.12    4.16
  -6  13   9   -0.49    2.98
   6 -13  -9    5.84    3.36
  -5  13   9    2.66    3.27
   5 -13  -9    0.56    2.80
   4 -13  -9    5.58    3.53
  -4  13   9    6.02    3.19
  -3  13   9   40.61    5.31
   3 -13  -9   49.92    6.58
   2 -13  -9   -2.18    2.67
  -2  13   9    6.53    3.33
   1 -13  -9    1.43    3.05
   0 -13  -9   12.84    4.62
  -1 -13  -9    8.12    4.34
  -2 -13  -9   -3.76    2.90
  -3 -13  -9   34.60    7.04
 -16  14   9    3.74    5.08
 -15  14   9    0.14    4.42
 -14  14   9    9.40    5.00
 -13  14   9    3.80    4.35
 -12  14   9   21.36    5.71
 -11  14   9   21.71    5.53
 -10  14   9   60.30    7.30
  -9  14   9    5.37    3.75
  -8  14   9   27.20    5.41
   8 -14  -9   23.69    5.22
   7 -14  -9    2.93    3.22
  -7  14   9    7.83    3.75
   6 -14  -9   21.44    5.10
  -6  14   9   18.91    4.61
  -5  14   9    0.46    2.96
   5 -14  -9    3.65    3.36
  -4  14   9   36.05    5.31
   4 -14  -9   25.09    5.46
  -3  14   9    2.01    2.96
   3 -14  -9   -0.19    3.12
   2 -14  -9   48.29    7.18
   1 -14  -9    3.12    3.81
   0 -14  -9    1.81    4.17
  -1 -14  -9    3.30    4.08
  -2 -14  -9    8.99    4.77
 -15  15   9   25.68    6.65
 -14  15   9   -2.35    1.19
 -13  15   9   -0.70    3.82
 -12  15   9   -0.32    4.00
 -10  15   9    7.18    4.46
   9 -15  -9   -0.35    3.07
  -9  15   9   -3.39    3.16
  -8  15   9    3.12    3.45
   8 -15  -9    2.41    3.35
   7 -15  -9   47.67    6.78
  -7  15   9   44.12    6.28
  -6  15   9    5.93    3.63
   6 -15  -9   10.95    4.45
  -5  15   9    2.55    3.10
   5 -15  -9    0.67    3.35
  -4  15   9    2.00    3.09
   4 -15  -9    1.95    3.35
   3 -15  -9    2.91    3.55
   2 -15  -9   10.05    4.93
   1 -15  -9    0.40    3.65
   0 -15  -9    2.92    4.45
 -14  16   9   -2.59    1.86
 -13  16   9   -3.05    1.27
 -12  16   9    0.05    2.71
 -11  16   9   -0.96    4.12
 -10  16   9    0.80    3.67
  -9  16   9   14.37    4.95
   9 -16  -9    1.44    2.88
  -8  16   9   35.28    6.19
   8 -16  -9   21.71    5.55
   7 -16  -9    2.09    3.70
  -7  16   9    6.04    3.78
   6 -16  -9    2.68    3.93
  -6  16   9    6.42    3.68
   5 -16  -9    4.86    4.01
  -5  16   9   16.33    4.33
   4 -16  -9    1.33    3.67
   3 -16  -9   -1.25    3.90
   2 -16  -9    6.84    4.28
 -13  17   9   -0.54    1.99
 -12  17   9    3.68    2.26
 -11  17   9    1.20    1.85
 -10  17   9    8.92    4.67
  -9  17   9   37.43    6.45
   8 -17  -9   -0.23    1.90
  -8  17   9    5.71    3.80
  -7  17   9    2.89    3.83
   7 -17  -9    2.91    3.45
   6 -17  -9    1.73    4.31
   5 -17  -9    5.56    4.69
 -11  18   9    2.99    4.89
 -10  18   9   22.79    6.42
  -9  18   9    5.03    4.65
  -8  18   9   23.01    5.46
   0 -18  10   24.61    6.48
   1 -18  10    0.11    3.95
   2 -18  10   17.77    5.17
   3 -18  10    4.16    4.20
   4 -18  10   10.58    4.84
   5 -18  10    2.00    3.93
   6 -18  10   10.86    4.94
  -3 -17  10    6.14    5.00
  -2 -17  10    1.54    4.13
  -1 -17  10   27.98    5.87
   0 -17  10   -0.66    3.55
   1 -17  10   -4.01    3.24
   2 -17  10   -2.59    3.00
   3 -17  10   -3.83    2.97
   4 -17  10    1.20    3.65
   5 -17  10   28.66    5.73
   6 -17  10    0.02    3.67
   7 -17  10   12.81    4.95
  -7  17 -10    7.90    5.03
  -8  17 -10   10.53    5.17
  -9  17 -10   11.35    6.50
  -5 -16  10    0.85    3.86
  -4 -16  10    1.76    3.57
  -3 -16  10    3.74    3.80
  -2 -16  10   26.75    5.43
  -1 -16  10   12.24    4.00
   0 -16  10    3.47    3.43
   1 -16  10   -2.01    2.94
   2 -16  10    0.41    2.87
   3 -16  10   -3.43    2.58
   4 -16  10   -3.31    2.78
   5 -16  10   -1.58    3.08
  -6  16 -10    5.52    4.26
   6 -16  10    6.61    3.82
   7 -16  10   30.18    5.63
  -7  16 -10   18.13    5.72
  -8  16 -10   10.37    5.34
  -9  16 -10   -5.26    3.92
 -10  16 -10    0.69    5.22
  -7 -15  10    3.31    4.14
  -6 -15  10    2.06    3.92
  -5 -15  10    5.29    3.74
  -4 -15  10    3.78    3.45
  -3 -15  10   40.86    5.87
  -2 -15  10    2.03    3.29
  -1 -15  10    4.83    3.46
   0 -15  10    3.30    2.91
   1 -15  10   17.17    4.26
   2 -15  10    8.89    3.55
   3 -15  10    8.19    3.37
   4 -15  10   33.51    5.23
  -5  15 -10   26.19    5.69
   5 -15  10   16.84    4.23
  -6  15 -10   -2.57    3.64
   6 -15  10    8.45    3.96
  -7  15 -10    5.54    4.35
   7 -15  10    2.30    3.47
  -8  15 -10   -2.68    3.53
  -9  15 -10    6.53    4.63
 -10  15 -10    0.77    2.59
  -8 -14  10    9.27    4.13
  -7 -14  10   -2.58    3.02
  -6 -14  10    2.09    3.25
  -5 -14  10    3.82    3.33
  -4 -14  10   60.06    6.57
  -3 -14  10    3.58    3.00
  -2 -14  10    2.03    3.04
  -1 -14  10   32.53    5.04
   0 -14  10    3.42    2.98
   1 -14  10    0.60    2.80
   2 -14  10   68.31    6.40
   3 -14  10   20.29    4.25
  -4  14 -10   58.16    7.00
   4 -14  10   47.20    5.77
   5 -14  10    4.96    2.87
  -5  14 -10   -2.70    3.96
   6 -14  10   -0.79    2.44
  -6  14 -10    5.49    4.02
  -7  14 -10   -2.25    3.42
   7 -14  10   -1.25    2.83
  -8  14 -10    5.39    4.24
  -9  14 -10   11.99    5.17
 -10  14 -10   -1.68    2.38
 -11  14 -10   -4.70    2.42
  -9 -13  10   16.33    4.58
  -8 -13  10   -1.36    2.70
  -7 -13  10   24.10    4.78
  -6 -13  10   -2.74    2.59
  -5 -13  10   11.72    3.81
  -4 -13  10    5.74    2.94
  -3 -13  10    0.35    2.39
  -2 -13  10    2.50    3.04
  -1 -13  10   94.10    6.79
   0 -13  10    2.69    2.87
   1 -13  10  120.90    7.53
   2 -13  10    3.03    2.67
  -3  13 -10   42.08    6.04
   3 -13  10   41.32    5.20
  -4  13 -10    1.62    3.71
   4 -13  10    5.78    3.04
  -5  13 -10   -0.99    3.24
   5 -13  10   -1.41    2.27
   6 -13  10    4.11    2.84
  -6  13 -10   -0.88    3.61
   7 -13  10    2.84    2.89
  -7  13 -10   -2.64    3.50
  -8  13 -10   16.45    5.27
  -9  13 -10    2.79    4.16
 -10  13 -10   -0.24    3.83
 -11  13 -10   -3.24    1.85
 -12  13 -10    0.20    2.62
 -11 -12  10   11.43    4.82
 -10 -12  10   19.27    4.67
 -10 -12  10   12.47    4.37
  -9 -12  10    2.95    3.22
  -9 -12  10    4.21    3.07
  -8 -12  10    6.69    3.38
  -7 -12  10    1.44    2.65
  -6 -12  10    9.27    3.39
  -5 -12  10    7.48    3.29
  -4 -12  10    6.01    2.98
  -3 -12  10   13.41    3.62
  -2 -12  10   65.55    5.98
  -1 -12  10   10.37    3.25
   0 -12  10    4.69    2.70
   1 -12  10    5.61    2.82
   2 -12  10    1.41    2.36
  -2  12 -10   -3.34    2.56
   3 -12  10   39.90    4.90
  -3  12 -10   44.03    6.19
  -4  12 -10   15.21    4.64
   4 -12  10   14.38    3.40
  -5  12 -10    4.62    3.86
   5 -12  10    3.20    2.61
  -6  12 -10   -3.51    3.35
   6 -12  10    2.19    2.51
  -7  12 -10   28.63    5.94
   7 -12  10   26.95    4.71
  -8  12 -10    1.22    3.61
  -9  12 -10    3.11    4.01
 -10  12 -10    7.60    4.38
 -11  12 -10    0.25    3.05
 -12  12 -10   -2.86    2.59
 -11 -11  10    5.80    3.46
 -10 -11  10   15.26    4.18
 -10 -11  10   17.81    4.47
  -9 -11  10   16.13    4.16
  -9 -11  10    7.64    3.16
  -8 -11  10    0.59    2.67
  -8 -11  10    4.07    2.93
  -7 -11  10    2.39    2.31
  -7 -11  10    1.90    2.33
  -6 -11  10    3.56    2.65
  -5 -11  10    1.76    2.31
  -4 -11  10    9.56    3.10
  -3 -11  10   39.46    4.83
  -2 -11  10   -1.76    2.02
  -1 -11  10    4.15    2.46
   0 -11  10    4.93    2.54
   1 -11  10    7.06    2.77
  -1  11 -10    4.25    2.73
  -2  11 -10    0.15    2.56
   2 -11  10   -0.88    2.00
   3 -11  10   21.46    3.76
  -3  11 -10   30.74    5.08
  -4  11 -10   20.91    4.71
  -5  11 -10    5.09    3.39
   5 -11  10    9.93    3.04
   6 -11  10   35.43    4.87
  -6  11 -10   28.42    5.50
  -7  11 -10   27.14    5.61
   7 -11  10   30.53    4.72
  -8  11 -10   -0.26    3.30
  -9  11 -10   15.29    4.98
 -10  11 -10    5.20    4.18
 -11  11 -10    4.12    4.11
 -12  11 -10    8.32    5.55
 -12 -10  10   15.55    4.55
 -11 -10  10    7.45    3.61
 -10 -10  10   28.35    5.07
  -9 -10  10    8.69    2.98
  -8 -10  10    2.71    2.22
  -7 -10  10   14.55    3.44
  -7 -10  10   10.84    3.29
  -6 -10  10   64.24    5.90
  -6 -10  10   57.71    5.59
  -5 -10  10    2.95    2.36
  -4 -10  10   94.00    6.58
  -3 -10  10   33.82    4.47
  -2 -10  10    3.32    2.18
  -1 -10  10    6.91    2.59
   0  10 -10    1.12    1.93
   0 -10  10    2.72    2.36
   1 -10  10   28.29    3.98
  -1  10 -10   27.86    4.33
   2 -10  10   -1.13    1.70
  -2  10 -10    0.68    2.42
  -3  10 -10    0.90    2.75
   3 -10  10    7.06    2.53
   4 -10  10   17.42    3.49
  -4  10 -10   14.05    4.11
   5 -10  10   12.98    3.38
  -5  10 -10   16.90    4.48
  -6  10 -10   53.45    6.75
   6 -10  10   51.70    5.41
  -7  10 -10   21.38    5.31
  -8  10 -10   -1.52    2.83
  -9  10 -10   -3.26    3.04
 -10  10 -10    9.30    4.37
 -11  10 -10    0.13    4.14
 -12  10 -10   17.35    5.92
 -13  10 -10    5.22    5.24
 -13  -9  10   14.24    4.13
 -12  -9  10   13.69    3.97
 -11  -9  10   21.16    4.49
 -10  -9  10    2.00    2.37
  -9  -9  10    5.33    2.80
  -8  -9  10   28.30    4.37
  -7  -9  10   43.23    4.97
  -6  -9  10   20.60    3.86
  -5  -9  10   -0.46    1.69
  -5  -9  10    0.29    1.78
  -4  -9  10   15.05    3.36
  -3  -9  10    5.92    2.52
  -2  -9  10    0.20    1.83
   1   9 -10    8.24    2.32
  -1  -9  10   13.00    3.02
   0   9 -10    2.59    2.18
   0  -9  10    2.20    2.21
   0   9 -10   -1.36    1.90
  -1   9 -10   37.12    4.75
   1  -9  10   59.42    4.97
  -1   9 -10   48.54    4.82
   2  -9  10   58.26    5.05
  -2   9 -10   56.04    5.72
  -2   9 -10   62.80    5.54
  -3   9 -10    9.04    3.12
  -3   9 -10    7.95    3.34
   3  -9  10    7.25    2.57
  -4   9 -10   14.22    3.69
   4  -9  10    6.07    2.70
  -4   9 -10   13.24    3.91
  -5   9 -10    3.45    2.59
   5  -9  10   -1.05    1.93
  -5   9 -10   -1.90    2.18
  -6   9 -10   29.23    5.48
   6  -9  10   23.04    4.02
  -7   9 -10   11.98    4.19
  -8   9 -10    7.77    3.64
  -9   9 -10   68.72    8.09
 -10   9 -10   -1.23    3.46
 -11   9 -10   10.46    5.07
 -12   9 -10    4.33    4.34
 -13   9 -10   -2.32    4.43
 -13  -8  10   16.43    4.33
 -12  -8  10   13.45    4.11
 -11  -8  10    0.93    2.59
 -10  -8  10   -3.39    1.93
  -9  -8  10   81.94    6.67
  -8  -8  10    7.08    2.57
  -7  -8  10    7.83    2.53
  -6  -8  10   21.04    3.86
  -5  -8  10    3.64    2.33
  -4  -8  10   14.49    3.06
  -4  -8  10   14.38    2.80
  -3  -8  10   68.59    5.11
  -2  -8  10   81.31    5.48
   2   8 -10   72.19    4.64
   2   8 -10   67.16    4.92
   1   8 -10   14.62    2.86
  -1  -8  10   22.97    3.53
   1   8 -10   15.81    2.77
   0  -8  10  231.06    9.18
   0   8 -10  228.38   10.06
   0   8 -10  218.39    8.81
  -1   8 -10    6.85    2.45
  -1   8 -10    2.51    2.29
   1  -8  10    6.54    2.34
  -2   8 -10   69.41    5.68
   2  -8  10   67.53    5.07
  -2   8 -10   71.34    6.23
  -3   8 -10    7.83    2.92
  -3   8 -10    3.88    2.79
   3  -8  10    5.29    2.33
   4  -8  10   47.15    4.76
  -4   8 -10   38.09    4.95
  -4   8 -10   46.98    5.63
   5  -8  10    3.91    2.46
  -5   8 -10    3.27    2.72
  -5   8 -10    3.19    2.67
  -6   8 -10   41.63    5.41
  -6   8 -10   32.50    5.31
   6  -8  10   40.11    4.71
  -7   8 -10    0.63    2.59
  -7   8 -10   -3.20    2.28
  -8   8 -10   29.54    5.73
  -9   8 -10   -6.34    2.67
 -10   8 -10    1.12    3.58
 -11   8 -10    0.15    3.71
 -12   8 -10   -4.18    3.78
 -13   8 -10    9.67    5.34
 -14  -7  10    3.55    3.21
 -13  -7  10    6.78    3.48
 -12  -7  10    1.11    2.42
 -11  -7  10   11.30    3.41
 -10  -7  10   22.93    4.01
  -9  -7  10   14.86    3.28
  -8  -7  10    6.33    2.42
  -7  -7  10    5.68    2.29
  -6  -7  10    1.17    1.91
  -5  -7  10    3.41    2.04
  -4  -7  10   68.49    5.07
  -3  -7  10    9.16    2.48
   3   7 -10   11.69    2.61
   3   7 -10    9.94    2.26
  -3  -7  10   10.25    2.10
  -2  -7  10   50.57    4.32
  -1  -7  10  150.97    7.06
   1   7 -10  164.51    7.01
   0  -7  10    1.85    1.90
   0   7 -10   -1.80    1.82
   0   7 -10   -0.45    2.19
  -1   7 -10   59.34    4.88
  -1   7 -10   48.70    5.04
   1  -7  10   46.72    4.15
  -2   7 -10   44.88    5.08
   2  -7  10   40.02    4.05
  -2   7 -10   37.16    4.33
   3  -7  10   13.26    2.96
  -3   7 -10   21.41    4.09
  -3   7 -10   16.45    3.39
  -4   7 -10    6.80    2.77
   4  -7  10    9.67    2.66
  -4   7 -10    8.24    3.19
  -5   7 -10   12.82    3.61
   5  -7  10   10.51    2.89
  -5   7 -10    4.60    2.67
  -6   7 -10    1.03    2.28
  -6   7 -10    2.58    2.43
  -7   7 -10    5.70    3.09
  -7   7 -10    8.92    3.49
  -8   7 -10   92.18    8.21
  -8   7 -10   86.90    7.34
  -9   7 -10   31.71    5.92
  -9   7 -10   41.26    5.82
 -10   7 -10   -1.20    3.09
 -11   7 -10    6.90    4.09
 -12   7 -10    2.83    3.79
 -13   7 -10   -1.64    4.17
 -14   7 -10    2.76    5.05
 -15  -6  10   -3.23    2.47
 -14  -6  10   -1.02    2.25
 -13  -6  10    1.83    2.67
 -12  -6  10    3.70    2.66
 -11  -6  10   -0.04    2.12
 -10  -6  10   92.95    6.53
  -9  -6  10    0.26    2.13
  -8  -6  10   42.17    4.56
  -7  -6  10   27.98    3.90
  -6  -6  10    1.10    1.78
  -5  -6  10    0.85    1.58
  -4  -6  10  116.55    5.68
  -4  -6  10  131.58    6.45
  -3  -6  10   41.48    3.84
  -3  -6  10   31.15    3.48
  -2  -6  10  180.54    7.49
  -2  -6  10  183.77    7.70
  -1  -6  10  115.52    5.88
  -1  -6  10  121.69    6.24
   0  -6  10   24.85    3.65
   0  -6  10   17.31    2.81
   1  -6  10   16.75    2.85
   1  -6  10   16.42    3.58
   2  -6  10  105.53    5.74
   2  -6  10  101.73    6.91
   3  -6  10    9.44    2.52
  -4   6 -10   31.66    4.33
   4  -6  10   28.21    3.83
  -4   6 -10   27.09    4.61
  -5   6 -10   25.18    4.10
   5  -6  10   25.27    3.60
  -5   6 -10   20.03    4.16
  -6   6 -10  164.13    8.75
  -6   6 -10  157.89    9.53
  -7   6 -10   75.45    7.28
  -7   6 -10   73.22    6.45
  -8   6 -10    8.05    3.24
  -8   6 -10    6.50    3.25
  -9   6 -10   -3.48    2.62
  -9   6 -10    4.99    3.13
 -10   6 -10    3.73    3.48
 -10   6 -10    4.25    3.26
 -11   6 -10   -0.16    3.57
 -12   6 -10   12.04    5.19
 -13   6 -10   -3.70    3.74
 -14   6 -10    4.77    5.64
 -15  -5  10    0.18    2.64
 -14  -5  10   -0.60    2.38
 -13  -5  10   15.86    3.78
 -12  -5  10   23.43    4.25
 -11  -5  10   24.72    4.09
 -10  -5  10    0.90    1.68
  -9  -5  10   32.41    4.13
  -8  -5  10  137.66    7.22
  -7  -5  10  119.39    6.48
  -6  -5  10   18.11    3.02
  -5  -5  10  120.09    5.45
  -5  -5  10  111.11    6.03
  -4  -5  10   16.89    2.82
  -4  -5  10   17.33    2.75
  -3  -5  10   62.72    4.40
  -3  -5  10   66.21    4.52
  -2  -5  10  165.09    7.25
  -2  -5  10  185.62    7.41
  -2  -5  10  178.82    5.67
  -1  -5  10    3.37    1.76
  -1  -5  10    6.08    2.59
   0  -5  10   11.76    3.15
   0  -5  10   13.25    2.47
   1  -5  10   70.51    4.68
   1  -5  10   64.83    5.48
   2  -5  10   55.51    4.94
   2  -5  10   61.62    4.31
   3  -5  10  181.03    9.07
   3  -5  10  185.36    7.96
   4  -5  10    6.27    2.42
   4  -5  10    5.43    3.67
  -6   5 -10   -0.87    2.48
  -6   5 -10   -1.94    1.92
  -7   5 -10    1.15    2.15
  -7   5 -10   -1.29    2.22
  -8   5 -10   -0.78    2.55
  -8   5 -10    4.25    2.50
  -9   5 -10    2.91    3.14
  -9   5 -10    1.58    2.36
 -10   5 -10    2.10    3.29
 -10   5 -10    3.57    3.13
 -11   5 -10   -3.00    2.94
 -12   5 -10    1.40    4.24
 -13   5 -10    1.65    4.27
 -14   5 -10  -10.87    4.71
 -16  -4  10    1.00    3.13
 -15  -4  10    6.70    3.26
 -14  -4  10    2.18    2.46
 -13  -4  10    9.03    3.03
 -12  -4  10    5.84    2.47
 -11  -4  10   -1.10    1.75
 -10  -4  10    9.12    2.63
  -9  -4  10    5.59    2.37
  -8  -4  10  241.20    9.69
  -7  -4  10   57.94    4.38
  -6  -4  10   88.82    4.71
  -6  -4  10   84.29    5.22
  -5  -4  10   44.39    3.55
  -5  -4  10   54.01    4.05
  -4  -4  10   50.67    3.96
  -4  -4  10   37.36    3.36
  -3  -4  10    0.60    1.44
  -3  -4  10    0.95    2.02
  -2  -4  10    7.03    1.91
  -2  -4  10    6.20    2.51
  -1  -4  10   18.39    2.52
  -1  -4  10   24.64    3.37
   0  -4  10   18.39    2.62
   0  -4  10   22.23    3.40
   1  -4  10    1.51    1.73
   1  -4  10   -2.17    2.47
   2  -4  10  182.38    7.46
   2  -4  10  187.43    8.83
   3  -4  10   12.89    2.69
   3  -4  10   12.52    3.76
   4  -4  10    0.26    1.70
   4  -4  10    2.22    3.18
   5  -4  10   45.73    5.52
  -7   4 -10   21.64    4.71
  -7   4 -10   15.40    3.68
  -8   4 -10   39.49    5.25
  -8   4 -10   44.24    6.06
  -9   4 -10    5.63    3.00
  -9   4 -10   10.09    3.78
 -10   4 -10    2.14    2.92
 -10   4 -10   -2.54    2.43
 -11   4 -10   -0.76    3.28
 -11   4 -10    5.06    4.03
 -12   4 -10   -1.52    3.64
 -13   4 -10    6.60    4.81
 -14   4 -10    2.09    5.97
 -16  -3  10   21.27    4.96
 -15  -3  10    3.75    2.85
 -14  -3  10   11.38    3.36
 -13  -3  10    4.44    2.54
 -12  -3  10   -2.66    1.75
 -11  -3  10   -0.29    1.79
 -10  -3  10   56.03    4.93
  -9  -3  10    6.15    2.20
  -8  -3  10   87.15    5.38
  -7  -3  10  168.36    6.49
  -7  -3  10  155.74    7.06
  -6  -3  10  159.66    7.04
  -6  -3  10  154.05    6.35
  -5  -3  10    3.34    2.00
  -5  -3  10    0.08    1.31
  -4  -3  10   17.76    2.66
  -4  -3  10   19.67    2.66
  -3  -3  10   47.95    3.59
  -3  -3  10   54.79    4.30
  -2  -3  10   41.78    3.89
  -2  -3  10   38.68    3.25
  -1  -3  10  160.24    7.30
  -1  -3  10  168.06    6.56
   0  -3  10   30.32    2.97
   0  -3  10   34.53    3.94
   1  -3  10  209.82    8.96
   1  -3  10  191.77    7.39
   2  -3  10    7.78    2.23
   2  -3  10    6.06    3.18
   3  -3  10  244.98    8.91
   3  -3  10  240.90   10.48
   4  -3  10    0.86    2.73
   5  -3  10    4.49    3.48
   6  -3  10    2.29    3.52
  -8   3 -10    1.40    2.33
  -8   3 -10    2.74    2.83
  -9   3 -10   21.85    4.37
  -9   3 -10   23.96    5.05
 -10   3 -10    7.39    3.76
 -10   3 -10    5.75    3.33
 -11   3 -10   13.98    4.89
 -11   3 -10    2.73    3.77
 -12   3 -10   -1.50    3.57
 -12   3 -10    3.10    3.76
 -13   3 -10    8.00    5.17
 -17  -2  10   -2.06    1.59
 -16  -2  10    1.72    2.29
 -15  -2  10    5.33    2.93
 -14  -2  10    0.62    2.11
 -13  -2  10   -1.66    1.86
 -12  -2  10    4.05    2.36
 -11  -2  10   57.15    5.13
 -10  -2  10   34.71    4.03
  -9  -2  10   84.01    5.27
  -8  -2  10    2.48    1.84
  -8  -2  10    4.20    2.24
  -7  -2  10   74.53    4.63
  -7  -2  10   77.56    4.73
  -6  -2  10    2.86    1.54
  -6  -2  10    0.65    1.89
  -5  -2  10    7.15    2.30
  -5  -2  10   11.26    2.17
  -4  -2  10  132.37    6.13
  -4  -2  10  127.23    5.55
  -3  -2  10   54.16    3.54
  -3  -2  10   49.41    4.03
  -2  -2  10  454.07   12.35
  -2  -2  10  453.49   13.79
  -1  -2  10    6.45    1.74
  -1  -2  10   12.84    2.88
   0  -2  10  247.34    8.27
   0  -2  10  247.89    9.56
   1  -2  10    2.58    1.57
   1  -2  10    2.44    2.50
   2  -2  10    9.86    2.22
   2  -2  10    5.87    2.97
   3  -2  10   -0.63    2.77
   4  -2  10   10.24    3.79
   5  -2  10   34.00    5.00
   6  -2  10  268.90   11.91
   7  -2  10   88.80    7.22
  -9   2 -10    2.01    3.00
  -9   2 -10    2.86    2.78
 -10   2 -10    4.52    3.56
 -10   2 -10    0.44    3.01
 -11   2 -10    9.26    4.24
 -11   2 -10   -0.13    3.13
 -12   2 -10   29.49    6.41
 -12   2 -10   20.49    5.44
 -17  -1  10   -1.69    1.51
 -16  -1  10   -0.67    2.61
 -15  -1  10    0.91    2.19
 -14  -1  10    0.09    2.13
 -13  -1  10   48.57    5.30
 -12  -1  10   86.31    5.90
 -11  -1  10  130.97    7.15
 -10  -1  10   52.23    4.65
  -9  -1  10  217.67    8.69
  -9  -1  10  220.75    8.35
  -8  -1  10   32.02    3.46
  -8  -1  10   32.22    3.40
  -7  -1  10    3.62    2.15
  -7  -1  10   -0.42    1.34
  -6  -1  10   39.10    3.60
  -6  -1  10   40.10    3.28
  -5  -1  10   16.00    2.78
  -5  -1  10   22.06    2.50
  -4  -1  10  105.33    5.77
  -4  -1  10  107.34    4.83
  -3  -1  10   71.70    4.70
  -3  -1  10   62.86    3.68
  -2  -1  10    6.82    1.65
  -2  -1  10    8.27    2.58
  -1  -1  10   49.45    4.12
  -1  -1  10   55.25    3.40
   0  -1  10   49.08    4.41
   0  -1  10   43.45    3.21
   0   1 -10   51.33    2.31
   1  -1  10  215.45    7.51
  -1   1 -10  222.33    6.27
   1  -1  10  209.13    9.19
  -2   1 -10    6.23    1.45
   2  -1  10    6.32    1.79
   2  -1  10    3.00    2.77
   3  -1  10    9.54    3.42
   4  -1  10   70.60    5.90
   5  -1  10   50.90    5.77
   6  -1  10  118.00    8.05
   7  -1  10    1.00    3.27
   8  -1  10    6.16    3.80
  -9   1 -10   21.73    5.00
  -9   1 -10   17.83    4.24
 -10   1 -10    9.93    3.43
 -10   1 -10    4.69    3.46
 -11   1 -10   10.48    4.34
 -11   1 -10   14.80    4.29
 -18   0  10   -0.52    2.05
 -17   0  10   -0.81    1.80
 -16   0  10    2.27    2.93
 -15   0  10   24.45    4.50
 -14   0  10   57.32    5.90
 -13   0  10  117.15    7.25
 -12   0  10    5.97    2.35
 -11   0  10    7.42    2.31
 -10   0  10    7.20    2.75
 -10   0  10    5.35    2.12
  -9   0  10   -0.22    1.26
  -9   0  10    3.12    2.43
  -8   0  10   13.74    2.76
  -8   0  10    9.86    2.17
  -7   0  10  193.45    7.71
  -7   0  10  176.03    7.10
  -6   0  10  120.88    6.13
  -6   0  10  124.55    5.43
  -5   0  10    0.86    1.10
  -5   0  10    1.94    2.10
  -4   0  10    3.28    2.22
  -4   0  10    1.26    1.13
  -3   0  10   83.77    3.96
  -3   0  10   93.15    5.50
  -2   0  10   16.84    2.85
  -2   0  10   17.05    2.00
  -1   0  10    2.36    2.45
  -1   0  10    5.62    1.41
   1   0 -10    5.51    1.21
   0   0  10    9.17    2.72
   0   0 -10   11.42    1.58
   0   0  10   11.10    1.84
   1   0  10  175.95    6.33
   1   0  10  170.57    8.19
  -1   0 -10  178.38    5.96
  -2   0 -10   24.64    2.46
   2   0  10   18.97    3.65
  -3   0 -10   57.00    3.73
   3   0  10   60.87    5.53
  -4   0 -10    3.10    1.77
   4   0  10    3.66    3.27
   5   0  10   70.19    6.24
   6   0  10    1.14    3.29
   7   0  10    1.20    2.97
   8   0  10   16.51    4.50
 -10   0 -10    9.02    3.96
 -10   0 -10    4.28    3.79
 -18   1  10   -1.19    1.68
 -17   1  10    0.85    2.76
 -16   1  10   50.18    6.22
 -15   1  10    1.29    2.44
 -14   1  10  102.04    6.95
 -13   1  10    4.44    2.39
 -12   1  10   -0.16    1.67
 -11   1  10    6.12    2.32
 -11   1  10    4.99    2.92
 -10   1  10   -1.10    1.38
 -10   1  10   -0.81    2.53
  -9   1  10   -0.28    1.35
  -9   1  10    0.24    2.39
  -8   1  10  316.44   10.12
  -8   1  10  299.18   10.71
  -7   1  10   -2.22    0.84
  -7   1  10    3.35    2.13
  -6   1  10    0.29    1.19
  -6   1  10    1.27    2.04
  -5   1  10   24.87    3.31
  -5   1  10   21.76    2.20
  -4   1  10   13.18    2.84
  -3   1  10    3.27    1.12
  -3   1  10    1.96    2.27
  -2   1  10  284.97   10.55
  -2   1  10  291.51    8.17
   2  -1 -10  282.05    8.45
   1  -1 -10   84.94    3.91
  -1   1  10   82.28    5.56
  -1   1  10   91.77    3.95
   0   1  10  102.90    4.33
   0  -1 -10   98.08    4.35
   0   1  10  103.57    6.06
   1   1  10  123.98    6.96
  -1  -1 -10  112.98    5.02
  -2  -1 -10   22.93    2.64
   2   1  10   23.78    3.94
   3   1  10   75.67    6.07
  -3  -1 -10   73.38    4.46
   4   1  10    3.78    3.14
  -4  -1 -10    0.01    1.50
   5   1  10   11.86    3.82
  -5  -1 -10    7.19    2.23
   6   1  10   -1.35    2.92
   7   1  10    6.31    3.48
   8   1  10    0.62    3.27
 -18   2  10    0.66    1.39
 -17   2  10   -1.13    2.62
 -16   2  10    2.89    2.74
 -15   2  10   67.68    6.64
 -14   2  10   36.94    4.93
 -13   2  10    7.18    2.78
 -12   2  10   18.77    3.89
 -12   2  10   20.68    3.52
 -11   2  10    2.81    2.98
 -11   2  10    1.03    1.69
 -10   2  10    2.85    1.71
 -10   2  10    0.38    2.88
  -9   2  10   49.74    3.71
  -9   2  10   40.58    4.37
  -8   2  10   15.30    2.40
  -8   2  10   19.63    3.30
  -7   2  10    9.24    1.81
  -7   2  10    8.07    2.71
  -6   2  10   57.17    3.11
  -5   2  10   -0.08    2.07
  -5   2  10    0.70    1.01
  -4   2  10   52.35    4.44
  -4   2  10   45.85    2.78
  -3   2  10   20.99    3.34
  -3   2  10   29.26    2.18
  -2   2  10    5.25    2.55
  -2   2  10    7.02    1.43
   2  -2 -10    6.02    1.65
  -1   2  10   44.03    4.35
  -1   2  10   37.97    2.53
   1  -2 -10   33.23    2.75
   0  -2 -10   24.99    2.59
   0   2  10   21.66    3.56
  -1  -2 -10    9.41    2.14
   1   2  10   10.72    3.23
  -2  -2 -10  155.40    6.81
   2   2  10  142.66    8.03
  -3  -2 -10    0.02    1.45
   3   2  10   -0.35    2.76
   4   2  10    5.48    3.34
  -4  -2 -10    6.99    2.25
  -5  -2 -10   15.71    3.21
   5   2  10   16.81    3.96
  -6  -2 -10    1.58    2.10
   6   2  10    2.96    3.04
   8   2  10   39.61    5.39
   9   2  10    1.69    3.68
 -19   3  10    0.34    2.03
 -18   3  10    0.84    2.08
 -17   3  10    6.12    3.08
 -16   3  10   17.09    4.06
 -15   3  10   13.15    3.59
 -14   3  10    4.60    2.52
 -13   3  10   92.88    6.35
 -13   3  10  106.73    7.20
 -12   3  10    0.13    1.73
 -12   3  10    7.18    3.27
 -11   3  10   20.24    3.98
 -11   3  10   18.10    3.08
 -10   3  10   45.97    4.83
 -10   3  10   44.89    3.87
  -9   3  10   16.90    3.51
  -9   3  10    7.51    1.95
  -8   3  10   47.44    3.33
  -8   3  10   51.13    4.66
  -7   3  10   15.00    3.09
  -6   3  10    0.76    2.20
  -6   3  10    1.95    1.09
  -5   3  10   16.47    1.70
  -5   3  10   21.58    3.46
  -4   3  10    0.90    0.98
  -4   3  10   -0.80    2.29
   3  -3 -10    2.79    1.56
  -3   3  10   -0.10    2.22
  -3   3  10    1.59    1.01
  -2   3  10   43.14    2.36
   2  -3 -10   38.36    3.08
  -2   3  10   36.06    3.98
  -1   3  10   44.12    4.55
   1  -3 -10   47.76    3.35
   0  -3 -10  127.80    5.88
   0   3  10  134.40    7.40
  -1  -3 -10    3.03    1.63
   1   3  10   10.83    3.32
   2   3  10    4.22    3.10
  -2  -3 -10    4.29    2.04
   3   3  10   -0.51    2.75
  -3  -3 -10    0.88    1.75
  -4  -3 -10  178.50    8.51
   4   3  10  176.33    9.13
  -5  -3 -10    0.57    1.88
   5   3  10   -0.14    3.00
   6   3  10   24.76    4.42
  -6  -3 -10   23.90    4.04
  -7  -3 -10   78.20    6.46
   7   3  10   88.65    7.39
   8   3  10    1.72    3.23
 -19   4  10    8.67    3.86
 -18   4  10    3.41    3.08
 -17   4  10    1.56    2.43
 -16   4  10   -1.51    2.23
 -15   4  10    4.73    2.76
 -14   4  10    8.29    2.82
 -14   4  10   12.50    3.90
 -13   4  10   55.38    5.72
 -13   4  10   61.50    5.35
 -12   4  10    5.32    2.36
 -12   4  10    5.64    3.43
 -11   4  10   56.18    4.57
 -11   4  10   59.67    5.73
 -10   4  10   -0.87    1.22
 -10   4  10   -2.88    2.90
  -9   4  10   75.43    6.10
  -9   4  10   70.50    4.20
  -8   4  10    0.00    2.76
  -8   4  10    1.00    0.92
  -7   4  10   52.93    3.09
  -7   4  10   47.45    4.69
  -6   4  10   49.27    4.68
  -6   4  10   49.66    2.75
  -5   4  10  162.01    5.02
  -5   4  10  160.50    7.80
   4  -4 -10  118.20    5.83
  -4   4  10  124.60    6.92
  -4   4  10  124.03    3.96
   3  -4 -10  287.60   10.08
  -3   4  10  324.33   11.67
  -3   4  10  298.72    7.37
   2  -4 -10    1.10    1.38
  -2   4  10   -0.70    2.35
   1  -4 -10    0.27    1.33
  -1   4  10    3.47    2.66
   0  -4 -10    3.93    1.94
   0   4  10    5.16    2.94
  -1  -4 -10    1.09    1.65
   1   4  10    8.24    3.21
   2   4  10   71.67    5.90
  -2  -4 -10   72.97    5.27
  -3  -4 -10  181.36    8.64
   3   4  10  182.94    9.26
   4   4  10  195.88    9.58
  -4  -4 -10  177.59    8.93
   5   4  10   21.10    4.25
  -5  -4 -10   25.21    4.20
   6   4  10    0.05    3.01
  -6  -4 -10    1.99    2.46
  -7  -4 -10   -0.78    1.89
   7   4  10    5.23    3.63
  -8  -4 -10    2.20    2.70
 -19   5  10    1.17    3.15
 -18   5  10   -1.31    2.24
 -17   5  10    7.06    3.34
 -16   5  10   33.57    5.16
 -15   5  10    3.48    2.49
 -15   5  10    0.31    3.48
 -14   5  10   70.54    6.44
 -14   5  10   80.12    6.29
 -13   5  10    2.42    3.20
 -13   5  10    2.10    2.16
 -12   5  10   10.09    3.80
 -12   5  10    8.59    2.56
 -11   5  10  139.74    8.43
 -11   5  10  132.72    6.50
 -10   5  10    4.11    3.35
 -10   5  10    0.19    1.20
  -9   5  10    0.58    3.05
  -9   5  10    1.16    1.06
  -8   5  10  265.24   11.07
  -8   5  10  282.34    8.51
  -7   5  10   79.06    6.10
  -7   5  10   72.35    3.43
  -6   5  10   84.69    3.38
  -6   5  10   85.79    6.18
  -5   5  10    3.88    0.92
   5  -5 -10   -0.18    1.54
  -5   5  10    3.20    2.74
  -4   5  10  229.90    9.85
   4  -5 -10  243.33    9.02
   3  -5 -10   13.03    2.53
  -3   5  10   16.56    3.63
   2  -5 -10    6.93    2.08
  -2   5  10   10.11    3.10
  -1   5  10    1.72    2.85
   1  -5 -10    7.38    2.17
   0   5  10    3.00    2.93
   0  -5 -10    2.59    1.79
  -1  -5 -10   17.29    3.21
   1   5  10   22.80    4.02
  -2  -5 -10    2.15    2.10
   2   5  10   -0.08    2.84
   3   5  10  106.65    7.43
  -3  -5 -10   97.83    6.55
  -4  -5 -10   11.77    3.21
   4   5  10    7.15    3.41
  -5  -5 -10    6.54    2.76
   5   5  10    6.94    3.34
   6   5  10   25.64    4.71
  -6  -5 -10   35.53    5.24
  -7  -5 -10    3.57    2.77
  -8  -5 -10    2.79    2.93
 -19   6  10    3.74    2.90
 -18   6  10    5.14    3.31
 -17   6  10   30.55    5.11
 -16   6  10    9.40    3.35
 -16   6  10   15.51    4.81
 -15   6  10  112.22    7.35
 -15   6  10   96.00    7.89
 -14   6  10    5.00    2.42
 -14   6  10   -0.63    3.36
 -13   6  10    4.90    2.33
 -13   6  10   11.40    4.14
 -12   6  10   75.27    6.64
 -12   6  10   79.97    5.38
 -11   6  10    4.40    1.80
 -11   6  10    2.40    3.50
 -10   6  10   -0.95    0.97
 -10   6  10    3.67    3.41
  -9   6  10   54.68    3.55
  -9   6  10   51.72    5.53
  -8   6  10   26.48    4.43
  -8   6  10   22.73    2.27
  -7   6  10   55.56    5.43
  -6   6  10  165.92    8.70
  -5   6  10    6.47    2.87
   5  -6 -10    1.48    1.76
   4  -6 -10   64.80    4.72
  -4   6  10   60.11    5.47
   3  -6 -10   21.46    3.21
  -3   6  10   20.97    3.74
  -2   6  10    7.65    3.23
   2  -6 -10    4.37    2.01
  -1   6  10   -2.22    2.57
   1  -6 -10    0.05    1.56
   0   6  10   22.32    4.12
   0  -6 -10   24.80    3.71
   1   6  10    1.41    3.20
  -1  -6 -10    1.63    2.16
   2   6  10   88.41    6.78
  -2  -6 -10  100.04    6.79
  -3  -6 -10   -0.37    2.18
   3   6  10    0.71    2.75
  -4  -6 -10    2.18    2.46
   4   6  10    1.22    2.70
  -5  -6 -10   -1.22    2.23
   5   6  10   -4.27    2.51
  -6  -6 -10    2.18    2.71
  -7  -6 -10   -2.13    2.70
  -8  -6 -10   10.65    4.42
  -9  -6 -10    5.40    4.75
 -19   7  10   -1.49    2.27
 -18   7  10   22.06    4.74
 -17   7  10    4.62    4.41
 -17   7  10    2.09    2.72
 -16   7  10   22.06    4.39
 -16   7  10   27.01    5.45
 -15   7  10   -1.10    2.14
 -15   7  10    2.14    3.62
 -14   7  10   63.24    6.63
 -14   7  10   54.91    5.21
 -13   7  10   12.15    4.27
 -13   7  10   12.21    2.81
 -12   7  10    1.60    1.59
 -12   7  10    0.54    3.55
 -11   7  10   73.64    6.77
 -10   7  10   95.61    7.74
  -9   7  10   -0.27    3.14
  -8   7  10  292.43   12.36
  -7   7  10    7.37    3.29
   6  -7 -10   56.04    4.85
  -6   7  10   49.59    5.14
   5  -7 -10   30.64    3.74
  -5   7  10   29.59    4.44
  -4   7  10    2.71    2.99
   4  -7 -10    2.45    1.79
  -3   7  10   42.14    4.96
   3  -7 -10   46.77    4.57
   2  -7 -10   11.04    2.72
  -2   7  10   15.55    3.72
  -1   7  10   18.41    3.98
   1  -7 -10   11.86    2.93
   0   7  10  178.11    9.31
   0  -7 -10  164.79    8.56
   1   7  10  173.82    9.15
  -1  -7 -10  173.79    8.99
  -2  -7 -10   56.22    5.86
   2   7  10   58.25    5.59
  -3  -7 -10    5.55    3.06
   3   7  10    1.64    2.85
   4   7  10   -0.16    2.99
  -4  -7 -10    2.06    2.51
  -5  -7 -10   10.00    3.58
  -6  -7 -10    5.40    3.38
  -7  -7 -10   12.37    4.50
  -8  -7 -10   32.06    6.48
  -9  -7 -10    0.47    4.74
 -19   8  10   16.97    4.35
 -18   8  10    2.94    3.15
 -17   8  10    2.40    2.76
 -17   8  10    4.79    4.53
 -16   8  10    6.56    4.54
 -16   8  10   11.46    3.44
 -15   8  10   -2.17    3.55
 -15   8  10    1.54    2.24
 -14   8  10   15.14    4.82
 -14   8  10   20.77    3.59
 -13   8  10   61.91    6.57
 -12   8  10    5.16    3.65
 -11   8  10   87.69    7.32
 -10   8  10    7.81    4.15
  -9   8  10  109.42    7.68
  -8   8  10   -0.82    3.34
  -7   8  10    3.77    3.02
   6  -8 -10   30.10    4.01
  -6   8  10   21.70    4.35
  -5   8  10   35.92    4.88
   5  -8 -10   31.22    4.11
   4  -8 -10    3.64    2.27
  -4   8  10    1.23    2.93
   3  -8 -10  258.93   10.82
  -3   8  10  253.59   11.18
   2  -8 -10    9.84    2.75
  -2   8  10   10.69    3.70
   1  -8 -10    2.47    2.01
  -1   8  10    4.50    3.24
   0   8  10  191.08    9.67
   0  -8 -10  205.21   10.05
   1   8  10   18.02    4.01
  -1  -8 -10   15.04    3.62
   2   8  10    2.47    3.22
  -2  -8 -10    8.31    3.28
  -3  -8 -10  107.11    8.04
   3   8  10  102.67    7.27
  -4  -8 -10   -0.27    2.51
  -5  -8 -10   22.39    5.27
  -6  -8 -10   22.95    5.26
  -7  -8 -10   28.49    6.14
  -8  -8 -10   -0.66    4.14
 -18   9  10   -0.98    4.33
 -17   9  10    7.98    4.74
 -16   9  10    0.75    4.20
 -15   9  10   -0.25    3.69
 -14   9  10   97.44    8.25
 -13   9  10   22.91    5.05
 -12   9  10   86.84    7.56
 -11   9  10   73.00    6.79
 -10   9  10   -1.09    3.07
  -9   9  10   55.12    5.97
  -8   9  10    7.36    3.67
   7  -9 -10   22.08    3.89
  -7   9  10   14.12    4.24
   6  -9 -10   61.06    5.43
  -6   9  10   58.94    6.10
   5  -9 -10    7.70    2.73
  -5   9  10    9.66    3.73
   4  -9 -10    6.23    2.51
  -4   9  10    7.60    3.39
  -3   9  10    1.80    3.00
   3  -9 -10    2.41    1.95
  -2   9  10    7.64    3.29
   2  -9 -10   -0.22    1.87
  -1   9  10   22.99    4.21
   1  -9 -10   17.45    3.79
   0   9  10   11.93    3.50
   0  -9 -10   21.58    4.19
  -1  -9 -10   21.18    4.17
   1   9  10   22.48    4.37
   2   9  10   39.42    5.18
  -2  -9 -10   49.13    6.20
  -3  -9 -10   -4.01    2.44
  -4  -9 -10    7.95    4.12
  -5  -9 -10    7.19    4.09
  -6  -9 -10   31.09    6.38
  -7  -9 -10    1.72    4.51
  -8  -9 -10   18.27    6.58
 -19  10  10    0.37    5.54
 -18  10  10   -1.11    5.11
 -17  10  10   20.02    5.85
 -16  10  10    3.86    4.53
 -15  10  10   74.71    7.97
 -14  10  10    2.77    4.16
 -13  10  10   11.89    4.66
 -12  10  10    6.53    3.73
 -11  10  10    6.07    3.89
 -10  10  10   61.39    6.76
  -9  10  10   19.08    4.59
  -8  10  10   15.58    4.35
   7 -10 -10    1.43    1.99
  -7  10  10    5.84    3.53
  -6  10  10   -0.76    2.68
   6 -10 -10    6.25    2.63
   5 -10 -10    3.46    2.44
  -5  10  10    4.04    3.41
   4 -10 -10   36.85    4.97
  -4  10  10   48.71    5.41
   3 -10 -10    3.84    2.69
  -3  10  10    0.97    2.90
  -2  10  10   -0.14    2.72
   2 -10 -10    0.94    2.31
  -1  10  10    0.98    2.82
   1 -10 -10    0.66    2.27
   0 -10 -10    0.76    2.29
   0  10  10   -0.87    2.66
  -1 -10 -10   35.96    5.61
   1  10  10   43.13    5.43
  -2 -10 -10    5.07    3.08
  -3 -10 -10    2.71    3.49
  -4 -10 -10   26.26    5.82
  -5 -10 -10    7.01    5.00
  -6 -10 -10    5.76    4.86
 -19  11  10    2.75    5.58
 -18  11  10    1.35    4.92
 -17  11  10    9.14    5.64
 -16  11  10   19.95    5.80
 -15  11  10    0.50    4.15
 -14  11  10   16.30    5.23
 -13  11  10   21.60    5.55
 -12  11  10   -0.46    3.53
 -11  11  10    7.51    4.29
 -10  11  10   17.79    4.76
  -9  11  10    4.91    3.70
   8 -11 -10   12.75    3.52
  -8  11  10    1.98    3.32
  -7  11  10   21.65    4.52
   7 -11 -10   17.77    3.89
  -6  11  10   36.81    5.25
   6 -11 -10   34.95    5.11
  -5  11  10   24.01    4.55
   5 -11 -10   30.49    4.87
   4 -11 -10   19.25    4.19
  -4  11  10   14.91    3.90
   3 -11 -10    8.21    3.40
  -3  11  10    4.99    3.19
   2 -11 -10    9.81    3.24
  -2  11  10    7.97    3.15
  -1  11  10    2.49    2.85
   1 -11 -10    0.90    2.67
   0 -11 -10  137.32    9.43
   0  11  10  142.82    8.63
  -1 -11 -10   15.14    4.16
  -2 -11 -10   33.10    5.87
  -3 -11 -10    4.74    3.78
  -4 -11 -10   -0.86    3.70
  -5 -11 -10    2.48    4.39
 -18  12  10    5.31    5.39
 -17  12  10   15.16    5.75
 -16  12  10   -0.70    3.94
 -15  12  10   10.78    5.09
 -14  12  10    9.74    4.66
 -13  12  10   52.38    7.06
 -12  12  10    5.68    4.32
 -11  12  10   52.22    6.76
 -10  12  10    9.44    4.10
  -9  12  10   44.22    6.11
  -8  12  10   39.61    5.69
   8 -12 -10   52.17    6.06
  -7  12  10    6.12    3.45
   7 -12 -10   -0.93    2.22
   6 -12 -10    1.74    2.54
  -6  12  10    5.99    3.39
   5 -12 -10   18.88    4.21
  -5  12  10   23.64    4.57
  -4  12  10   40.41    5.27
   4 -12 -10   28.34    5.01
  -3  12  10   61.46    6.11
   3 -12 -10   59.42    6.96
   2 -12 -10   31.30    5.49
  -2  12  10   17.64    4.35
  -1  12  10   21.19    4.42
   1 -12 -10   10.10    3.82
   0 -12 -10   63.65    7.58
  -1 -12 -10   39.69    6.58
  -2 -12 -10   -1.46    3.15
  -3 -12 -10   21.51    5.53
  -4 -12 -10    6.03    4.45
 -17  13  10   -6.43    4.36
 -16  13  10   -1.37    4.57
 -15  13  10    2.20    4.52
 -14  13  10   17.48    5.66
 -13  13  10   11.26    4.79
 -12  13  10   22.99    5.75
 -11  13  10   61.73    7.44
 -10  13  10   42.78    6.37
  -9  13  10   53.82    6.78
   8 -13 -10    1.78    2.60
  -8  13  10    0.33    3.25
   7 -13 -10    5.64    3.12
  -7  13  10    8.67    3.83
   6 -13 -10    4.20    3.09
  -6  13  10    8.69    3.92
  -5  13  10    1.02    3.03
   5 -13 -10   -2.03    2.58
   4 -13 -10   98.38    8.59
  -4  13  10  106.10    7.76
   3 -13 -10    1.92    3.10
  -3  13  10    0.59    3.16
   2 -13 -10    7.43    4.00
  -2  13  10    6.65    3.76
   1 -13 -10    3.83    3.21
   0 -13 -10   20.87    5.55
  -1 -13 -10    6.82    4.26
  -2 -13 -10   22.62    5.93
  -3 -13 -10    0.61    4.01
 -16  14  10   14.79    5.80
 -15  14  10   30.81    6.78
 -14  14  10   13.44    5.30
 -12  14  10    9.13    4.74
 -11  14  10   12.86    4.81
 -10  14  10   14.20    4.97
  -9  14  10   17.07    4.79
   8 -14 -10    3.43    3.14
  -8  14  10    4.41    3.74
  -7  14  10   10.09    4.09
   7 -14 -10   14.02    4.29
  -6  14  10   39.36    5.82
   6 -14 -10   28.06    5.66
  -5  14  10   32.90    5.31
   5 -14 -10   40.28    6.53
  -4  14  10   10.80    4.04
   4 -14 -10    3.07    3.37
  -3  14  10    8.70    3.57
   3 -14 -10    5.40    3.96
   2 -14 -10    5.07    4.08
   1 -14 -10    0.54    3.68
   0 -14 -10    6.08    4.29
  -1 -14 -10   14.07    5.17
 -15  15  10    2.41    4.94
 -14  15  10   -0.98    1.46
 -13  15  10    0.54    2.64
 -12  15  10   -1.34    3.93
 -11  15  10    1.82    3.83
 -10  15  10    7.49    4.37
   9 -15 -10   12.80    4.58
  -9  15  10   13.81    4.74
   8 -15 -10   44.34    6.82
  -8  15  10   38.97    6.19
  -7  15  10    6.19    4.32
   7 -15 -10    7.46    4.10
   6 -15 -10   15.10    4.94
  -6  15  10    7.73    4.15
   5 -15 -10    5.80    4.16
  -5  15  10    6.13    3.17
  -4  15  10    4.56    3.18
   4 -15 -10    4.24    4.11
   3 -15 -10    0.79    3.93
   2 -15 -10    3.16    4.29
   1 -15 -10   -2.84    3.73
 -14  16  10   -1.61    1.79
 -13  16  10    3.03    2.02
 -12  16  10    1.65    1.77
 -11  16  10    0.93    2.62
 -10  16  10    1.23    3.56
  -9  16  10   29.29    5.73
   9 -16 -10   35.22    6.35
  -8  16  10   12.60    4.52
   8 -16 -10    7.42    4.43
   7 -16 -10   42.24    6.92
  -7  16  10   38.08    6.03
  -6  16  10   12.61    4.17
   6 -16 -10    4.12    4.08
   5 -16 -10   21.66    5.79
   4 -16 -10   -0.50    3.81
   3 -16 -10   -5.79    3.39
 -12  17  10    0.05    1.90
 -11  17  10    3.25    1.80
 -10  17  10   10.98    4.97
   9 -17 -10    3.30    3.68
   8 -17 -10    2.46    3.93
  -8  17  10   -0.16    3.55
  -7  17  10    3.14    3.94
   7 -17 -10   -0.75    4.02
   6 -17 -10    6.81    4.84
  -9  18  10    7.15    5.15
  -8  18  10   -3.60    4.02
   1 -18  11   -6.33    3.83
   2 -18  11   16.36    5.19
   3 -18  11    4.70    4.00
   4 -18  11    4.94    4.04
  -3 -17  11   10.27    5.15
  -2 -17  11    0.03    4.40
  -1 -17  11    3.01    4.14
   0 -17  11    6.49    4.19
   1 -17  11    3.59    3.66
   2 -17  11    3.87    3.27
   3 -17  11    0.76    3.46
   4 -17  11    4.20    3.87
   5 -17  11   13.47    4.70
   6 -17  11   41.44    6.71
   7 -17  11   25.29    5.63
  -7  17 -11   19.83    5.57
  -8  17 -11   27.06    7.17
  -5 -16  11    0.63    4.02
  -4 -16  11   -2.76    3.67
  -3 -16  11    4.86    4.00
  -2 -16  11    7.15    4.16
  -1 -16  11    6.36    3.98
   0 -16  11    0.21    3.39
   1 -16  11    1.24    3.40
   2 -16  11   32.14    5.28
   3 -16  11    9.31    3.68
   4 -16  11   -0.42    3.09
   5 -16  11   12.28    4.44
   6 -16  11    3.38    3.79
  -6  16 -11    3.70    4.08
   7 -16  11    0.49    3.33
  -7  16 -11   -6.93    3.71
  -8  16 -11   -3.63    3.29
  -9  16 -11   -2.55    4.95
  -6 -15  11    0.76    3.66
  -5 -15  11   -1.93    3.19
  -4 -15  11   16.68    4.71
  -3 -15  11    4.12    3.46
  -2 -15  11   15.83    4.63
  -1 -15  11    4.97    3.20
   0 -15  11   20.01    4.65
   1 -15  11    3.01    3.37
   2 -15  11    3.12    3.15
   3 -15  11    2.23    2.90
   4 -15  11   11.31    3.77
  -5  15 -11   -1.65    3.22
   5 -15  11   -0.72    2.89
   6 -15  11    3.53    3.46
  -6  15 -11   -0.51    3.65
  -7  15 -11    1.54    4.20
   7 -15  11    2.23    3.61
  -8  15 -11   -1.73    4.08
  -9  15 -11    0.45    3.94
 -10  15 -11   -3.62    2.33
  -7 -14  11    2.34    3.54
  -6 -14  11    7.94    3.87
  -5 -14  11   17.24    4.55
  -4 -14  11    1.49    3.16
  -3 -14  11   20.16    4.56
  -2 -14  11   -1.82    2.73
  -1 -14  11   17.84    4.19
   0 -14  11    1.62    2.68
   1 -14  11   13.53    4.00
   2 -14  11   34.09    5.13
   3 -14  11   36.65    5.17
   4 -14  11    3.06    2.94
  -4  14 -11   -1.00    3.42
  -5  14 -11    0.89    3.66
   5 -14  11    5.41    3.05
  -6  14 -11    0.65    3.45
   6 -14  11   -2.02    2.95
   7 -14  11    6.37    3.66
  -7  14 -11    0.40    3.97
  -8  14 -11   -2.55    3.68
  -9  14 -11   -0.85    3.32
 -10  14 -11   -2.43    2.52
  -9 -13  11    0.77    3.10
  -8 -13  11   38.05    5.86
  -7 -13  11   -3.58    2.71
  -6 -13  11   26.16    5.09
  -5 -13  11    0.29    2.69
  -4 -13  11    4.05    2.94
  -3 -13  11    3.33    3.02
  -2 -13  11   21.91    4.33
  -1 -13  11   12.36    3.77
   0 -13  11   23.26    4.47
   1 -13  11   21.07    4.25
   2 -13  11   50.02    5.66
  -3  13 -11    2.85    3.55
   3 -13  11    3.12    2.65
   4 -13  11   20.45    4.31
  -4  13 -11   19.45    5.35
   5 -13  11   -1.24    2.66
  -5  13 -11   -5.78    3.00
   6 -13  11    0.22    3.00
  -6  13 -11    2.54    3.92
   7 -13  11   49.34    6.17
  -7  13 -11   44.42    7.29
  -8  13 -11   44.58    7.52
  -9  13 -11   -3.20    3.64
 -10  13 -11   -1.49    1.80
 -11  13 -11   -1.20    2.49
 -10 -12  11   -0.68    2.82
  -9 -12  11   20.76    4.86
  -8 -12  11   -1.17    2.88
  -7 -12  11    8.05    3.54
  -6 -12  11    4.53    2.85
  -5 -12  11   -0.82    2.47
  -4 -12  11    1.02    2.66
  -3 -12  11  103.14    7.13
  -2 -12  11    4.27    2.97
  -1 -12  11  102.33    7.23
   0 -12  11   -0.83    2.19
   1 -12  11   22.93    4.24
  -2  12 -11   13.13    3.86
   2 -12  11    6.87    2.79
  -3  12 -11    2.69    2.94
   3 -12  11    1.82    2.51
   4 -12  11    1.98    2.68
  -4  12 -11    2.06    3.14
  -5  12 -11   23.90    5.18
   5 -12  11   21.07    4.16
   6 -12  11   16.56    4.03
  -6  12 -11    7.74    3.72
   7 -12  11   23.09    4.48
  -7  12 -11   22.01    5.50
  -8  12 -11    1.78    3.59
  -9  12 -11   -0.14    3.61
 -10  12 -11    3.04    3.95
 -11  12 -11   -1.92    2.16
 -11 -11  11    1.37    3.10
 -10 -11  11    1.58    3.08
  -9 -11  11   13.67    4.10
  -8 -11  11    4.51    2.96
  -7 -11  11    0.30    2.26
  -6 -11  11   23.01    4.32
  -5 -11  11    4.78    2.72
  -4 -11  11  205.14   10.15
  -3 -11  11    3.98    2.85
  -2 -11  11   46.66    5.15
  -1 -11  11    5.66    2.85
   0 -11  11    2.10    2.33
  -1  11 -11   28.35    4.70
  -2  11 -11   14.87    4.05
  -3  11 -11    4.41    3.30
   3 -11  11   -4.94    1.61
   4 -11  11   47.13    5.27
  -4  11 -11   54.60    6.75
   5 -11  11    9.90    3.20
  -5  11 -11    8.80    3.82
  -6  11 -11   38.91    6.48
   6 -11  11   37.26    5.23
  -7  11 -11    1.32    3.28
  -8  11 -11   -1.41    3.14
  -9  11 -11    1.66    3.44
 -10  11 -11    5.44    4.14
 -11  11 -11   -3.61    1.77
 -12  11 -11   -1.90    4.53
 -12 -10  11   17.22    4.56
 -11 -10  11    2.62    3.04
 -10 -10  11    4.53    3.06
  -9 -10  11   -0.21    2.29
  -8 -10  11   29.35    4.98
  -7 -10  11   34.65    4.99
  -6 -10  11   10.05    3.23
  -5 -10  11   23.64    4.24
  -4 -10  11    3.88    2.33
  -3 -10  11    9.89    2.96
  -2 -10  11   72.94    5.58
  -1 -10  11   12.20    3.17
   0 -10  11   -1.66    2.02
   0  10 -11    0.25    2.35
   1 -10  11   12.78    3.25
  -1  10 -11    7.97    3.49
   2 -10  11    2.19    2.13
  -2  10 -11   -0.98    2.72
   3 -10  11    0.01    2.01
  -3  10 -11    0.84    2.74
  -4  10 -11    7.31    3.58
   4 -10  11    9.81    2.98
   5 -10  11   12.01    3.15
  -5  10 -11    5.36    3.56
  -6  10 -11   13.91    4.41
   6 -10  11   13.14    3.54
  -7  10 -11    0.98    3.30
  -8  10 -11   -0.31    2.64
  -9  10 -11    4.78    4.00
 -10  10 -11   -4.30    3.36
 -11  10 -11    0.66    4.28
 -12  10 -11    6.98    5.02
 -12  -9  11    2.38    3.00
 -11  -9  11    0.36    2.64
 -10  -9  11    1.08    2.35
  -9  -9  11   36.27    5.11
  -8  -9  11   21.38    4.16
  -7  -9  11    8.69    2.95
  -6  -9  11    2.90    2.22
  -4  -9  11   64.24    5.72
  -3  -9  11   65.98    5.55
  -2  -9  11   25.87    3.96
   1   9 -11   -1.28    1.00
  -1  -9  11   -1.12    1.98
   1   9 -11    0.27    1.00
   0   9 -11    0.71    2.03
   0  -9  11    0.23    1.90
   0   9 -11    0.84    2.07
  -1   9 -11    8.62    3.13
   1  -9  11    2.26    2.37
  -1   9 -11    2.83    2.65
  -2   9 -11   12.77    3.52
   2  -9  11   11.26    2.90
  -2   9 -11   11.21    3.21
  -3   9 -11    1.81    2.52
  -3   9 -11    2.61    2.71
   3  -9  11    4.32    2.21
  -4   9 -11    0.64    2.63
  -4   9 -11    0.72    2.56
   4  -9  11   -1.19    2.00
  -5   9 -11   -4.01    2.10
   5  -9  11   -1.64    1.77
  -5   9 -11    3.16    3.01
   6  -9  11    7.75    2.89
  -6   9 -11    8.13    3.41
  -6   9 -11    9.16    3.29
  -7   9 -11   38.66    6.29
  -8   9 -11   28.90    5.93
  -9   9 -11   -0.25    3.26
 -10   9 -11   39.64    7.30
 -11   9 -11   -4.27    3.51
 -12   9 -11   -5.15    4.06
 -13  -8  11    6.50    3.49
 -12  -8  11    0.01    2.29
 -11  -8  11    2.51    2.57
 -10  -8  11    8.68    3.29
  -9  -8  11   39.07    4.90
  -8  -8  11    0.75    1.84
  -7  -8  11   24.82    3.98
  -6  -8  11   16.48    3.58
  -5  -8  11    4.64    2.39
  -4  -8  11    1.32    1.90
  -3  -8  11   11.03    3.03
   2   8 -11    5.84    2.24
   2   8 -11    0.34    1.75
  -2  -8  11    1.57    1.98
  -1  -8  11  219.60    9.10
   1   8 -11  224.70    8.95
   1   8 -11  214.85    9.74
   0   8 -11    1.98    2.29
   0  -8  11    1.48    1.71
   0   8 -11    6.47    2.43
  -1   8 -11   39.30    4.55
  -1   8 -11   42.34    5.09
   1  -8  11   38.05    4.24
  -2   8 -11    6.64    2.96
   2  -8  11   13.91    3.01
  -2   8 -11   10.08    3.01
  -3   8 -11    4.37    2.78
  -3   8 -11    1.30    2.52
   3  -8  11    1.15    2.05
  -4   8 -11    2.44    2.54
  -4   8 -11   -0.45    2.44
   4  -8  11    3.06    2.24
  -5   8 -11   42.30    5.55
  -5   8 -11   45.34    6.03
   5  -8  11   41.89    4.80
  -6   8 -11   -2.07    2.28
   6  -8  11    1.25    2.08
  -6   8 -11    1.99    2.79
  -7   8 -11   50.34    6.20
  -7   8 -11   53.94    6.76
  -8   8 -11   11.01    3.85
  -8   8 -11    7.50    3.83
  -9   8 -11   36.73    6.60
 -10   8 -11   -0.56    3.78
 -11   8 -11   -0.37    3.80
 -12   8 -11    8.31    5.24
 -13   8 -11    0.03    4.90
 -14  -7  11    4.20    3.19
 -13  -7  11    3.50    2.70
 -12  -7  11   13.23    3.80
 -11  -7  11   12.46    3.50
 -10  -7  11   44.88    5.30
  -9  -7  11   32.75    4.54
  -8  -7  11   75.81    5.63
  -7  -7  11    4.85    2.17
  -6  -7  11    2.26    2.13
  -5  -7  11   39.22    4.34
  -4  -7  11   19.76    3.45
  -3  -7  11   48.56    4.56
  -3  -7  11   54.49    4.36
  -2  -7  11  209.05    8.62
  -2  -7  11  193.46    8.34
  -1  -7  11   28.13    4.04
  -1  -7  11   38.18    3.95
   0  -7  11   23.85    3.41
   0  -7  11   20.10    3.87
   1  -7  11    8.30    2.41
  -2   7 -11   55.07    5.73
   2  -7  11   59.80    4.83
  -2   7 -11   54.61    5.17
  -3   7 -11    0.90    2.60
  -3   7 -11    2.34    2.41
   3  -7  11    1.42    2.01
   4  -7  11    1.11    2.00
  -4   7 -11    0.83    2.49
  -4   7 -11    0.23    2.24
  -5   7 -11    3.71    2.86
   5  -7  11    4.55    2.34
  -5   7 -11    5.51    2.58
  -6   7 -11   69.87    6.45
  -6   7 -11   70.86    7.14
  -7   7 -11    2.79    3.01
  -7   7 -11    2.82    3.10
  -8   7 -11    0.18    2.85
  -8   7 -11    3.01    2.63
  -9   7 -11    3.74    3.58
  -9   7 -11    0.03    3.03
 -10   7 -11   -1.25    3.27
 -11   7 -11   -1.95    3.56
 -12   7 -11   21.97    6.40
 -13   7 -11   -0.53    4.21
 -15  -6  11    6.34    3.40
 -14  -6  11   12.66    3.97
 -13  -6  11   30.04    5.17
 -12  -6  11   36.01    5.23
 -11  -6  11    2.58    2.46
 -10  -6  11   -1.14    1.51
  -9  -6  11    0.46    1.73
  -8  -6  11    2.41    1.91
  -7  -6  11   23.01    3.58
  -6  -6  11    9.53    2.66
  -5  -6  11   17.52    3.08
  -4  -6  11   84.15    5.46
  -4  -6  11   90.22    5.41
  -3  -6  11  101.20    5.77
  -3  -6  11  108.05    6.01
  -2  -6  11    3.44    2.73
  -2  -6  11    1.94    1.75
  -1  -6  11    2.51    1.75
  -1  -6  11    1.16    2.68
   0  -6  11   -0.03    1.73
   0  -6  11    1.50    2.71
   1  -6  11  147.07    8.00
   1  -6  11  167.55    7.59
   2  -6  11    5.24    2.30
   2  -6  11    6.01    3.38
   3  -6  11    3.82    2.24
   3  -6  11    4.94    3.71
   4  -6  11    0.13    1.75
   5  -6  11    3.48    2.34
  -5   6 -11    0.94    2.54
  -5   6 -11    1.02    2.32
  -6   6 -11    5.83    2.78
  -6   6 -11    7.90    3.20
  -7   6 -11   15.06    4.10
  -7   6 -11   12.51    3.55
  -8   6 -11   25.67    4.77
  -8   6 -11   17.58    4.59
  -9   6 -11    7.64    3.32
  -9   6 -11    9.69    4.12
 -10   6 -11    2.68    3.74
 -10   6 -11    3.41    3.61
 -11   6 -11   -2.65    3.24
 -12   6 -11    4.95    4.51
 -13   6 -11    0.61    4.83
 -15  -5  11   50.91    6.69
 -14  -5  11    4.76    2.99
 -13  -5  11   14.98    4.00
 -12  -5  11    2.03    2.51
 -11  -5  11    3.06    2.18
 -10  -5  11    1.88    1.93
  -9  -5  11    0.63    1.94
  -8  -5  11  131.41    7.23
  -7  -5  11   18.48    3.25
  -6  -5  11   30.40    3.75
  -5  -5  11   20.90    2.97
  -5  -5  11   22.06    3.33
  -4  -5  11  209.46    8.07
  -4  -5  11  216.80    8.58
  -3  -5  11    6.44    2.61
  -3  -5  11   10.79    2.40
  -2  -5  11   10.16    2.35
  -2  -5  11    7.59    2.74
  -1  -5  11    4.34    2.83
  -1  -5  11    2.61    1.86
   0  -5  11    1.45    2.94
   0  -5  11    1.72    1.58
   1  -5  11   10.88    3.46
   1  -5  11    2.95    1.85
   2  -5  11   87.28    6.70
   2  -5  11  101.05    5.74
   3  -5  11    3.33    3.43
   3  -5  11    0.17    1.87
   4  -5  11  135.45    7.07
   4  -5  11  134.70    8.56
   5  -5  11   73.53    6.68
  -6   5 -11   33.12    5.39
  -6   5 -11   40.03    5.10
  -7   5 -11   14.41    3.65
  -7   5 -11   10.18    3.70
  -8   5 -11   52.38    6.68
  -8   5 -11   47.91    5.86
  -9   5 -11    2.58    2.88
  -9   5 -11    0.48    3.02
 -10   5 -11    1.44    3.20
 -10   5 -11    0.89    3.34
 -11   5 -11   -0.43    3.81
 -11   5 -11   -1.46    3.34
 -12   5 -11    7.80    4.52
 -13   5 -11   -0.02    4.62
 -16  -4  11   22.70    4.84
 -15  -4  11   -3.17    1.81
 -14  -4  11   -2.77    1.99
 -13  -4  11    2.33    2.33
 -12  -4  11   -3.12    1.25
 -11  -4  11   -2.06    1.53
 -10  -4  11    1.33    1.77
  -9  -4  11  145.21    7.47
  -8  -4  11   48.48    4.59
  -7  -4  11   68.57    4.90
  -6  -4  11  101.09    5.65
  -6  -4  11   93.35    5.16
  -5  -4  11   35.22    3.48
  -5  -4  11   37.55    3.80
  -4  -4  11   -0.49    2.35
  -4  -4  11    2.66    1.64
  -3  -4  11   22.41    3.03
  -3  -4  11   27.21    3.39
  -2  -4  11   10.22    2.18
  -2  -4  11   12.57    2.91
  -1  -4  11    1.23    1.52
  -1  -4  11    2.62    2.59
   0  -4  11    9.38    3.15
   0  -4  11   13.65    2.48
   1  -4  11  243.45    8.88
   1  -4  11  243.67   10.38
   2  -4  11   12.52    3.93
   2  -4  11   15.58    2.94
   3  -4  11   31.36    3.70
   3  -4  11   31.19    4.79
   4  -4  11    7.16    3.34
   4  -4  11    0.49    1.66
   5  -4  11   28.08    4.92
   6  -4  11    1.62    3.72
  -7   4 -11   16.46    4.35
  -7   4 -11    8.54    3.14
  -8   4 -11   -3.57    2.13
  -8   4 -11    0.98    2.78
  -9   4 -11   49.02    6.11
  -9   4 -11   39.60    6.32
 -10   4 -11   -1.08    2.88
 -10   4 -11    0.15    3.49
 -11   4 -11    2.78    3.40
 -11   4 -11   -0.15    3.37
 -12   4 -11   -0.62    3.92
 -13   4 -11   -0.11    4.76
 -16  -3  11    3.25    1.93
 -15  -3  11    3.35    2.72
 -14  -3  11    9.16    3.10
 -13  -3  11    9.09    3.00
 -12  -3  11   39.57    4.74
 -11  -3  11   35.40    4.46
 -10  -3  11   38.94    4.41
  -9  -3  11   35.62    4.21
  -8  -3  11   12.77    2.71
  -7  -3  11  109.81    6.06
  -7  -3  11  111.59    5.54
  -6  -3  11   -0.94    2.17
  -6  -3  11    1.53    1.61
  -5  -3  11    3.17    1.69
  -5  -3  11    5.73    2.31
  -4  -3  11    3.73    2.32
  -4  -3  11    3.57    1.68
  -3  -3  11   72.36    4.29
  -3  -3  11   70.75    4.91
  -2  -3  11   95.31    4.97
  -2  -3  11  100.74    5.91
  -1  -3  11   32.24    4.00
  -1  -3  11   35.52    3.21
   1  -3  11    1.37    1.64
   1  -3  11    1.50    2.80
   2  -3  11    7.64    2.32
   2  -3  11   10.78    3.66
   3  -3  11   -2.78    3.03
   3  -3  11    0.11    1.54
   4  -3  11    6.29    3.61
   5  -3  11   49.33    5.47
   6  -3  11    6.55    3.70
   7  -3  11   25.01    5.09
  -8   3 -11   10.77    4.15
  -8   3 -11    5.05    2.80
  -9   3 -11   -2.13    2.50
  -9   3 -11    1.73    3.02
 -10   3 -11    1.57    3.25
 -10   3 -11    1.75    3.00
 -11   3 -11    5.19    3.76
 -11   3 -11    3.71    3.75
 -12   3 -11    4.84    4.57
 -12   3 -11   16.18    5.75
 -13   3 -11    5.78    6.15
 -17  -2  11   -0.83    1.99
 -16  -2  11   -0.30    1.85
 -15  -2  11    4.31    2.88
 -14  -2  11    6.99    2.80
 -13  -2  11   61.94    6.03
 -12  -2  11   10.68    2.97
 -11  -2  11   40.61    4.48
 -10  -2  11   61.10    5.13
  -9  -2  11   -1.02    1.53
  -8  -2  11   51.45    4.11
  -8  -2  11   53.44    4.41
  -7  -2  11    0.45    2.17
  -7  -2  11    1.81    1.63
  -6  -2  11   -0.48    2.10
  -6  -2  11   -0.75    1.16
  -5  -2  11    0.74    1.51
  -5  -2  11   -0.37    2.14
  -4  -2  11   45.34    3.99
  -4  -2  11   42.18    3.26
  -3  -2  11  105.21    5.87
  -3  -2  11  113.57    5.25
  -2  -2  11    4.41    2.46
  -2  -2  11    2.25    1.51
  -1  -2  11   61.83    4.95
  -1  -2  11   51.05    3.62
   0  -2  11    7.60    2.94
   0  -2  11    6.60    1.89
   1  -2  11   20.25    3.78
   1  -2  11   15.89    2.59
   2  -2  11  158.86    6.71
   2  -2  11  144.53    7.91
   3  -2  11    9.86    3.63
   4  -2  11   40.50    5.34
   5  -2  11   14.51    4.22
   6  -2  11   19.05    4.33
   7  -2  11    8.78    3.87
  -9   2 -11    5.44    3.65
  -9   2 -11    5.03    3.04
 -10   2 -11    5.46    3.56
 -10   2 -11    0.39    3.26
 -11   2 -11   -2.01    3.36
 -11   2 -11    5.02    4.19
 -12   2 -11    9.23    4.91
 -12   2 -11   15.06    5.59
 -17  -1  11   -1.76    1.50
 -16  -1  11   -2.36    2.62
 -15  -1  11   28.65    4.90
 -14  -1  11    6.43    2.68
 -13  -1  11  127.42    7.70
 -12  -1  11    0.02    1.85
 -11  -1  11   11.33    2.71
 -10  -1  11  161.52    7.55
  -9  -1  11   52.94    4.23
  -9  -1  11   46.28    4.24
  -8  -1  11   34.64    3.71
  -8  -1  11   29.00    3.35
  -7  -1  11   76.73    5.22
  -7  -1  11   73.70    4.59
  -6  -1  11   71.29    5.06
  -6  -1  11   72.48    4.36
  -5  -1  11  113.36    5.21
  -5  -1  11   96.72    5.65
  -4  -1  11  223.16    9.00
  -4  -1  11  235.55    7.84
  -3  -1  11   12.78    2.12
  -3  -1  11    7.40    2.56
  -2  -1  11    9.24    2.78
  -2  -1  11    7.33    1.79
  -1  -1  11   53.94    3.53
  -1  -1  11   59.87    4.90
   0  -1  11   17.07    2.41
   0  -1  11   13.41    3.32
   1  -1  11   73.65    4.31
   1  -1  11   75.03    5.98
   2  -1  11    7.60    3.34
   2  -1  11    3.15    1.70
   3  -1  11    7.89    3.49
   4  -1  11    0.17    3.11
   5  -1  11   30.59    5.19
   6  -1  11   10.04    3.94
   7  -1  11    0.70    3.19
   8  -1  11   19.14    4.89
  -9   1 -11    5.95    4.07
  -9   1 -11    4.26    3.23
 -10   1 -11    8.53    3.85
 -10   1 -11   23.61    5.58
 -11   1 -11    9.28    4.82
 -11   1 -11   17.76    5.01
 -18   0  11   -1.71    1.79
 -17   0  11   -2.01    1.54
 -15   0  11    0.82    2.23
 -14   0  11   73.21    6.39
 -13   0  11    0.08    1.97
 -12   0  11    1.22    1.90
 -11   0  11   79.03    5.47
 -10   0  11    8.40    2.46
 -10   0  11    7.31    2.90
  -9   0  11   93.89    5.44
  -9   0  11   94.11    5.87
  -8   0  11  110.32    6.31
  -8   0  11  120.03    5.88
  -7   0  11  169.40    7.54
  -7   0  11  171.50    6.89
  -6   0  11  149.85    6.09
  -6   0  11  136.18    6.82
  -5   0  11   30.94    3.68
  -5   0  11   27.71    2.74
  -4   0  11   10.92    1.92
  -4   0  11   10.47    2.70
  -3   0  11    1.49    2.22
  -3   0  11    3.22    1.33
  -2   0  11   48.26    3.14
  -2   0  11   49.10    4.42
  -1   0  11  132.95    5.29
  -1   0  11  132.83    7.20
   1   0 -11  136.95    4.82
   0   0 -11    4.91    1.32
   0   0  11    5.16    2.91
   0   0  11    4.33    1.57
   1   0  11   81.01    4.31
   1   0  11   77.22    6.11
  -1   0 -11   98.21    4.10
   2   0  11  104.16    6.99
   3   0  11   32.73    4.76
   4   0  11   88.73    7.01
   5   0  11   11.29    4.07
   6   0  11    8.36    3.72
   7   0  11   30.11    4.97
   8   0  11    8.47    3.95
 -10   0 -11   13.01    4.74
 -10   0 -11    1.93    3.25
 -18   1  11   -0.97    1.62
 -17   1  11    3.17    2.89
 -16   1  11    4.43    2.90
 -15   1  11   75.20    6.81
 -14   1  11    0.12    2.06
 -13   1  11   33.54    4.42
 -12   1  11   11.09    2.73
 -11   1  11   23.04    3.91
 -11   1  11   19.10    3.28
 -10   1  11    9.51    2.43
 -10   1  11   13.79    3.36
  -9   1  11  126.87    6.81
  -9   1  11  117.46    5.86
  -8   1  11  121.82    5.79
  -8   1  11  119.51    6.70
  -7   1  11  318.63   11.33
  -7   1  11  315.76    9.90
  -6   1  11   79.01    5.45
  -6   1  11   79.68    4.17
  -5   1  11   39.97    2.84
  -5   1  11   35.47    3.96
  -3   1  11   23.96    3.58
  -3   1  11   25.20    2.29
   2  -1 -11   69.70    3.64
  -2   1  11   66.55    5.40
  -2   1  11   69.19    3.58
  -1   1  11  327.04    9.13
  -1   1  11  298.18   11.61
   1  -1 -11  315.61    9.33
   0   1  11  156.03    8.03
   0  -1 -11  161.93    5.97
   0   1  11  160.19    5.87
  -1  -1 -11  104.51    4.82
   1   1  11  107.29    7.14
  -2  -1 -11   -0.40    1.44
   2   1  11    5.18    3.24
   3   1  11   24.06    4.33
   4   1  11   24.68    4.52
   5   1  11   22.05    4.45
   6   1  11   51.57    5.96
   7   1  11   45.04    5.92
   8   1  11    8.95    4.19
   9   1  11   -6.75    3.27
 -18   2  11   -0.59    1.25
 -17   2  11    2.93    3.03
 -16   2  11   26.30    4.81
 -15   2  11    9.41    3.16
 -14   2  11    5.32    2.61
 -13   2  11    5.47    2.47
 -12   2  11    8.08    3.34
 -12   2  11    6.48    2.33
 -11   2  11   16.42    3.03
 -11   2  11   19.09    3.88
 -10   2  11  218.15    8.70
 -10   2  11  236.06    9.74
  -9   2  11    1.55    1.45
  -9   2  11   -0.46    2.77
  -8   2  11   94.58    6.24
  -8   2  11   83.05    4.59
  -7   2  11   22.32    3.62
  -7   2  11   26.89    2.70
  -6   2  11   25.48    3.68
  -5   2  11   63.42    3.38
  -5   2  11   63.09    5.20
  -4   2  11   31.27    2.42
  -4   2  11   34.31    4.06
  -3   2  11   -1.81    2.20
  -3   2  11    1.38    1.14
  -2   2  11  603.86   14.45
   2  -2 -11  601.72   16.00
  -2   2  11  602.58   18.35
  -1   2  11   71.68    5.67
   1  -2 -11   68.71    3.88
  -1   2  11   64.13    3.36
   0   2  11  188.01    9.14
   0  -2 -11  194.23    7.17
   1   2  11   24.78    4.06
  -1  -2 -11   30.71    3.06
  -2  -2 -11    8.20    2.21
   2   2  11   11.31    3.59
   3   2  11   14.55    3.92
  -3  -2 -11   15.90    2.85
  -4  -2 -11    3.98    2.12
   4   2  11    3.59    3.30
   5   2  11   -3.17    2.70
   6   2  11  103.13    7.64
   7   2  11    6.17    3.52
   8   2  11    1.07    3.28
   9   2  11    4.74    4.04
 -19   3  11   -0.01    2.07
 -18   3  11   -0.77    2.56
 -17   3  11   14.86    4.08
 -16   3  11   -3.33    2.14
 -15   3  11    4.73    2.47
 -14   3  11    3.19    2.44
 -13   3  11   80.42    5.81
 -13   3  11  100.14    7.12
 -12   3  11    9.08    3.62
 -12   3  11    0.64    1.86
 -11   3  11   36.83    4.99
 -11   3  11   28.40    3.54
 -10   3  11   -1.37    2.83
 -10   3  11    3.34    1.73
  -9   3  11   -2.11    2.85
  -9   3  11    0.84    1.39
  -8   3  11    1.24    1.25
  -8   3  11   -2.11    2.75
  -7   3  11   52.15    3.24
  -7   3  11   65.98    5.43
  -6   3  11    8.23    3.13
  -6   3  11   13.24    1.81
  -5   3  11   10.64    1.57
  -5   3  11   13.89    3.33
  -4   3  11   19.21    3.62
  -4   3  11   16.85    1.77
  -3   3  11  123.88    7.26
   3  -3 -11  124.12    5.68
  -3   3  11  131.42    4.47
   2  -3 -11    0.41    1.28
  -2   3  11    0.21    2.48
  -2   3  11    1.10    1.12
   1  -3 -11   72.59    4.31
  -1   3  11   69.03    5.66
   0  -3 -11    0.13    1.44
   0   3  11    1.30    2.78
  -1  -3 -11    1.57    1.74
   1   3  11   -0.89    2.36
   2   3  11   79.66    6.61
  -2  -3 -11   94.21    5.66
  -3  -3 -11   95.91    5.98
   3   3  11   91.23    7.09
  -4  -3 -11   -0.28    1.96
   4   3  11    4.05    3.07
   5   3  11   21.10    4.25
  -5  -3 -11   25.90    4.04
   6   3  11    0.17    3.18
   7   3  11   -0.20    3.13
   8   3  11    1.77    3.15
 -19   4  11   -0.19    3.44
 -18   4  11    2.98    2.88
 -17   4  11   -1.70    2.18
 -16   4  11    5.98    3.00
 -15   4  11   -2.67    1.90
 -14   4  11   66.87    5.87
 -14   4  11   72.32    6.29
 -13   4  11    9.41    3.72
 -13   4  11    6.99    2.57
 -12   4  11    0.08    3.12
 -12   4  11   -0.59    1.55
 -11   4  11   14.96    2.72
 -11   4  11   18.45    4.15
 -10   4  11   10.90    3.82
 -10   4  11    9.79    2.22
  -9   4  11    7.73    3.45
  -9   4  11    7.02    1.67
  -8   4  11    1.31    1.30
  -8   4  11    2.01    2.92
  -7   4  11   63.61    3.48
  -7   4  11   66.43    5.41
  -6   4  11   26.21    3.94
  -6   4  11   22.05    1.97
  -5   4  11    1.77    2.63
  -5   4  11    0.57    0.94
  -4   4  11  216.13    9.66
   4  -4 -11  211.07    8.25
  -4   4  11  210.37    5.98
   3  -4 -11  133.99    6.23
  -3   4  11  143.06    7.69
  -2   4  11   40.47    4.82
   2  -4 -11   41.51    3.61
  -1   4  11    3.14    2.91
   1  -4 -11    4.80    1.74
   0   4  11    4.34    3.11
   0  -4 -11    2.26    1.82
  -1  -4 -11   32.44    3.75
   1   4  11   25.15    4.39
   2   4  11    3.49    3.11
  -2  -4 -11    3.33    2.28
   3   4  11  135.06    8.35
  -3  -4 -11  128.38    7.26
   4   4  11   47.29    5.33
  -4  -4 -11   48.24    4.99
  -5  -4 -11   14.30    3.46
  -6  -4 -11   33.88    4.99
   6   4  11   29.66    5.10
   7   4  11    6.05    3.86
 -19   5  11    5.51    3.40
 -18   5  11    1.32    3.08
 -17   5  11    1.74    2.87
 -16   5  11   -0.59    2.28
 -15   5  11   67.46    6.75
 -15   5  11   65.21    6.20
 -14   5  11    7.39    3.92
 -13   5  11   12.10    3.04
 -13   5  11   15.86    4.23
 -12   5  11   27.92    3.67
 -12   5  11   29.67    4.66
 -11   5  11   21.59    3.03
 -11   5  11   29.17    4.86
  -9   5  11    8.10    3.54
  -9   5  11    1.43    1.33
  -8   5  11    4.55    1.48
  -8   5  11    3.88    3.17
  -7   5  11   55.61    5.47
  -7   5  11   55.80    3.08
  -6   5  11  110.77    7.27
   5  -5 -11  317.29   11.25
  -5   5  11  336.41   12.75
  -4   5  11   31.87    4.46
   4  -5 -11   33.33    3.49
  -3   5  11   35.88    4.51
   3  -5 -11   30.84    3.46
   2  -5 -11   -1.46    1.34
  -2   5  11   -0.33    2.77
  -1   5  11   34.10    4.51
   1  -5 -11   32.22    3.71
   0   5  11   41.02    4.98
   0  -5 -11   40.14    4.18
  -1  -5 -11   37.02    4.24
   1   5  11   42.07    5.13
  -2  -5 -11   42.38    4.78
   2   5  11   40.92    5.05
  -3  -5 -11   11.80    3.23
   3   5  11   14.29    3.79
  -4  -5 -11    5.33    2.37
   4   5  11   10.14    3.66
   5   5  11   19.76    4.24
  -5  -5 -11   14.22    3.62
  -6  -5 -11    2.75    2.77
   6   5  11    2.22    3.20
 -19   6  11   18.70    4.49
 -18   6  11   31.03    5.39
 -17   6  11    3.92    2.91
 -16   6  11   17.03    4.04
 -16   6  11   14.32    4.75
 -15   6  11    4.01    2.43
 -15   6  11    7.11    4.11
 -14   6  11   39.73    4.64
 -14   6  11   49.96    5.86
 -13   6  11   23.24    4.77
 -13   6  11   16.50    3.27
 -12   6  11    2.57    3.62
 -12   6  11    0.96    1.65
 -10   6  11  102.81    5.10
 -10   6  11   86.65    7.35
  -9   6  11   -4.69    3.02
  -8   6  11  190.27    9.66
  -7   6  11   71.94    6.20
  -6   6  11  120.25    7.69
   5  -6 -11   17.48    3.08
  -5   6  11   17.11    3.86
   4  -6 -11   27.02    3.50
  -4   6  11   30.97    4.27
   3  -6 -11   -0.10    1.52
  -3   6  11    3.53    3.10
  -2   6  11  194.59    9.64
   2  -6 -11  186.65    8.45
   1  -6 -11   -2.48    1.50
  -1   6  11    3.30    3.20
   0   6  11   26.40    4.62
   0  -6 -11   21.38    3.53
   1   6  11    3.88    3.23
  -1  -6 -11    6.57    2.47
   2   6  11    0.89    2.74
  -2  -6 -11   -0.39    1.97
  -3  -6 -11   22.99    4.33
   3   6  11   30.22    4.84
   4   6  11   42.01    5.28
  -4  -6 -11   54.10    6.02
  -5  -6 -11   10.08    3.45
   5   6  11   16.02    4.23
  -6  -6 -11   19.94    4.59
  -7  -6 -11    7.61    3.74
 -19   7  11    8.41    3.43
 -18   7  11    7.29    3.45
 -17   7  11   -1.36    2.30
 -16   7  11    7.40    4.14
 -16   7  11   -1.19    2.29
 -15   7  11    3.75    2.34
 -15   7  11    0.88    3.63
 -14   7  11    2.56    3.90
 -14   7  11    4.32    2.55
 -13   7  11    9.59    3.98
 -13   7  11    3.23    2.32
 -12   7  11    2.64    3.57
 -11   7  11   10.09    4.10
 -10   7  11   -0.86    3.41
  -9   7  11   54.77    5.90
  -8   7  11   17.81    4.27
  -7   7  11   -6.17    2.87
   6  -7 -11   22.82    3.56
  -6   7  11   22.49    4.29
  -5   7  11    1.58    3.00
   5  -7 -11    0.67    1.68
  -4   7  11   18.05    3.91
   4  -7 -11   12.28    2.87
   3  -7 -11   60.38    5.17
  -3   7  11   63.23    6.00
   2  -7 -11   29.02    3.99
  -2   7  11   28.44    4.74
   1  -7 -11    0.30    1.76
  -1   7  11   -0.63    2.86
   0  -7 -11   32.51    4.38
   0   7  11   38.28    5.09
   1   7  11    6.91    3.23
  -1  -7 -11    6.62    2.66
   2   7  11    6.29    3.33
  -2  -7 -11    3.21    2.60
  -3  -7 -11   24.24    4.50
   3   7  11   23.41    4.54
  -4  -7 -11    3.90    3.03
   4   7  11    1.11    3.18
  -5  -7 -11   14.47    4.20
  -6  -7 -11    7.37    3.76
  -7  -7 -11   13.54    4.71
 -19   8  11    3.17    2.94
 -18   8  11    1.61    2.92
 -17   8  11    5.27    4.24
 -16   8  11   -0.66    3.86
 -15   8  11    2.44    3.85
 -14   8  11    8.36    4.28
 -13   8  11    3.82    3.82
 -12   8  11   -1.53    3.51
 -11   8  11   -1.41    3.37
 -10   8  11    9.80    4.20
  -9   8  11   84.19    7.22
  -8   8  11    3.84    3.66
  -7   8  11   -0.92    3.11
   6  -8 -11   43.59    4.73
  -6   8  11   37.93    5.20
   5  -8 -11   83.62    5.96
  -5   8  11   82.90    6.85
  -4   8  11   34.92    4.98
   4  -8 -11   36.63    4.41
   3  -8 -11   26.54    4.09
  -3   8  11   28.77    4.74
   2  -8 -11    0.35    2.05
  -2   8  11    3.90    3.13
  -1   8  11   18.14    4.09
   1  -8 -11   19.12    3.64
   0   8  11    4.76    3.32
   0  -8 -11    5.12    2.37
   1   8  11    7.48    3.26
  -1  -8 -11   -0.25    1.93
  -2  -8 -11   10.77    3.35
   2   8  11    9.47    3.54
  -3  -8 -11   14.78    4.11
   3   8  11    5.21    3.33
  -4  -8 -11   52.90    6.83
  -5  -8 -11    3.05    3.59
  -6  -8 -11   38.00    6.64
  -7  -8 -11   -4.23    3.91
  -8  -8 -11    3.09    6.31
 -18   9  11    3.74    5.10
 -17   9  11    4.79    4.37
 -16   9  11    1.26    4.04
 -15   9  11   17.72    5.15
 -14   9  11   17.27    5.20
 -13   9  11   86.16    7.78
 -12   9  11   18.64    4.95
 -11   9  11    5.64    4.01
 -10   9  11   60.79    6.42
  -9   9  11   13.95    4.35
  -8   9  11    3.31    3.25
   7  -9 -11   70.47    5.73
  -7   9  11   72.14    6.74
  -6   9  11    2.44    3.39
   6  -9 -11   -0.99    1.91
   5  -9 -11  108.34    7.01
  -5   9  11  110.72    7.69
  -4   9  11    8.94    3.79
   4  -9 -11   11.17    3.13
  -3   9  11   18.91    4.32
   3  -9 -11   18.51    3.80
   2  -9 -11   -0.60    1.99
  -2   9  11    3.40    3.23
   1  -9 -11   21.94    4.21
  -1   9  11   18.75    4.22
   0  -9 -11   16.52    3.99
  -1  -9 -11    6.74    3.23
   1   9  11   16.42    4.06
  -2  -9 -11    3.63    2.89
   2   9  11    4.67    3.26
  -3  -9 -11   59.76    7.18
  -4  -9 -11    0.01    3.34
  -5  -9 -11   31.10    6.38
  -6  -9 -11    3.92    4.50
  -7  -9 -11    4.97    5.64
 -19  10  11    6.99    6.06
 -18  10  11   10.04    5.44
 -17  10  11   -0.64    4.51
 -16  10  11   17.45    5.55
 -15  10  11    8.57    4.67
 -14  10  11   52.85    7.15
 -13  10  11   12.98    4.79
 -12  10  11    1.79    3.87
 -11  10  11   -1.36    3.39
 -10  10  11   -3.12    3.24
  -9  10  11   -0.84    2.94
  -8  10  11   78.26    7.03
   7 -10 -11   -1.28    1.79
  -7  10  11    1.67    2.64
  -6  10  11   64.63    6.36
   6 -10 -11   59.40    5.82
   5 -10 -11    2.50    2.42
  -5  10  11    6.28    3.33
   4 -10 -11    3.25    2.51
  -4  10  11    2.89    3.01
  -3  10  11   38.37    5.24
   3 -10 -11   34.51    5.10
   2 -10 -11  112.51    7.88
  -2  10  11  119.83    7.89
   1 -10 -11   13.57    3.77
  -1  10  11   17.69    4.15
   0 -10 -11   99.94    7.68
   0  10  11   84.23    7.10
   1  10  11   14.21    4.06
  -1 -10 -11   15.60    4.07
  -2 -10 -11   32.17    5.66
  -3 -10 -11    1.82    3.33
  -5 -10 -11    6.41    4.72
  -6 -10 -11    6.48    5.46
 -19  11  11    1.69    5.63
 -18  11  11   13.76    5.95
 -17  11  11   10.65    5.47
 -16  11  11    9.41    5.54
 -15  11  11   45.48    7.03
 -14  11  11    6.51    4.46
 -13  11  11   24.64    5.69
 -12  11  11   16.79    5.07
 -11  11  11   39.46    6.16
 -10  11  11   16.86    4.70
  -9  11  11    7.17    3.69
  -8  11  11    7.99    3.55
   8 -11 -11    1.59    2.43
  -7  11  11   -1.19    2.52
   7 -11 -11    4.48    2.76
  -6  11  11    2.27    3.09
   6 -11 -11    1.85    2.55
  -5  11  11   24.70    4.65
   5 -11 -11   26.95    4.67
   4 -11 -11    0.86    2.54
  -4  11  11    0.34    2.85
   3 -11 -11  109.10    8.01
  -3  11  11  101.42    7.72
   2 -11 -11    0.78    2.57
  -2  11  11    1.22    2.87
  -1  11  11   72.02    6.77
   1 -11 -11   61.16    6.91
   0  11  11   25.28    4.82
   0 -11 -11   37.40    6.00
  -1 -11 -11   24.82    5.18
  -2 -11 -11   12.58    4.22
  -3 -11 -11   -1.14    3.34
  -4 -11 -11   -3.94    3.35
  -5 -11 -11    6.60    5.04
 -18  12  11    5.49    5.93
 -17  12  11   -0.23    4.70
 -16  12  11    2.24    4.49
 -15  12  11   -1.32    4.29
 -14  12  11   23.87    5.74
 -13  12  11   92.90    8.89
 -12  12  11   38.06    6.45
 -11  12  11   29.03    5.76
 -10  12  11   19.38    5.15
  -9  12  11   -0.48    3.32
  -8  12  11   12.35    4.21
   8 -12 -11   13.87    3.75
   7 -12 -11    1.44    2.35
  -7  12  11    0.16    3.07
  -6  12  11    5.32    3.39
   6 -12 -11    1.35    2.83
   5 -12 -11   -1.11    2.50
  -5  12  11   -1.19    2.92
   4 -12 -11   35.40    5.66
  -4  12  11   51.40    6.13
   3 -12 -11    2.37    3.15
  -3  12  11    1.17    3.14
   2 -12 -11   13.71    4.24
  -2  12  11   13.57    4.11
  -1  12  11   24.88    4.78
   1 -12 -11   28.19    5.60
   0 -12 -11  163.98   10.97
  -1 -12 -11   -3.77    2.93
  -2 -12 -11    1.17    3.78
  -3 -12 -11    1.38    4.02
 -17  13  11   -2.83    4.69
 -16  13  11   17.82    5.96
 -15  13  11    5.81    4.93
 -14  13  11    3.98    4.59
 -13  13  11   45.85    7.28
 -12  13  11   28.39    5.96
 -11  13  11    4.03    4.24
 -10  13  11    0.38    3.56
  -9  13  11    9.92    4.11
   8 -13 -11   13.70    4.16
  -8  13  11   -0.85    3.22
  -7  13  11    4.12    3.45
   7 -13 -11    0.76    2.78
   6 -13 -11   -1.48    2.85
  -6  13  11    0.63    2.90
   5 -13 -11  105.79    8.57
  -5  13  11  118.08    8.38
  -4  13  11   11.34    4.10
   4 -13 -11    4.38    3.47
  -3  13  11   37.34    5.69
   3 -13 -11   35.22    5.95
   2 -13 -11    7.16    4.23
  -2  13  11    5.75    3.37
   1 -13 -11    2.05    3.64
   0 -13 -11   20.64    5.66
  -1 -13 -11   19.54    5.91
  -2 -13 -11   -0.60    3.76
 -16  14  11    7.23    5.37
 -15  14  11   21.98    6.37
 -14  14  11    5.61    4.89
 -13  14  11   -5.02    3.72
 -12  14  11   -0.23    3.67
 -11  14  11    2.28    4.12
 -10  14  11   15.57    5.21
  -9  14  11    1.16    3.56
  -8  14  11   27.46    5.59
   8 -14 -11   14.93    4.47
  -7  14  11   42.89    6.28
   7 -14 -11   38.84    6.25
  -6  14  11   20.91    4.88
   6 -14 -11   21.06    5.35
  -5  14  11   14.46    4.48
   5 -14 -11    0.69    3.57
   4 -14 -11   10.56    4.52
  -4  14  11   10.49    4.19
   3 -14 -11    2.18    3.86
  -3  14  11    0.86    3.34
   2 -14 -11   20.42    5.89
   1 -14 -11    2.83    4.09
   0 -14 -11   19.35    5.76
 -14  15  11    4.11    1.92
 -13  15  11    1.36    1.72
 -12  15  11    0.88    2.89
 -11  15  11    1.14    4.27
 -10  15  11   45.94    7.02
   9 -15 -11  102.68    9.37
  -9  15  11   82.44    8.24
   8 -15 -11   37.20    6.55
  -8  15  11   34.20    6.07
   7 -15 -11   24.42    5.64
  -7  15  11   17.43    4.80
  -6  15  11    6.35    3.58
   6 -15 -11   10.15    4.61
  -5  15  11    4.86    3.71
   5 -15 -11    0.98    4.03
   4 -15 -11    4.74    4.47
  -4  15  11    3.02    3.52
   3 -15 -11   30.49    6.70
   2 -15 -11    7.39    4.84
 -13  16  11    1.67    1.93
 -12  16  11    0.04    1.61
 -11  16  11   -0.95    1.45
 -10  16  11    0.96    2.28
   9 -16 -11   11.27    4.55
  -9  16  11   15.93    5.41
  -8  16  11    6.84    3.95
   8 -16 -11    5.59    4.31
   7 -16 -11   -3.20    3.48
  -7  16  11    6.86    3.88
   6 -16 -11   -2.55    3.80
  -6  16  11    1.93    3.38
   5 -16 -11   19.52    5.60
   4 -16 -11   11.14    5.22
 -11  17  11   -0.38    1.68
 -10  17  11   13.18    5.66
  -9  17  11    9.88    4.77
  -8  17  11    2.19    3.82
  -7  17  11    7.10    3.62
  -1 -17  12    4.49    4.46
   0 -17  12    3.01    3.92
   1 -17  12    1.55    3.79
   2 -17  12    5.36    4.07
   3 -17  12    8.03    4.16
   4 -17  12    8.29    4.15
   5 -17  12    9.83    4.53
  -4 -16  12    5.83    4.51
  -3 -16  12    2.23    3.93
  -2 -16  12    8.28    4.41
  -1 -16  12    2.70    3.80
   0 -16  12    2.92    3.72
   1 -16  12    9.45    4.26
   2 -16  12   -3.88    2.72
   3 -16  12    6.49    3.86
   4 -16  12   14.00    4.60
   5 -16  12    3.86    3.59
   6 -16  12    0.55    3.74
  -6  16 -12   -2.77    3.83
  -7  16 -12    5.38    4.03
   7 -16  12   -7.20    3.13
  -8  16 -12   -2.36    4.70
  -5 -15  12   13.90    4.82
  -4 -15  12    2.84    3.70
  -3 -15  12    9.81    4.23
  -2 -15  12    1.16    3.23
  -1 -15  12    8.27    4.16
   0 -15  12   -0.47    3.20
   1 -15  12   22.95    5.31
   2 -15  12    6.22    3.55
   3 -15  12   25.43    4.89
   4 -15  12   -0.77    2.91
  -5  15 -12   -2.76    3.59
   5 -15  12    5.65    3.56
   6 -15  12   -1.88    3.28
  -6  15 -12    0.99    3.82
   7 -15  12   11.47    4.33
  -7  15 -12    7.71    5.09
  -8  15 -12    0.49    4.22
  -9  15 -12   -1.14    4.65
  -7 -14  12   -0.54    3.36
  -6 -14  12    4.28    3.50
  -5 -14  12   -0.96    3.24
  -4 -14  12    1.39    3.48
  -3 -14  12    6.38    3.65
  -2 -14  12   48.30    6.27
  -1 -14  12   -1.34    2.74
   0 -14  12   17.69    4.18
   1 -14  12    1.82    3.03
   2 -14  12   38.81    5.44
   3 -14  12   -1.89    2.35
   4 -14  12   -2.89    2.16
  -4  14 -12   -4.69    3.21
  -5  14 -12    4.11    4.18
   5 -14  12    3.72    3.08
   6 -14  12   -1.69    2.84
  -6  14 -12   -7.80    2.88
  -7  14 -12    3.84    4.11
   7 -14  12    2.91    3.51
  -8  14 -12   20.54    5.82
  -9  14 -12   -3.81    2.02
  -8 -13  12   -1.20    2.87
  -7 -13  12    3.47    3.11
  -6 -13  12    7.10    3.72
  -5 -13  12    4.13    3.38
  -4 -13  12    5.54    3.42
  -3 -13  12   67.82    6.80
  -2 -13  12   12.29    3.66
  -1 -13  12   26.42    4.76
   0 -13  12   -3.53    2.73
   1 -13  12   14.84    4.04
   2 -13  12    3.46    2.78
  -3  13 -12   -1.88    3.41
   3 -13  12    0.85    2.75
  -4  13 -12   -3.49    3.44
   4 -13  12    0.92    2.82
   5 -13  12    2.54    2.78
  -5  13 -12   -2.46    2.95
   6 -13  12    1.10    2.94
  -6  13 -12    1.05    3.83
  -7  13 -12   17.36    5.64
   7 -13  12   16.13    4.20
  -8  13 -12   -4.92    3.49
  -9  13 -12   -1.09    2.26
 -10  13 -12   -3.21    2.24
  -9 -12  12   11.76    4.40
  -8 -12  12    0.58    2.79
  -7 -12  12    3.42    3.31
  -6 -12  12   18.48    4.45
  -5 -12  12   -0.85    2.27
  -4 -12  12   54.66    6.20
  -3 -12  12    2.56    2.90
  -2 -12  12    5.03    3.06
  -1 -12  12   14.21    3.53
   0 -12  12   30.28    4.97
   1 -12  12    4.38    2.89
  -2  12 -12   11.81    3.74
   2 -12  12   13.59    3.51
  -3  12 -12    6.16    3.45
   3 -12  12    4.20    2.62
  -4  12 -12   35.01    6.08
   4 -12  12   33.62    5.15
  -5  12 -12    7.55    4.10
   5 -12  12    5.79    3.19
  -6  12 -12   22.36    5.49
   6 -12  12   29.24    5.18
  -7  12 -12    5.22    3.98
   7 -12  12    6.47    3.58
  -8  12 -12    0.99    3.63
  -9  12 -12    3.74    3.88
 -10  12 -12   -1.02    2.18
 -11  12 -12   -1.16    2.21
 -10 -11  12    5.66    3.37
  -9 -11  12    0.45    2.98
  -8 -11  12   -2.32    2.25
  -7 -11  12   19.59    4.35
  -6 -11  12    5.50    2.79
  -5 -11  12   30.25    4.85
  -4 -11  12   -0.72    2.36
  -3 -11  12   19.05    4.05
  -2 -11  12   31.60    4.73
  -1 -11  12    5.07    2.64
   0 -11  12    4.11    2.74
   1 -11  12    6.65    2.84
  -1  11 -12    9.40    3.56
  -2  11 -12   12.34    3.77
   2 -11  12   15.33    3.37
  -3  11 -12   76.29    7.55
   3 -11  12   80.41    6.06
  -4  11 -12   21.82    5.11
   4 -11  12   22.86    4.19
  -5  11 -12   44.28    6.66
   5 -11  12   27.68    4.58
   6 -11  12    2.29    2.96
  -6  11 -12    1.07    3.20
  -7  11 -12    2.03    3.50
  -8  11 -12    4.18    3.78
  -9  11 -12    3.68    4.05
 -10  11 -12   -3.11    1.77
 -11  11 -12   -0.73    2.06
 -11 -10  12    0.00    2.77
 -10 -10  12    2.38    3.04
  -9 -10  12    0.70    2.66
  -8 -10  12   16.02    3.90
  -7 -10  12    9.20    3.37
  -6 -10  12   66.39    6.41
  -5 -10  12    1.25    2.40
  -4 -10  12  182.44    9.43
  -3 -10  12    2.01    2.39
  -2 -10  12    3.36    2.34
  -1 -10  12    6.77    2.90
   0  10 -12    9.51    3.25
   0  10 -12    3.10    2.88
   0 -10  12   10.86    3.22
   1 -10  12    0.54    2.06
  -1  10 -12    1.01    2.44
  -1  10 -12   -1.52    2.37
   2 -10  12   24.09    3.97
  -2  10 -12   31.66    5.18
  -2  10 -12   35.13    5.04
  -3  10 -12    5.93    3.23
   3 -10  12   13.70    3.27
  -3  10 -12   10.67    3.61
  -4  10 -12   -1.13    2.85
   4 -10  12   -0.60    2.18
  -4  10 -12   -3.49    2.13
   5 -10  12   -0.23    2.17
  -5  10 -12   -1.34    2.72
  -6  10 -12    2.13    3.26
   6 -10  12    3.57    2.82
  -7  10 -12   28.53    5.84
  -8  10 -12   19.80    5.00
  -9  10 -12   -3.33    3.33
 -10  10 -12    0.69    3.29
 -11  10 -12    1.10    4.59
 -12  -9  12   -0.67    2.49
 -11  -9  12   11.53    3.94
 -10  -9  12   13.11    3.74
  -9  -9  12   43.53    5.47
  -8  -9  12   14.22    3.85
  -7  -9  12   65.81    6.19
  -6  -9  12   34.41    4.81
  -5  -9  12    0.35    2.20
  -4  -9  12    7.56    2.70
  -3  -9  12   12.32    3.30
  -2  -9  12   42.07    4.70
   1   9 -12   29.16    4.31
   1   9 -12   26.37    3.90
  -1  -9  12   24.12    3.96
   0   9 -12   17.68    3.71
   0  -9  12   17.48    3.48
   0   9 -12   27.92    4.41
  -1   9 -12   -0.65    2.37
   1  -9  12    5.18    2.43
  -1   9 -12    0.52    2.42
  -2   9 -12   31.76    5.01
  -2   9 -12   23.63    4.39
   2  -9  12   21.27    3.60
  -3   9 -12   -0.62    2.32
  -3   9 -12   -1.64    2.36
   3  -9  12   -0.08    1.81
  -4   9 -12   10.12    3.64
  -4   9 -12    8.04    3.36
   4  -9  12   14.64    3.51
   5  -9  12   17.77    3.72
  -5   9 -12   14.33    4.09
  -5   9 -12   16.26    4.32
   6  -9  12    2.66    2.71
  -6   9 -12    4.21    3.27
  -6   9 -12   -0.56    2.92
  -7   9 -12   44.83    6.38
  -7   9 -12   38.35    6.40
  -8   9 -12   -0.24    2.87
  -9   9 -12   14.54    4.95
 -10   9 -12    9.09    4.86
 -11   9 -12    3.63    4.60
 -12   9 -12    0.93    4.63
 -13  -8  12   10.03    3.66
 -12  -8  12    7.66    3.50
 -11  -8  12   17.84    4.20
 -10  -8  12   -1.75    2.08
  -9  -8  12    1.96    2.52
  -8  -8  12    8.49    3.13
  -7  -8  12   -2.09    1.87
  -6  -8  12  114.89    7.26
  -5  -8  12    1.24    2.28
  -4  -8  12   -0.77    2.02
  -3  -8  12    7.13    2.48
   2   8 -12    1.63    1.15
  -2  -8  12    0.61    1.70
   1   8 -12   13.90    3.13
   1   8 -12   10.19    3.17
  -1  -8  12    8.76    2.69
   0   8 -12   -0.38    2.48
   0   8 -12    3.07    2.36
   0  -8  12    2.94    2.10
  -1   8 -12   -3.87    1.99
   1  -8  12    3.50    2.30
  -1   8 -12    1.67    2.37
  -2   8 -12   11.95    3.33
  -2   8 -12   11.89    3.54
   2  -8  12    9.19    2.69
   3  -8  12   75.43    5.56
  -3   8 -12   70.67    6.81
  -3   8 -12   78.11    6.47
   4  -8  12    3.11    2.21
  -4   8 -12    0.86    2.48
  -4   8 -12    5.06    2.86
  -5   8 -12   -0.85    2.73
   5  -8  12    1.19    2.11
  -5   8 -12    0.75    2.67
  -6   8 -12   49.32    6.20
  -6   8 -12   53.85    6.72
  -7   8 -12    2.33    3.12
  -7   8 -12    0.77    2.97
  -8   8 -12    1.80    3.27
  -8   8 -12   -0.92    2.88
  -9   8 -12    2.47    3.85
 -10   8 -12    3.10    4.14
 -11   8 -12    3.43    4.25
 -12   8 -12    4.01    5.13
 -14  -7  12    5.89    3.25
 -13  -7  12   -0.95    2.57
 -12  -7  12   18.40    4.24
 -11  -7  12    1.81    2.76
 -10  -7  12    4.45    2.64
  -9  -7  12   49.22    5.32
  -8  -7  12   42.88    4.96
  -7  -7  12    4.87    2.48
  -6  -7  12    1.44    1.93
  -5  -7  12    3.74    2.14
  -4  -7  12    4.88    2.20
  -3  -7  12    1.42    2.63
  -3  -7  12    4.53    2.26
  -2  -7  12    4.45    2.25
  -2  -7  12    7.69    3.08
  -1  -7  12   34.66    4.32
  -1  -7  12   38.92    4.18
   0  -7  12    1.93    1.88
   0  -7  12   -1.47    2.98
   1  -7  12   19.90    4.21
   1  -7  12    9.02    2.70
   2  -7  12    1.55    2.10
  -3   7 -12    2.09    2.30
  -3   7 -12    4.05    3.10
   3  -7  12    1.52    2.02
   4  -7  12    2.50    2.14
  -4   7 -12    8.73    3.41
  -4   7 -12    3.67    2.67
   5  -7  12   47.67    5.03
  -5   7 -12   44.39    5.53
  -5   7 -12   33.50    5.43
  -6   7 -12   34.62    5.24
  -6   7 -12   27.47    5.15
  -7   7 -12    5.43    3.17
  -7   7 -12   -0.33    2.38
  -8   7 -12    1.94    3.02
  -8   7 -12    7.63    3.96
  -9   7 -12    1.10    3.24
  -9   7 -12    0.85    3.41
 -10   7 -12   -3.10    3.23
 -10   7 -12   -6.44    2.94
 -11   7 -12   19.81    5.96
 -12   7 -12   -1.15    4.31
 -14  -6  12   30.36    5.49
 -13  -6  12   30.27    5.17
 -12  -6  12    7.01    3.22
 -11  -6  12    4.81    2.71
 -10  -6  12   10.21    3.16
  -9  -6  12   19.35    3.71
  -8  -6  12    1.57    1.81
  -7  -6  12   42.81    4.70
  -6  -6  12   -1.48    1.69
  -5  -6  12    1.06    1.81
  -4  -6  12   17.22    3.19
  -4  -6  12   17.35    3.10
  -3  -6  12    6.72    2.41
  -3  -6  12    7.19    2.96
  -2  -6  12    2.38    1.72
  -2  -6  12    0.45    2.91
  -1  -6  12    8.12    3.29
  -1  -6  12    7.93    2.28
   0  -6  12  262.65   10.58
   0  -6  12  222.47    9.07
   1  -6  12   17.42    3.08
   1  -6  12   14.74    3.84
   2  -6  12  133.67    6.93
   2  -6  12  150.35    8.59
   3  -6  12    1.03    2.00
   3  -6  12   -3.63    3.32
   4  -6  12   31.14    4.07
   4  -6  12   27.96    4.98
  -5   6 -12   20.26    4.37
  -5   6 -12   15.04    3.64
   5  -6  12    9.36    2.83
  -6   6 -12    1.79    2.65
  -6   6 -12    7.25    3.33
  -7   6 -12    6.38    3.11
  -7   6 -12   10.73    3.90
  -8   6 -12   27.19    5.71
  -8   6 -12   28.45    5.10
  -9   6 -12    0.24    3.13
  -9   6 -12   -1.33    3.03
 -10   6 -12   31.74    6.49
 -10   6 -12   37.93    6.34
 -11   6 -12    0.45    4.03
 -12   6 -12   -1.14    4.44
 -15  -5  12   14.94    4.49
 -14  -5  12    2.11    2.68
 -13  -5  12    6.18    3.01
 -12  -5  12    3.32    2.60
 -11  -5  12    2.39    2.16
 -10  -5  12    6.46    2.52
  -9  -5  12   40.92    4.67
  -8  -5  12  125.48    7.15
  -7  -5  12    4.90    2.29
  -6  -5  12    8.27    2.59
  -5  -5  12    1.60    2.45
  -5  -5  12    3.77    2.04
  -4  -5  12    2.08    1.94
  -4  -5  12    3.40    2.51
  -3  -5  12    9.60    2.41
  -3  -5  12    8.74    2.95
  -2  -5  12   -0.66    1.49
  -2  -5  12   -1.20    2.70
  -1  -5  12  208.25    8.46
  -1  -5  12  225.63    9.63
   0  -5  12  120.02    6.30
   0  -5  12  137.53    7.79
   1  -5  12  157.00    7.12
   1  -5  12  138.71    8.30
   2  -5  12   44.65    5.37
   2  -5  12   37.59    4.00
   3  -5  12   60.27    6.02
   3  -5  12   59.68    4.93
   4  -5  12   -0.32    3.40
   4  -5  12   -0.36    2.10
   5  -5  12   16.22    4.58
  -6   5 -12    0.35    2.42
  -6   5 -12   -1.32    2.67
  -7   5 -12  101.30    7.91
  -7   5 -12   90.40    8.31
  -8   5 -12   15.72    4.61
  -8   5 -12   14.51    4.12
  -9   5 -12   53.28    7.49
  -9   5 -12   46.85    6.46
 -10   5 -12    7.46    4.27
 -10   5 -12    2.26    3.52
 -11   5 -12   -0.35    4.04
 -11   5 -12    0.84    3.60
 -12   5 -12    0.05    4.43
 -16  -4  12   -2.40    1.54
 -15  -4  12   -0.61    1.09
 -14  -4  12   -1.06    2.20
 -13  -4  12    8.91    3.30
 -12  -4  12   12.70    3.32
 -11  -4  12   30.54    4.39
 -10  -4  12   19.10    3.55
  -9  -4  12   45.10    4.65
  -8  -4  12   10.71    2.87
  -7  -4  12    7.63    2.48
  -6  -4  12   30.10    3.60
  -6  -4  12   30.72    3.78
  -5  -4  12    1.75    2.42
  -5  -4  12   -1.32    1.35
  -4  -4  12    7.03    2.77
  -4  -4  12    8.71    2.37
  -3  -4  12   72.50    5.36
  -3  -4  12   55.43    4.17
  -2  -4  12   55.29    4.21
  -2  -4  12   55.64    4.99
  -1  -4  12   51.08    4.96
  -1  -4  12   47.91    3.95
   0  -4  12    3.24    1.93
   0  -4  12    3.28    2.93
   1  -4  12    6.30    3.54
   1  -4  12   13.24    2.62
   2  -4  12    9.47    2.55
   2  -4  12    5.97    3.34
   3  -4  12    3.22    3.66
   3  -4  12   -0.48    1.81
   4  -4  12   17.89    4.40
   5  -4  12   34.11    5.25
   6  -4  12   -1.76    3.19
  -7   4 -12    6.23    3.69
  -7   4 -12    1.42    2.53
  -8   4 -12    0.20    2.85
  -8   4 -12    1.37    2.70
  -9   4 -12   16.00    4.79
  -9   4 -12   19.60    4.59
 -10   4 -12    5.11    3.80
 -10   4 -12    0.28    3.62
 -11   4 -12   -3.87    3.66
 -11   4 -12    2.05    4.41
 -12   4 -12    1.97    4.36
 -12   4 -12    6.27    4.95
 -16  -3  12   -1.79    1.30
 -15  -3  12   -1.88    1.94
 -14  -3  12    5.86    3.04
 -13  -3  12    3.22    2.40
 -12  -3  12    9.35    2.90
 -11  -3  12    3.40    2.22
 -10  -3  12   88.49    6.10
  -9  -3  12    5.39    2.39
  -8  -3  12   66.41    5.03
  -7  -3  12   27.66    3.50
  -7  -3  12   21.46    3.28
  -6  -3  12   18.41    3.19
  -6  -3  12   15.30    2.83
  -5  -3  12    5.96    2.60
  -5  -3  12    8.90    2.37
  -4  -3  12    1.32    1.64
  -4  -3  12    2.83    2.62
  -3  -3  12   39.37    3.57
  -3  -3  12   35.44    4.12
  -2  -3  12    4.59    2.78
  -2  -3  12    2.60    1.69
  -1  -3  12   91.95    6.22
  -1  -3  12   87.16    5.00
   0  -3  12    1.88    1.59
   0  -3  12   -2.90    2.63
   1  -3  12   13.32    3.75
   1  -3  12   13.53    2.79
   2  -3  12   15.23    4.02
   2  -3  12   18.47    3.03
   3  -3  12   -0.09    1.73
   3  -3  12    1.52    3.42
   4  -3  12   -0.08    3.07
   5  -3  12   34.92    5.29
   6  -3  12    7.11    3.73
   7  -3  12   84.87    7.69
  -8   3 -12    1.00    3.32
  -8   3 -12    3.38    3.10
  -9   3 -12    3.99    3.23
  -9   3 -12    1.32    3.60
 -10   3 -12   -0.19    3.36
 -10   3 -12    7.65    4.19
 -11   3 -12    0.80    3.61
 -11   3 -12    2.81    3.88
 -12   3 -12    2.27    4.71
 -12   3 -12   -4.26    4.13
 -17  -2  12   -1.12    2.12
 -16  -2  12    3.28    1.95
 -15  -2  12    2.26    2.72
 -14  -2  12   -1.76    2.08
 -13  -2  12    1.54    1.86
 -12  -2  12    3.57    2.36
 -11  -2  12   31.86    4.25
 -10  -2  12   49.53    4.74
  -9  -2  12   42.73    4.35
  -8  -2  12   77.95    5.03
  -8  -2  12   67.72    5.14
  -7  -2  12    7.21    2.66
  -7  -2  12    6.33    2.01
  -6  -2  12   47.08    4.27
  -6  -2  12   48.04    4.03
  -5  -2  12    1.23    2.31
  -5  -2  12    1.78    1.53
  -4  -2  12  100.91    6.22
  -4  -2  12  100.97    5.16
  -3  -2  12    9.01    2.12
  -3  -2  12   12.85    3.08
  -2  -2  12   34.68    3.22
  -2  -2  12   48.62    4.66
  -1  -2  12    1.23    1.52
  -1  -2  12    0.52    2.81
   0  -2  12   19.80    2.79
   0  -2  12   19.23    3.68
   1  -2  12   40.49    3.73
   1  -2  12   38.28    4.80
   2  -2  12  177.42    7.43
   2  -2  12  183.67    9.39
   3  -2  12   26.84    4.67
   4  -2  12   27.37    4.96
   5  -2  12   10.53    4.11
   6  -2  12   12.10    4.13
   7  -2  12    8.31    3.98
  -9   2 -12   19.02    5.21
  -9   2 -12   14.60    4.37
 -10   2 -12    9.38    4.74
 -10   2 -12   22.39    5.24
 -11   2 -12    3.54    4.24
 -11   2 -12    6.98    4.42
 -12   2 -12   16.58    6.39
 -12   2 -12   22.49    6.46
 -17  -1  12   -0.59    1.35
 -16  -1  12    1.22    2.76
 -15  -1  12    6.64    3.05
 -14  -1  12   17.95    3.82
 -13  -1  12    2.60    2.25
 -12  -1  12    8.16    2.52
 -11  -1  12   77.28    5.57
 -10  -1  12    3.60    2.18
  -9  -1  12   15.54    3.14
  -9  -1  12    7.57    2.47
  -8  -1  12  296.67   10.56
  -8  -1  12  307.09   10.84
  -7  -1  12   73.94    5.41
  -7  -1  12   72.21    4.63
  -6  -1  12   95.06    6.00
  -6  -1  12   92.17    5.03
  -5  -1  12   30.87    3.08
  -5  -1  12   38.91    4.22
  -4  -1  12   29.23    3.74
  -4  -1  12   33.14    3.06
  -3  -1  12    2.07    2.58
  -3  -1  12    2.45    1.53
  -2  -1  12    1.59    1.38
  -2  -1  12   -1.66    2.39
  -1  -1  12   84.43    6.39
  -1  -1  12   95.90    4.88
   0  -1  12   75.78    6.15
   0  -1  12   79.59    4.54
   1  -1  12  102.69    7.18
   1  -1  12  114.07    5.48
   2  -1  12   49.77    3.86
   2  -1  12   34.59    4.64
   3  -1  12   46.70    5.54
   4  -1  12    1.90    3.05
   5  -1  12   -2.31    2.94
   6  -1  12    1.91    3.36
   7  -1  12   21.58    4.75
   8  -1  12    8.81    4.28
  -9   1 -12   69.14    7.59
  -9   1 -12   87.44    9.13
 -10   1 -12    3.97    4.05
 -10   1 -12    5.47    3.88
 -11   1 -12   -3.47    4.10
 -11   1 -12    4.06    4.43
 -18   0  12   -0.73    1.74
 -17   0  12    1.47    1.79
 -16   0  12    0.80    2.33
 -15   0  12   57.76    6.19
 -14   0  12   -1.31    2.08
 -13   0  12   12.16    3.17
 -12   0  12    3.28    2.10
 -11   0  12    2.04    1.83
 -10   0  12    1.71    2.69
 -10   0  12    0.36    1.47
  -9   0  12  644.73   18.18
  -9   0  12  655.02   18.95
  -8   0  12   11.03    2.37
  -8   0  12   13.31    3.15
  -7   0  12  297.21   11.08
  -7   0  12  298.10   10.03
  -6   0  12   26.13    3.80
  -6   0  12   23.61    2.72
  -5   0  12    5.39    2.81
  -5   0  12    6.79    1.76
  -4   0  12  118.38    5.11
  -4   0  12  102.26    6.55
  -3   0  12   62.32    5.16
  -3   0  12   64.52    3.82
  -2   0  12   66.41    3.85
  -2   0  12   78.41    5.93
  -1   0  12   19.09    3.83
  -1   0  12   20.89    2.38
   0   0  12   84.46    6.51
   0   0  12   80.38    4.38
   1   0  12   31.01    4.42
   1   0  12   34.61    3.13
   2   0  12   18.97    4.16
   3   0  12    5.10    3.35
   4   0  12    2.03    3.13
   5   0  12    7.51    3.67
   6   0  12   30.41    5.24
   7   0  12   37.75    5.61
   8   0  12   25.13    5.21
 -10   0 -12    6.25    4.63
 -10   0 -12    7.63    4.80
 -18   1  12   -1.46    1.70
 -17   1  12   -3.58    2.09
 -16   1  12   10.64    3.59
 -15   1  12    2.14    2.40
 -14   1  12   -0.98    1.94
 -13   1  12   15.72    3.39
 -12   1  12   17.44    3.29
 -11   1  12   11.41    2.74
 -11   1  12   -0.02    2.85
 -10   1  12  117.72    6.22
 -10   1  12  120.20    6.99
  -9   1  12   52.04    4.95
  -9   1  12   54.55    4.33
  -8   1  12   19.06    3.57
  -8   1  12   20.99    2.81
  -7   1  12   47.07    4.77
  -7   1  12   51.98    3.72
  -6   1  12    6.41    2.92
  -6   1  12    5.10    1.65
  -5   1  12    6.51    1.54
  -5   1  12    3.67    2.86
  -3   1  12   18.06    3.72
  -3   1  12   14.24    2.05
  -2   1  12  252.46    8.02
  -2   1  12  242.43   10.36
  -1   1  12    3.72    1.67
  -1   1  12   -0.30    2.75
   1  -1 -12    2.05    1.37
   0   1  12   68.30    5.74
   0   1  12   59.28    3.69
   1   1  12   24.79    4.39
   2   1  12   60.29    5.92
   3   1  12   13.23    3.91
   4   1  12   10.12    3.80
   5   1  12   31.22    5.01
   6   1  12   17.31    4.59
   7   1  12   56.92    6.67
   8   1  12    9.65    4.16
   9   1  12   17.67    4.93
 -18   2  12   -1.48    1.49
 -17   2  12   -0.30    2.66
 -16   2  12   -4.37    1.74
 -15   2  12    6.70    2.97
 -14   2  12    1.22    2.13
 -13   2  12    5.16    2.30
 -12   2  12   10.34    2.70
 -12   2  12   16.24    3.81
 -11   2  12    4.87    3.25
 -11   2  12    1.93    1.81
 -10   2  12   -1.32    1.39
 -10   2  12    0.76    2.77
  -9   2  12   34.78    3.48
  -9   2  12   36.27    4.38
  -8   2  12    0.23    2.71
  -8   2  12    0.06    1.33
  -7   2  12  113.53    6.91
  -7   2  12  108.30    5.13
  -6   2  12   24.26    3.93
  -5   2  12    9.05    3.23
  -5   2  12    7.05    1.63
  -4   2  12   18.17    3.70
  -4   2  12   17.02    2.01
  -3   2  12  132.28    5.01
  -3   2  12  130.15    7.44
   2  -2 -12  107.39    5.01
  -2   2  12  104.81    4.42
  -2   2  12  110.56    7.16
  -1   2  12  214.02    9.72
   1  -2 -12  203.06    7.35
  -1   2  12  195.27    6.60
   0  -2 -12    2.02    1.48
   0   2  12   -0.37    2.93
  -1  -2 -12    1.99    1.60
   1   2  12    5.57    3.32
   2   2  12  103.26    7.48
   3   2  12   25.54    4.67
   4   2  12   71.60    6.48
   5   2  12  112.78    7.94
   6   2  12    0.99    3.28
   7   2  12   35.29    5.62
   8   2  12    7.30    3.75
 -19   3  12    8.91    4.16
 -18   3  12    0.70    2.80
 -17   3  12    2.33    2.53
 -16   3  12   -0.37    2.33
 -15   3  12    3.63    2.73
 -14   3  12   79.61    6.30
 -13   3  12    0.50    1.83
 -13   3  12    2.29    2.83
 -12   3  12   42.84    4.27
 -12   3  12   38.83    4.96
 -11   3  12    5.95    2.17
 -11   3  12   12.26    3.96
 -10   3  12   70.94    5.80
 -10   3  12   55.70    4.17
  -9   3  12    4.67    3.25
  -9   3  12    2.20    1.54
  -8   3  12   34.55    4.45
  -7   3  12   59.28    3.65
  -7   3  12   56.72    5.36
  -6   3  12    0.81    1.17
  -6   3  12   -0.10    2.84
  -5   3  12   19.07    3.88
  -5   3  12   22.39    2.16
  -4   3  12   94.41    6.85
  -4   3  12   91.43    3.91
   3  -3 -12    5.35    1.86
  -3   3  12    5.25    3.16
  -3   3  12    7.10    1.47
  -2   3  12   69.50    5.82
   2  -3 -12   56.33    3.94
   1  -3 -12   45.35    3.58
  -1   3  12   53.73    5.45
   0   3  12   18.62    3.87
   0  -3 -12   18.74    2.79
   1   3  12   89.11    6.90
  -1  -3 -12   86.35    5.26
  -2  -3 -12   13.29    2.84
   2   3  12   10.52    3.74
   3   3  12   48.11    5.52
   4   3  12  134.73    8.44
   5   3  12    9.78    3.95
   6   3  12   25.76    5.01
   7   3  12    1.36    3.62
   8   3  12    4.31    3.69
 -19   4  12    1.38    3.33
 -18   4  12   -0.80    2.50
 -17   4  12   16.81    4.34
 -16   4  12    8.17    3.13
 -15   4  12  130.77    7.95
 -14   4  12    1.56    3.28
 -14   4  12   -0.44    1.87
 -13   4  12   41.08    5.22
 -13   4  12   38.92    4.47
 -12   4  12    1.01    3.41
 -12   4  12    0.52    1.66
 -11   4  12   13.24    2.68
 -11   4  12   10.20    4.03
 -10   4  12   12.87    3.93
 -10   4  12   18.72    2.78
  -9   4  12   77.20    6.50
  -8   4  12    0.21    2.95
  -8   4  12    0.54    1.35
  -7   4  12  117.38    7.33
  -7   4  12  109.38    4.69
  -6   4  12    2.10    1.23
  -6   4  12    1.85    2.81
  -5   4  12   52.09    5.44
   4  -4 -12   33.17    3.45
  -4   4  12   32.60    4.58
  -3   4  12   42.63    5.08
   3  -4 -12   52.42    4.03
   2  -4 -12    9.12    2.24
  -2   4  12    9.76    3.61
  -1   4  12   54.91    5.64
   1  -4 -12   56.97    4.19
   0  -4 -12    0.97    1.65
   0   4  12    0.04    2.86
   1   4  12  113.32    7.75
  -1  -4 -12  115.32    6.41
   2   4  12   14.23    3.88
  -2  -4 -12   14.62    3.19
  -3  -4 -12    2.01    2.15
   3   4  12    1.53    3.09
   4   4  12   38.32    5.14
   5   4  12   11.08    3.94
   6   4  12    8.63    3.86
   7   4  12   14.20    4.67
 -19   5  12   13.86    4.26
 -18   5  12   13.21    3.98
 -17   5  12   -1.27    2.71
 -16   5  12   32.60    4.97
 -15   5  12    0.68    3.82
 -15   5  12    6.23    2.83
 -14   5  12    0.97    3.52
 -14   5  12    0.15    2.20
 -13   5  12   87.98    5.84
 -13   5  12   91.66    7.37
 -12   5  12   26.14    3.40
 -12   5  12   22.36    4.54
 -11   5  12   -0.14    3.34
 -11   5  12    0.76    1.44
 -10   5  12   33.45    4.95
 -10   5  12   28.07    2.95
  -9   5  12   50.53    5.63
  -9   5  12   58.80    3.69
  -8   5  12   12.36    3.97
  -7   5  12   24.45    4.18
  -6   5  12   21.50    4.27
  -5   5  12    3.98    3.28
   4  -5 -12    0.26    1.51
  -4   5  12   -1.85    2.65
  -3   5  12   16.33    3.99
   3  -5 -12   26.11    3.40
  -2   5  12  116.30    7.77
   2  -5 -12  109.28    6.14
   1  -5 -12    0.78    1.63
  -1   5  12    0.58    3.09
   0   5  12    7.82    3.55
   0  -5 -12    3.25    2.02
   1   5  12    7.35    3.53
  -1  -5 -12    4.24    2.02
   2   5  12   -0.87    2.59
  -2  -5 -12    0.48    1.91
  -3  -5 -12   48.67    5.35
   3   5  12   45.68    5.42
   4   5  12   28.10    4.97
  -4  -5 -12   44.01    5.28
   5   5  12    1.98    3.48
   6   5  12   29.04    5.10
 -19   6  12    8.76    3.50
 -18   6  12   -0.71    2.61
 -17   6  12   10.23    3.52
 -16   6  12    6.02    2.76
 -16   6  12    1.20    3.98
 -15   6  12    3.75    3.76
 -15   6  12   -1.31    2.11
 -14   6  12   68.55    5.78
 -14   6  12   76.62    7.04
 -13   6  12   -4.42    3.01
 -13   6  12   -0.17    1.85
 -12   6  12    6.19    2.23
 -12   6  12    0.92    3.28
 -11   6  12    4.67    3.70
 -10   6  12    0.74    3.47
  -9   6  12    9.67    3.75
  -8   6  12   21.96    4.54
  -7   6  12   51.39    5.65
  -6   6  12   -0.75    2.98
  -5   6  12   31.84    4.71
   5  -6 -12   25.20    3.62
   4  -6 -12    7.55    2.37
  -4   6  12    3.65    3.28
  -3   6  12    8.55    3.82
   3  -6 -12    4.58    2.26
  -2   6  12    3.31    3.40
   2  -6 -12    1.30    1.97
   1  -6 -12   10.79    2.77
  -1   6  12   12.60    4.00
   0   6  12   11.62    3.81
   0  -6 -12   13.27    2.99
   1   6  12    3.31    3.02
  -1  -6 -12    3.89    2.11
  -2  -6 -12   -0.75    1.86
   2   6  12   -1.58    2.62
   3   6  12    2.32    3.10
  -3  -6 -12    5.39    2.88
  -4  -6 -12   28.24    4.96
   4   6  12   24.38    4.82
  -5  -6 -12   29.41    5.20
   5   6  12   15.56    4.44
 -19   7  12    1.92    2.67
 -18   7  12   15.93    4.32
 -17   7  12    0.52    2.68
 -16   7  12    6.82    4.17
 -15   7  12   -2.99    3.60
 -14   7  12    6.05    4.04
 -13   7  12    0.28    3.38
 -12   7  12    2.23    3.56
 -11   7  12   -1.10    3.11
 -10   7  12   54.92    5.95
  -9   7  12    1.75    3.55
  -8   7  12   15.23    4.36
  -7   7  12   11.88    4.07
   6  -7 -12   23.45    3.77
  -6   7  12   25.53    4.30
  -5   7  12   20.63    4.40
   5  -7 -12   25.47    3.71
  -4   7  12   96.21    7.49
   4  -7 -12  104.30    6.45
  -3   7  12    4.21    3.28
   3  -7 -12    6.56    2.48
   2  -7 -12   51.50    5.02
  -2   7  12   55.90    5.95
  -1   7  12    2.70    3.08
   1  -7 -12   -0.73    1.77
   0  -7 -12   91.92    6.47
   0   7  12   92.07    7.14
   1   7  12   30.43    4.81
  -1  -7 -12   29.61    4.61
   2   7  12    9.49    3.47
  -2  -7 -12    7.53    3.09
  -3  -7 -12   12.95    3.69
   3   7  12    9.26    3.86
  -4  -7 -12   72.65    7.30
   4   7  12   60.73    6.59
  -5  -7 -12    1.47    3.16
 -17   8  12    6.20    4.69
 -16   8  12   -6.34    3.49
 -15   8  12   38.46    6.29
 -14   8  12   16.07    4.84
 -13   8  12   71.20    7.14
 -12   8  12   99.99    8.18
 -11   8  12   87.27    7.52
 -10   8  12   -5.93    2.84
  -9   8  12   69.44    6.74
  -8   8  12   -0.36    3.39
  -7   8  12  207.91   10.71
  -6   8  12   23.04    4.39
   6  -8 -12   23.78    3.95
   5  -8 -12    9.74    2.93
  -5   8  12    9.77    3.73
   4  -8 -12   17.49    3.55
  -4   8  12   19.41    4.21
   3  -8 -12    2.05    2.22
  -3   8  12   -0.02    3.01
  -2   8  12    8.17    3.44
   2  -8 -12    6.18    2.75
  -1   8  12   44.26    5.40
   1  -8 -12   31.76    4.68
   0   8  12   75.54    6.88
   0  -8 -12   78.33    6.39
  -1  -8 -12   54.83    6.00
   1   8  12   52.05    5.83
  -2  -8 -12   -0.83    2.43
   2   8  12   -1.32    2.69
  -3  -8 -12  138.88    9.19
   3   8  12  131.54    8.87
  -4  -8 -12    9.05    3.93
  -5  -8 -12    8.97    4.61
  -6  -8 -12    4.13    4.26
 -18   9  12   19.01    6.06
 -17   9  12    3.00    4.43
 -16   9  12   25.85    6.00
 -15   9  12   35.78    6.37
 -14   9  12   31.73    5.91
 -13   9  12    4.08    4.19
 -12   9  12    2.46    3.79
 -11   9  12    1.82    3.65
 -10   9  12    3.78    3.55
  -9   9  12  100.87    7.92
  -8   9  12  228.99   11.45
   7  -9 -12    3.04    2.34
  -7   9  12    1.54    2.78
  -6   9  12    0.57    2.58
   6  -9 -12    1.89    2.12
  -5   9  12   -2.12    2.44
   5  -9 -12    0.47    1.96
  -4   9  12    4.65    3.23
   4  -9 -12    1.57    2.30
  -3   9  12    6.17    3.33
   3  -9 -12   11.92    3.48
  -2   9  12   56.24    6.03
   2  -9 -12   60.30    6.15
  -1   9  12    6.07    3.39
   1  -9 -12    3.47    2.68
   0   9  12   10.32    3.83
   0  -9 -12   15.45    3.97
  -1  -9 -12   41.87    5.86
   1   9  12   37.69    5.30
   2   9  12   15.69    4.35
  -2  -9 -12   13.95    4.03
  -3  -9 -12    0.69    2.98
  -4  -9 -12   -0.09    3.66
  -5  -9 -12   -4.01    3.59
  -6  -9 -12    0.07    4.96
 -19  10  12    2.42    5.92
 -18  10  12   14.57    5.84
 -17  10  12    9.64    5.15
 -16  10  12    1.46    4.16
 -15  10  12    4.95    4.79
 -14  10  12    1.78    4.17
 -13  10  12    4.29    4.25
 -12  10  12    5.20    4.16
 -11  10  12   45.11    6.39
 -10  10  12    5.65    4.12
  -9  10  12   63.76    6.58
  -8  10  12    5.16    3.31
   7 -10 -12  109.83    7.49
  -7  10  12  103.76    7.89
   6 -10 -12    4.26    2.74
  -6  10  12    3.14    3.12
  -5  10  12    4.89    3.24
   5 -10 -12   13.48    3.64
  -4  10  12    5.55    3.27
   4 -10 -12    2.73    2.70
  -3  10  12   59.96    6.37
   3 -10 -12   68.47    6.57
  -2  10  12   -2.55    2.62
   2 -10 -12    0.73    2.47
  -1  10  12   35.65    5.44
   1 -10 -12   34.69    5.42
   0  10  12   13.95    4.20
   0 -10 -12    8.57    3.81
  -1 -10 -12   17.14    4.32
   1  10  12   12.24    4.15
  -2 -10 -12   10.61    3.89
  -3 -10 -12    8.19    3.84
  -4 -10 -12    7.77    4.38
  -5 -10 -12   -3.97    4.38
 -18  11  12    2.60    5.30
 -17  11  12    7.75    5.37
 -16  11  12    4.85    4.77
 -15  11  12   -4.80    3.95
 -14  11  12    3.18    4.45
 -13  11  12   20.94    5.57
 -12  11  12   48.85    7.01
 -11  11  12   20.46    5.08
 -10  11  12   10.83    4.28
  -9  11  12    4.73    3.46
  -8  11  12   28.63    5.26
   7 -11 -12    9.97    3.38
  -7  11  12   11.91    4.15
  -6  11  12   15.30    4.43
   6 -11 -12   19.09    4.50
  -5  11  12    6.45    3.50
   5 -11 -12    1.23    2.62
   4 -11 -12   56.37    6.33
  -4  11  12   79.85    7.24
   3 -11 -12   -3.13    2.34
  -3  11  12    3.00    3.27
   2 -11 -12   68.92    7.24
  -2  11  12   59.39    6.50
  -1  11  12    8.10    3.47
   1 -11 -12   -0.77    2.51
   0  11  12  151.13    9.62
   0 -11 -12  147.80   10.08
  -1 -11 -12   38.26    6.48
  -2 -11 -12   18.26    5.23
  -3 -11 -12   12.95    4.86
  -4 -11 -12    4.10    4.62
 -17  12  12    3.40    5.22
 -16  12  12    6.52    4.92
 -15  12  12   17.98    5.95
 -14  12  12   18.64    5.65
 -13  12  12   30.28    6.16
 -12  12  12    3.38    4.35
 -11  12  12   73.72    7.79
 -10  12  12   -1.79    3.23
  -9  12  12    2.87    3.49
  -8  12  12    8.12    3.82
   8 -12 -12    4.30    3.03
  -7  12  12   45.81    6.12
   7 -12 -12   29.08    5.10
   6 -12 -12    0.54    2.73
  -6  12  12    5.01    3.39
   5 -12 -12  107.12    8.13
  -5  12  12  107.37    8.24
   4 -12 -12    8.51    3.66
  -4  12  12    2.90    3.49
   3 -12 -12   20.13    4.82
  -3  12  12   15.54    4.31
   2 -12 -12    3.14    3.52
  -2  12  12    2.84    3.38
   1 -12 -12   46.64    6.81
  -1  12  12   37.89    5.66
   0 -12 -12   13.10    4.70
  -1 -12 -12    7.52    4.23
  -2 -12 -12   -0.34    3.52
  -3 -12 -12   -1.66    3.80
 -16  13  12   24.08    6.36
 -15  13  12   -0.23    4.59
 -14  13  12   39.06    7.30
 -13  13  12   16.84    5.71
 -12  13  12    5.37    4.41
 -11  13  12    1.54    3.92
 -10  13  12    7.52    4.15
  -9  13  12   -3.43    2.98
  -8  13  12    5.61    3.61
   8 -13 -12    1.64    3.09
   7 -13 -12   -1.60    2.73
  -7  13  12    4.50    3.47
   6 -13 -12   -2.52    2.60
  -6  13  12   -1.74    2.74
  -5  13  12   -0.19    3.05
   5 -13 -12    1.01    3.18
  -4  13  12    3.17    3.71
   4 -13 -12   -0.58    2.89
   3 -13 -12    2.49    3.67
  -3  13  12    3.83    3.44
   2 -13 -12    8.32    4.35
  -2  13  12   11.62    3.99
   1 -13 -12    2.88    4.07
   0 -13 -12    0.35    3.97
  -1 -13 -12    8.07    4.76
 -15  14  12    9.82    5.34
 -14  14  12   -1.27    4.41
 -13  14  12   -0.86    2.41
 -12  14  12   -1.68    3.75
 -11  14  12   11.02    4.71
  -9  14  12    9.55    4.32
   8 -14 -12   -2.31    2.92
  -8  14  12    9.93    4.20
  -7  14  12    4.25    3.70
   7 -14 -12    5.07    3.81
   6 -14 -12   16.22    5.00
  -6  14  12   16.33    4.66
  -5  14  12   22.83    5.12
   5 -14 -12   24.85    5.83
  -4  14  12   11.38    4.05
   4 -14 -12    5.80    4.29
   3 -14 -12    3.78    3.81
  -3  14  12   -0.18    3.28
   2 -14 -12   -0.61    3.83
   1 -14 -12   34.01    6.86
   0 -14 -12   11.71    5.42
 -14  15  12   -2.67    1.71
 -13  15  12    2.50    1.83
 -12  15  12    0.73    1.29
 -11  15  12    1.75    2.41
 -10  15  12    6.29    3.87
  -9  15  12    9.90    4.27
  -8  15  12   28.42    5.73
   8 -15 -12   23.87    6.00
   7 -15 -12    8.77    4.56
  -7  15  12    5.62    3.89
   6 -15 -12   20.86    5.77
  -6  15  12   26.72    5.67
   5 -15 -12   -2.24    3.55
  -5  15  12    0.82    3.14
   4 -15 -12   18.43    5.65
   3 -15 -12    0.86    4.00
 -12  16  12   -0.54    1.75
 -11  16  12    1.33    1.86
 -10  16  12   -0.82    1.38
   9 -16 -12    1.49    3.80
  -9  16  12    3.22    3.52
   8 -16 -12    1.69    4.01
   7 -16 -12   20.71    6.00
  -7  16  12   24.96    5.53
   6 -16 -12    2.70    4.37
  -6  16  12   10.62    4.32
  -9  17  12    0.05    4.67
  -8  17  12    5.28    4.68
  -7  17  12   12.24    4.91
  -2 -16  13   28.04    5.98
  -1 -16  13    7.34    4.39
   0 -16  13   -1.70    3.57
   1 -16  13   16.77    4.79
   2 -16  13    3.59    3.73
   3 -16  13   32.08    5.96
   4 -16  13    2.49    3.51
   5 -16  13    0.66    3.59
  -7  16 -13    0.55    5.17
  -5 -15  13    2.56    3.73
  -4 -15  13   -1.08    3.38
  -3 -15  13    1.34    3.92
  -2 -15  13    8.49    4.32
  -1 -15  13    1.90    3.71
   0 -15  13   15.93    4.65
   1 -15  13   -1.65    2.62
   2 -15  13    2.90    3.49
   3 -15  13    0.81    3.22
   4 -15  13    0.51    3.02
  -5  15 -13   -4.38    3.75
   5 -15  13    2.88    3.34
  -6  15 -13   19.71    6.01
   6 -15  13   18.90    5.01
   7 -15  13    4.12    3.72
  -7  15 -13    4.95    3.91
  -8  15 -13   -0.37    4.64
  -6 -14  13    0.69    3.47
  -5 -14  13   -3.79    2.58
  -4 -14  13    2.61    3.14
  -3 -14  13    4.92    3.57
  -2 -14  13   -2.53    3.01
  -1 -14  13   19.78    4.88
   0 -14  13    2.37    2.87
   1 -14  13   18.05    4.33
   2 -14  13    4.57    3.16
   3 -14  13    7.59    3.38
   4 -14  13    4.73    3.47
  -4  14 -13   -1.48    3.34
   5 -14  13    0.45    3.16
  -5  14 -13    0.10    3.72
   6 -14  13    4.12    3.48
  -6  14 -13    1.31    4.11
   7 -14  13    8.81    3.88
  -7  14 -13    6.16    4.89
  -8  14 -13    2.71    4.56
  -9  14 -13   -0.70    2.58
  -8 -13  13   -2.07    3.05
  -7 -13  13   -4.32    3.01
  -6 -13  13    0.59    2.91
  -5 -13  13   -3.84    2.83
  -4 -13  13   43.68    6.00
  -3 -13  13    3.78    3.39
  -2 -13  13   70.85    7.16
  -1 -13  13    0.55    3.03
   0 -13  13   21.71    4.54
   1 -13  13    0.06    3.01
   2 -13  13   -1.46    2.52
   3 -13  13   -0.80    2.30
  -3  13 -13    2.23    3.26
   4 -13  13   15.42    4.19
  -4  13 -13   22.89    5.44
  -5  13 -13   -3.05    3.00
   5 -13  13    6.25    3.40
  -6  13 -13   13.37    4.98
   6 -13  13   17.63    4.40
  -7  13 -13    1.87    3.86
   7 -13  13    2.37    3.22
  -8  13 -13    2.56    3.23
  -9  13 -13   -4.10    2.34
  -9 -12  13    3.39    3.35
  -8 -12  13    2.33    3.28
  -7 -12  13   -0.08    2.85
  -6 -12  13    6.23    3.50
  -5 -12  13   61.17    6.69
  -4 -12  13    1.06    2.69
  -3 -12  13   63.37    6.48
  -2 -12  13    2.74    3.06
  -1 -12  13    6.15    3.10
   0 -12  13   19.79    4.15
   1 -12  13   29.30    5.05
   2 -12  13    3.84    2.72
  -2  12 -13   15.69    4.20
  -3  12 -13   61.19    7.14
   3 -12  13   57.92    6.23
  -4  12 -13    3.67    3.57
   4 -12  13    2.48    3.02
  -5  12 -13    7.71    4.10
   5 -12  13   14.18    3.98
   6 -12  13    1.49    2.81
  -6  12 -13   -0.01    3.51
  -7  12 -13    3.01    3.62
  -8  12 -13    1.96    3.55
  -9  12 -13   -1.72    1.65
 -10  12 -13   -1.98    2.10
 -10 -11  13    8.55    3.77
  -9 -11  13   -0.83    2.89
  -8 -11  13   19.99    4.53
  -7 -11  13    5.14    3.35
  -6 -11  13   42.39    5.94
  -5 -11  13    8.16    3.31
  -4 -11  13   17.47    3.95
  -3 -11  13   12.52    3.65
  -2 -11  13    3.80    2.77
  -1 -11  13    7.89    3.21
   0 -11  13   11.54    3.37
   1 -11  13   -2.65    2.41
  -1  11 -13    6.08    3.56
   2 -11  13   85.47    6.40
  -2  11 -13   69.01    7.28
  -3  11 -13    0.24    2.81
   3 -11  13    0.13    2.31
   4 -11  13    1.76    2.59
  -4  11 -13   -2.10    2.71
  -5  11 -13   -0.44    3.16
   5 -11  13    1.31    2.46
  -6  11 -13   -3.03    3.05
   6 -11  13    2.55    2.55
  -7  11 -13   -3.79    2.85
  -8  11 -13   34.61    6.70
  -9  11 -13    0.14    2.78
 -10  11 -13   -1.57    2.34
 -11 -10  13    2.45    3.17
 -10 -10  13   -0.31    2.34
  -9 -10  13    6.70    3.40
  -8 -10  13   11.02    3.80
  -7 -10  13   17.46    3.92
  -6 -10  13    2.07    2.59
  -5 -10  13    8.25    3.25
  -4 -10  13   -0.29    2.36
  -3 -10  13   16.91    3.73
  -2 -10  13   89.50    6.42
  -1 -10  13  103.73    6.89
   0  10 -13    9.13    3.27
   0  10 -13    7.14    3.27
   0 -10  13    8.38    3.00
  -1  10 -13   37.38    5.23
  -1  10 -13   33.66    5.24
   1 -10  13   31.41    4.49
   2 -10  13   10.34    3.12
  -2  10 -13   10.66    3.50
  -2  10 -13    9.09    3.45
  -3  10 -13    3.70    3.17
   3 -10  13    4.74    2.58
  -3  10 -13    5.13    3.34
  -4  10 -13    4.81    3.21
   4 -10  13    5.96    2.74
  -4  10 -13    0.44    3.09
  -5  10 -13   21.37    5.00
   5 -10  13   22.15    4.20
  -5  10 -13   24.58    5.47
   6 -10  13    1.10    2.42
  -6  10 -13   -1.95    3.04
  -7  10 -13    6.96    3.94
  -8  10 -13    1.92    3.61
  -9  10 -13    2.19    3.65
 -10  10 -13   -0.27    1.98
 -12  -9  13    6.00    3.55
 -11  -9  13   -2.93    1.95
 -10  -9  13    1.92    2.89
  -9  -9  13    1.59    2.46
  -8  -9  13   39.24    5.33
  -7  -9  13    2.12    2.44
  -6  -9  13    3.19    2.66
  -5  -9  13    1.97    2.23
  -4  -9  13   24.23    4.10
  -3  -9  13   40.78    4.88
  -2  -9  13   11.11    3.03
  -1  -9  13    2.68    2.05
   1   9 -13    2.98    2.52
   1   9 -13    2.71    2.59
   0  -9  13   10.18    2.88
   0   9 -13   10.88    3.43
   0   9 -13    5.96    3.15
  -1   9 -13   46.91    5.81
  -1   9 -13   45.18    5.32
   1  -9  13   49.17    5.04
   2  -9  13   14.95    3.21
  -2   9 -13   14.18    3.70
  -2   9 -13   22.55    4.61
   3  -9  13    9.63    3.11
  -3   9 -13   11.16    3.63
  -3   9 -13    7.17    3.17
  -4   9 -13   46.66    6.01
  -4   9 -13   23.14    4.84
   4  -9  13   29.14    4.57
  -5   9 -13    9.43    3.68
  -5   9 -13    6.68    3.38
   5  -9  13   10.86    3.48
  -6   9 -13   16.60    4.63
   6  -9  13   25.74    4.54
  -6   9 -13   16.39    4.39
  -7   9 -13    2.31    3.17
  -7   9 -13    4.33    3.41
  -8   9 -13   25.17    5.54
  -8   9 -13   19.55    5.25
  -9   9 -13    1.77    3.74
 -10   9 -13   13.49    5.61
 -11   9 -13    3.45    5.03
 -13  -8  13    0.44    3.09
 -12  -8  13    4.59    3.06
 -11  -8  13   12.73    3.87
 -10  -8  13   -0.21    2.10
  -9  -8  13   30.86    4.85
  -8  -8  13   -0.31    2.24
  -7  -8  13    1.08    2.35
  -6  -8  13   20.35    3.85
  -5  -8  13   48.50    5.15
  -4  -8  13    3.65    2.19
  -3  -8  13    4.22    2.39
  -2  -8  13   -1.21    1.59
  -1  -8  13    6.36    2.55
   1   8 -13   12.49    3.21
   0  -8  13   35.48    4.32
   0   8 -13   42.69    5.34
   0   8 -13   35.61    4.62
  -1   8 -13    2.41    2.63
   1  -8  13    5.14    2.32
  -1   8 -13    0.14    2.15
  -2   8 -13   -2.19    2.07
   2  -8  13   -0.32    1.90
  -2   8 -13    1.51    2.74
  -3   8 -13   -1.03    2.47
  -3   8 -13    3.70    2.90
   3  -8  13   -1.00    1.89
   4  -8  13   -1.92    1.95
  -4   8 -13    0.11    2.53
  -4   8 -13   -0.26    2.47
  -5   8 -13  144.81    9.72
  -5   8 -13  126.56    8.41
   5  -8  13  142.85    8.25
  -6   8 -13   23.01    5.10
  -6   8 -13   23.82    4.89
  -7   8 -13   12.82    4.20
  -7   8 -13   16.58    4.53
  -8   8 -13   14.50    4.75
  -8   8 -13   16.91    4.75
  -9   8 -13    3.36    3.86
  -9   8 -13    4.33    4.33
 -10   8 -13   -0.66    3.86
 -11   8 -13    3.26    4.52
 -13  -7  13   41.58    6.06
 -12  -7  13    9.02    3.64
 -11  -7  13    4.25    2.88
 -10  -7  13    1.95    2.44
  -9  -7  13   -0.05    1.97
  -8  -7  13   12.83    3.13
  -7  -7  13   90.40    6.29
  -6  -7  13   19.90    3.68
  -5  -7  13   43.33    4.75
  -4  -7  13    2.67    2.13
  -3  -7  13    0.69    2.00
  -3  -7  13    1.31    2.91
  -2  -7  13    0.40    2.84
  -2  -7  13   -0.37    1.66
  -1  -7  13    4.37    3.41
  -1  -7  13    3.28    2.25
   0  -7  13   13.89    3.88
   0  -7  13   20.55    3.36
   1  -7  13   14.91    3.04
   1  -7  13   19.72    4.37
   2  -7  13   13.39    4.12
   2  -7  13    8.21    2.60
   3  -7  13   36.71    4.46
   4  -7  13   35.22    4.56
  -4   7 -13   29.37    5.34
  -4   7 -13   26.52    4.64
  -5   7 -13   83.67    7.88
  -5   7 -13   81.76    7.34
   5  -7  13   91.61    6.32
  -6   7 -13    5.01    3.11
  -6   7 -13    0.49    2.64
  -7   7 -13    3.61    3.29
  -7   7 -13   -1.42    2.62
  -8   7 -13    7.41    3.81
  -8   7 -13    8.11    4.16
  -9   7 -13    0.61    3.42
  -9   7 -13    3.79    4.04
 -10   7 -13   12.29    4.82
 -10   7 -13   10.85    4.93
 -11   7 -13    3.27    4.70
 -14  -6  13    2.92    3.22
 -13  -6  13   -0.96    2.17
 -12  -6  13   -1.43    1.74
 -11  -6  13   -1.27    2.06
 -10  -6  13   48.15    5.40
  -9  -6  13    1.16    2.03
  -8  -6  13  155.58    8.16
  -7  -6  13   -0.30    1.89
  -6  -6  13    2.69    1.93
  -5  -6  13    7.52    2.63
  -4  -6  13    3.81    1.97
  -4  -6  13    5.40    2.90
  -3  -6  13    5.30    2.57
  -3  -6  13   -1.04    2.83
  -2  -6  13   14.62    3.88
  -2  -6  13   18.11    3.11
  -1  -6  13   47.67    5.20
  -1  -6  13   62.89    4.80
   0  -6  13   -0.42    1.91
   0  -6  13    4.13    3.51
   1  -6  13    1.84    3.57
   1  -6  13    1.14    1.97
   2  -6  13   44.78    4.60
   2  -6  13   37.10    5.24
   3  -6  13   13.66    4.29
   3  -6  13   15.30    3.34
   4  -6  13    5.15    3.89
   4  -6  13    0.51    2.28
  -5   6 -13   21.53    4.81
  -5   6 -13   22.88    4.43
  -6   6 -13    4.81    3.00
  -6   6 -13   10.82    3.82
  -7   6 -13   13.09    4.55
  -7   6 -13   16.03    4.29
  -8   6 -13   -2.60    2.75
  -8   6 -13    2.59    3.12
  -9   6 -13   49.24    7.58
  -9   6 -13   32.22    6.10
 -10   6 -13    5.57    4.34
 -10   6 -13    2.37    4.34
 -11   6 -13   11.67    5.27
 -11   6 -13    9.03    5.15
 -15  -5  13    0.41    1.75
 -14  -5  13   -0.51    1.79
 -13  -5  13    0.55    2.32
 -12  -5  13    0.90    2.32
 -11  -5  13    8.73    3.02
 -10  -5  13    4.48    2.36
  -9  -5  13   19.51    3.73
  -8  -5  13  104.18    6.58
  -7  -5  13   11.50    2.85
  -6  -5  13   -1.33    1.49
  -5  -5  13    4.50    2.17
  -5  -5  13    3.04    2.80
  -4  -5  13   22.87    3.70
  -4  -5  13   22.24    3.34
  -3  -5  13   48.10    4.29
  -3  -5  13   48.72    4.77
  -2  -5  13   53.42    5.06
  -2  -5  13   49.16    4.22
  -1  -5  13   17.52    3.84
  -1  -5  13   14.87    2.85
   0  -5  13  139.39    7.08
   0  -5  13  143.00    8.24
   1  -5  13   -1.34    3.34
   1  -5  13    0.06    1.86
   2  -5  13   13.76    3.11
   2  -5  13    8.51    4.06
   3  -5  13   -1.01    1.62
   3  -5  13    0.26    3.34
   4  -5  13    6.49    3.52
   4  -5  13    8.26    2.73
   5  -5  13   13.34    4.49
  -7   5 -13    4.53    3.80
  -7   5 -13   -2.19    2.57
  -8   5 -13   26.76    5.30
  -8   5 -13   21.01    5.42
  -9   5 -13   25.42    5.46
  -9   5 -13   35.41    6.76
 -10   5 -13   12.83    4.95
 -10   5 -13   17.16    5.47
 -11   5 -13    2.43    4.32
 -11   5 -13   -2.11    4.03
 -12   5 -13   -0.19    5.06
 -15  -4  13   -1.57    1.07
 -14  -4  13   -0.08    2.40
 -13  -4  13   11.87    3.42
 -12  -4  13    2.57    2.27
 -11  -4  13    2.24    2.34
 -10  -4  13    1.64    2.10
  -9  -4  13   -0.53    1.78
  -8  -4  13    6.53    2.28
  -7  -4  13   16.68    3.18
  -6  -4  13    1.06    2.64
  -6  -4  13    2.05    1.87
  -5  -4  13    1.34    1.84
  -5  -4  13    1.90    2.85
  -4  -4  13    2.92    1.79
  -4  -4  13    2.57    2.84
  -3  -4  13  226.43    9.75
  -3  -4  13  252.21    9.24
  -2  -4  13  149.99    6.94
  -2  -4  13  151.82    7.95
  -1  -4  13  114.09    5.99
  -1  -4  13  125.41    7.39
   0  -4  13  206.30    8.33
   0  -4  13  193.98    9.50
   1  -4  13    8.43    3.75
   1  -4  13    4.35    2.16
   2  -4  13   -4.05    3.29
   2  -4  13    1.50    2.04
   3  -4  13   -2.03    3.36
   3  -4  13    2.62    2.27
   4  -4  13    1.62    3.06
   5  -4  13    6.57    3.69
   6  -4  13    0.40    3.36
  -8   4 -13    1.28    2.91
  -8   4 -13    3.68    3.82
  -9   4 -13    6.10    3.95
  -9   4 -13   -0.25    3.40
 -10   4 -13    0.83    3.93
 -10   4 -13   -0.34    3.93
 -11   4 -13    6.53    4.97
 -11   4 -13    3.57    4.26
 -12   4 -13    1.68    4.98
 -12   4 -13    4.84    4.98
 -16  -3  13   -1.42    1.49
 -15  -3  13   -0.35    2.08
 -14  -3  13    6.62    2.97
 -13  -3  13   24.20    4.47
 -12  -3  13   27.70    4.52
 -11  -3  13   48.65    5.20
 -10  -3  13    2.11    2.17
  -9  -3  13   98.60    6.28
  -8  -3  13   13.80    2.86
  -7  -3  13    8.19    2.43
  -7  -3  13    6.24    2.75
  -6  -3  13   52.63    4.49
  -6  -3  13   55.51    4.66
  -5  -3  13   31.43    3.52
  -5  -3  13   36.59    4.14
  -4  -3  13   74.20    4.81
  -4  -3  13   70.68    5.73
  -3  -3  13  187.78    7.57
  -3  -3  13  181.49    8.62
  -2  -3  13   34.33    3.57
  -2  -3  13   34.08    4.37
  -1  -3  13   79.48    6.11
  -1  -3  13   61.81    4.48
   0  -3  13   50.80    4.19
   0  -3  13   51.96    5.45
   1  -3  13  146.66    6.96
   1  -3  13  154.37    8.73
   2  -3  13   20.32    3.24
   2  -3  13   27.81    4.54
   3  -3  13   10.35    4.19
   3  -3  13    8.28    2.60
   4  -3  13   96.82    7.79
   5  -3  13    4.57    3.21
   6  -3  13    0.79    3.17
   7  -3  13   18.54    4.98
  -8   3 -13    7.15    3.79
  -8   3 -13   20.57    5.51
  -9   3 -13    2.00    3.88
  -9   3 -13    3.70    3.66
 -10   3 -13   -1.97    3.49
 -10   3 -13    0.55    3.84
 -11   3 -13   10.31    5.48
 -11   3 -13    9.52    5.42
 -12   3 -13    0.98    5.59
 -12   3 -13    5.38    5.44
 -17  -2  13   -0.28    1.87
 -16  -2  13    0.55    1.10
 -15  -2  13    6.24    2.78
 -14  -2  13   62.57    6.30
 -13  -2  13    2.63    2.31
 -12  -2  13    3.77    2.31
 -11  -2  13   13.13    3.05
 -10  -2  13    1.07    1.81
  -9  -2  13   61.20    5.05
  -8  -2  13    2.64    1.90
  -8  -2  13    4.66    2.85
  -7  -2  13   32.31    3.67
  -7  -2  13   36.88    4.18
  -6  -2  13   42.06    3.96
  -6  -2  13   38.66    4.09
  -5  -2  13    1.03    2.57
  -5  -2  13   -0.18    1.53
  -4  -2  13   12.61    2.50
  -4  -2  13   16.70    3.62
  -3  -2  13    0.25    1.50
  -3  -2  13   -1.60    2.54
  -2  -2  13    5.58    3.14
  -2  -2  13    6.03    2.04
  -1  -2  13    7.91    2.14
  -1  -2  13    4.09    3.17
   0  -2  13  113.75    5.87
   0  -2  13  124.28    7.43
   1  -2  13    8.32    3.69
   1  -2  13    6.89    2.31
   2  -2  13    0.67    2.01
   2  -2  13    3.16    3.64
   3  -2  13   21.89    4.55
   4  -2  13    4.09    3.63
   5  -2  13    0.23    3.14
   6  -2  13    2.26    3.36
   7  -2  13    8.19    4.02
   8  -2  13    0.41    3.65
  -9   2 -13    3.82    3.70
  -9   2 -13   16.75    5.39
 -10   2 -13    1.73    3.59
 -10   2 -13    5.21    4.27
 -11   2 -13    0.42    4.50
 -11   2 -13    5.61    5.08
 -17  -1  13    2.55    1.81
 -16  -1  13   -2.09    2.11
 -15  -1  13   11.23    3.52
 -14  -1  13   -1.70    1.99
 -13  -1  13    9.96    2.97
 -12  -1  13    9.35    2.79
 -11  -1  13    2.33    2.02
 -10  -1  13    0.32    1.75
  -9  -1  13  245.27    9.80
  -9  -1  13  253.97   10.01
  -8  -1  13   -0.20    2.74
  -8  -1  13    1.75    1.86
  -7  -1  13   83.02    6.00
  -7  -1  13   78.83    4.94
  -6  -1  13   32.72    3.43
  -6  -1  13   27.81    4.03
  -5  -1  13   34.28    4.17
  -5  -1  13   28.91    3.15
  -4  -1  13   35.37    4.35
  -4  -1  13   38.17    3.39
  -3  -1  13  111.02    6.88
  -3  -1  13  101.70    5.10
  -2  -1  13   -1.18    2.66
  -2  -1  13    0.28    1.42
  -1  -1  13   -1.90    2.76
  -1  -1  13    1.87    1.67
   0  -1  13   57.95    5.74
   0  -1  13   64.59    4.28
   1  -1  13   56.66    4.10
   1  -1  13   61.49    5.97
   2  -1  13   78.01    6.64
   3  -1  13    5.77    3.61
   4  -1  13   22.62    4.68
   5  -1  13   -0.13    3.06
   6  -1  13    9.11    4.11
   7  -1  13    4.84    3.82
   8  -1  13    6.06    4.22
  -9   1 -13   11.06    4.73
  -9   1 -13    2.32    3.27
 -10   1 -13    5.53    4.53
 -10   1 -13   10.28    5.13
 -11   1 -13    0.38    4.90
 -11   1 -13    6.46    5.51
 -17   0  13    0.75    1.37
 -16   0  13   28.09    5.01
 -15   0  13    9.48    3.37
 -14   0  13    0.95    2.27
 -13   0  13    2.29    2.07
 -12   0  13   10.25    2.86
 -11   0  13    0.41    1.55
 -10   0  13  255.84   10.25
 -10   0  13  286.99   10.90
  -9   0  13   33.12    3.71
  -9   0  13   28.75    4.16
  -8   0  13   81.36    5.12
  -8   0  13   85.87    6.21
  -7   0  13    1.69    1.63
  -7   0  13    6.49    3.01
  -6   0  13   -0.60    1.32
  -6   0  13    1.56    2.74
  -5   0  13   26.56    4.08
  -5   0  13   31.21    3.05
  -4   0  13   51.53    5.13
  -4   0  13   51.25    3.68
  -3   0  13   57.12    3.80
  -3   0  13   58.64    5.15
  -2   0  13   21.58    4.06
  -2   0  13   23.06    2.57
  -1   0  13   62.75    5.64
  -1   0  13   35.03    3.10
   0   0  13   18.50    2.49
   0   0  13   33.38    4.81
   1   0  13   75.71    4.39
   1   0  13   81.81    6.72
   2   0  13   -0.25    2.69
   3   0  13   44.96    5.51
   4   0  13   12.01    4.03
   5   0  13   11.17    4.03
   6   0  13   16.64    4.71
   7   0  13   29.73    5.36
   8   0  13   10.02    4.52
 -10   0 -13   -2.41    4.23
 -10   0 -13   -2.66    4.60
 -18   1  13   -1.88    1.61
 -17   1  13   34.36    5.35
 -16   1  13   12.39    3.48
 -15   1  13   -0.85    1.92
 -14   1  13    0.49    2.19
 -13   1  13   14.48    3.30
 -12   1  13   28.38    3.92
 -11   1  13   21.23    3.96
 -11   1  13   20.24    3.38
 -10   1  13   11.58    2.73
 -10   1  13   15.94    3.78
  -9   1  13    5.40    3.24
  -9   1  13    3.06    1.87
  -8   1  13    0.40    1.46
  -8   1  13    2.73    3.10
  -7   1  13   20.97    3.88
  -7   1  13   26.42    2.92
  -6   1  13    7.86    3.37
  -6   1  13   13.65    2.19
  -5   1  13   39.42    4.65
  -4   1  13    9.04    3.15
  -4   1  13    2.54    1.09
  -3   1  13  122.81    7.36
  -3   1  13  121.76    5.26
  -2   1  13   10.49    3.61
  -2   1  13   15.66    2.20
  -1   1  13   89.87    6.88
  -1   1  13   86.45    4.51
   0   1  13    0.57    2.93
   0   1  13    0.12    1.41
   1   1  13    3.12    3.41
   2   1  13   32.12    4.98
   3   1  13   92.50    7.27
   4   1  13    2.75    3.29
   5   1  13   68.82    6.79
   6   1  13    0.34    3.52
   7   1  13   31.13    5.61
   8   1  13    1.70    3.61
   9   1  13    2.05    4.16
 -18   2  13    6.47    3.24
 -17   2  13    2.12    2.61
 -16   2  13    1.15    2.44
 -15   2  13    1.77    2.42
 -14   2  13  125.43    7.50
 -13   2  13   -1.83    1.75
 -12   2  13   40.43    4.37
 -12   2  13   45.60    5.13
 -11   2  13   19.62    3.99
 -11   2  13   12.17    2.64
 -10   2  13   25.75    3.37
 -10   2  13   38.00    4.81
  -9   2  13   14.88    2.71
  -9   2  13   16.97    3.91
  -8   2  13   93.06    5.03
  -8   2  13   80.26    6.61
  -7   2  13   24.75    4.30
  -6   2  13  202.53    7.12
  -6   2  13  213.47    9.73
  -5   2  13    5.83    3.18
  -5   2  13    3.97    1.50
  -4   2  13  126.11    5.17
  -4   2  13  134.28    7.85
  -3   2  13    6.41    3.38
  -3   2  13    1.54    1.40
  -2   2  13   12.36    3.78
  -2   2  13    9.21    1.94
   2  -2 -13   12.37    2.19
  -1   2  13    7.25    3.26
   0   2  13   74.81    6.39
   1   2  13    0.91    3.24
   2   2  13   61.44    6.24
   3   2  13    1.90    3.09
   4   2  13   39.69    5.46
   5   2  13    5.77    3.80
   6   2  13   32.23    5.47
   7   2  13    3.33    3.76
   8   2  13    3.38    3.87
 -18   3  13    8.78    3.01
 -17   3  13   21.19    4.61
 -16   3  13   -1.03    2.03
 -15   3  13  138.49    8.13
 -14   3  13    0.53    2.05
 -13   3  13   39.63    5.21
 -12   3  13   -0.61    1.76
 -12   3  13   -0.27    2.98
 -11   3  13   49.34    4.28
 -11   3  13   45.16    5.32
 -10   3  13    6.62    2.05
 -10   3  13    5.56    3.48
  -9   3  13   57.62    4.07
  -9   3  13   71.41    6.12
  -8   3  13    0.12    0.91
  -8   3  13    3.43    2.95
  -7   3  13  252.75   11.03
  -7   3  13  247.76    8.09
  -6   3  13    5.98    3.25
  -6   3  13   -0.57    1.16
  -5   3  13  117.38    7.60
  -5   3  13  107.54    4.58
  -4   3  13  110.52    7.52
  -3   3  13    5.83    3.43
   3  -3 -13    8.19    2.20
  -2   3  13    2.22    3.17
   2  -3 -13   -0.55    1.38
   1  -3 -13   19.61    2.85
  -1   3  13   22.97    4.43
   0   3  13    4.25    3.38
   1   3  13    3.59    3.39
   2   3  13   50.62    5.73
   3   3  13    6.27    3.43
   4   3  13    8.10    3.76
   5   3  13   17.73    4.62
   6   3  13    0.85    3.42
   7   3  13    1.92    3.90
 -19   4  13   19.34    5.06
 -18   4  13    8.63    3.65
 -17   4  13    2.77    2.85
 -16   4  13   42.59    5.57
 -15   4  13    2.32    2.39
 -14   4  13    8.50    3.99
 -14   4  13    4.35    2.42
 -13   4  13   23.79    4.53
 -13   4  13   17.95    3.30
 -12   4  13    5.05    2.33
 -12   4  13    9.87    3.82
 -11   4  13   20.40    3.08
 -11   4  13   16.65    4.17
 -10   4  13   59.92    5.90
 -10   4  13   42.78    3.66
  -9   4  13   20.54    2.70
  -9   4  13   24.61    4.50
  -8   4  13   96.30    4.82
  -8   4  13   97.77    7.17
  -7   4  13   36.22    4.89
  -6   4  13   41.01    5.00
  -5   4  13    2.11    3.18
  -4   4  13   10.81    3.51
   4  -4 -13    7.72    2.28
   3  -4 -13    2.98    1.77
  -3   4  13    2.32    3.13
  -2   4  13   65.39    6.05
   2  -4 -13   60.58    4.44
   1  -4 -13   15.06    2.85
  -1   4  13   16.73    4.25
   0  -4 -13  126.82    6.59
   0   4  13  134.38    8.55
   1   4  13    9.21    3.52
   2   4  13    5.73    3.58
   3   4  13    6.70    3.66
   4   4  13    7.19    3.75
   5   4  13    0.62    3.18
   6   4  13   12.15    4.30
   7   4  13    6.80    4.08
 -19   5  13    0.01    2.97
 -18   5  13    0.72    2.85
 -17   5  13   58.84    6.33
 -16   5  13    6.49    2.82
 -15   5  13   55.64    6.34
 -15   5  13   38.43    4.79
 -14   5  13   -0.06    2.05
 -14   5  13    5.29    3.96
 -13   5  13    3.03    2.16
 -13   5  13    6.94    3.82
 -12   5  13    5.14    2.14
 -12   5  13    7.55    3.73
 -11   5  13   50.66    5.98
 -10   5  13   38.67    5.19
  -9   5  13   71.44    6.48
  -8   5  13    4.07    3.35
  -7   5  13  149.86    8.94
  -6   5  13    8.78    3.76
  -5   5  13   38.89    5.00
   4  -5 -13   35.93    3.84
  -4   5  13   40.37    5.29
  -3   5  13    4.99    3.50
   3  -5 -13    5.13    2.25
   2  -5 -13   22.27    3.40
  -2   5  13   27.17    4.77
  -1   5  13  202.08   10.48
   1  -5 -13  194.48    8.71
   0   5  13    7.05    3.48
   0  -5 -13    0.72    1.79
  -1  -5 -13   45.97    4.66
   1   5  13   34.72    5.20
   2   5  13   16.75    4.26
   3   5  13   10.86    4.08
   4   5  13    5.32    3.73
   5   5  13   64.03    6.87
   6   5  13    4.40    4.06
 -19   6  13   -1.33    2.24
 -18   6  13   34.27    5.64
 -17   6  13    8.57    3.67
 -16   6  13    4.30    2.73
 -15   6  13   -0.69    3.80
 -14   6  13   14.03    4.38
 -13   6  13    3.40    3.77
 -12   6  13  111.61    8.13
 -11   6  13   16.33    4.50
 -10   6  13   31.11    5.09
  -9   6  13    1.21    3.50
  -8   6  13    6.31    3.52
  -7   6  13    2.63    3.24
  -6   6  13   79.96    6.63
   5  -6 -13    0.03    1.74
  -5   6  13   -4.77    2.90
  -4   6  13   90.06    6.95
   4  -6 -13   90.48    5.88
   3  -6 -13   39.25    4.26
  -3   6  13   41.60    5.26
   2  -6 -13  136.33    7.40
  -2   6  13  145.07    8.87
  -1   6  13    5.33    3.50
   1  -6 -13    6.84    2.48
   0   6  13    0.97    2.90
   0  -6 -13    1.09    1.89
   1   6  13   -0.57    2.78
  -1  -6 -13    4.03    2.07
  -2  -6 -13   17.28    3.66
   2   6  13   18.42    4.46
   3   6  13    3.19    3.46
   4   6  13   41.50    5.86
   5   6  13   -4.06    2.99
 -16   7  13    9.43    4.45
 -15   7  13   23.48    5.56
 -14   7  13    5.80    4.27
 -13   7  13   21.27    4.84
 -12   7  13    8.54    4.19
 -11   7  13    5.44    3.87
 -10   7  13   20.84    4.73
  -9   7  13   -1.91    3.04
  -8   7  13   47.47    5.88
  -7   7  13   29.02    4.95
  -6   7  13   41.49    5.47
   6  -7 -13   44.11    4.66
  -5   7  13   26.08    4.89
   5  -7 -13   23.41    3.71
   4  -7 -13    3.83    2.47
  -4   7  13    3.83    3.31
   3  -7 -13   13.76    3.24
  -3   7  13   14.57    4.17
   2  -7 -13    8.41    2.82
  -2   7  13   12.06    3.99
   1  -7 -13   11.78    3.10
  -1   7  13   15.21    4.21
   0   7  13    3.47    3.11
   0  -7 -13    1.48    2.30
  -1  -7 -13   10.78    3.18
   1   7  13   10.85    3.88
  -2  -7 -13    9.56    3.14
   2   7  13    8.87    3.79
   3   7  13   39.46    5.71
  -3  -7 -13   44.25    5.82
   4   7  13    5.16    3.63
 -17   8  13    5.59    4.84
 -16   8  13   17.64    5.13
 -15   8  13   -1.16    3.89
 -14   8  13   41.92    6.50
 -13   8  13    9.23    4.51
 -12   8  13    2.52    3.70
 -11   8  13   25.48    5.13
 -10   8  13    3.28    3.72
  -9   8  13    0.36    3.27
  -8   8  13   29.14    5.20
  -7   8  13   10.18    3.85
   6  -8 -13    5.55    2.53
  -6   8  13    6.67    3.73
   5  -8 -13    0.70    2.00
  -5   8  13    6.97    3.53
   4  -8 -13   -0.19    1.95
  -4   8  13    5.59    3.42
   3  -8 -13    3.45    2.55
  -3   8  13    8.18    3.75
  -2   8  13   12.50    4.17
   2  -8 -13    7.82    2.86
   1  -8 -13    0.32    2.19
  -1   8  13   -3.87    2.83
   0  -8 -13    7.87    2.95
   0   8  13    1.37    3.12
  -1  -8 -13   11.66    3.54
   1   8  13   10.52    3.86
   2   8  13   39.92    5.50
  -2  -8 -13   39.82    5.66
   3   8  13    3.03    3.37
  -3  -8 -13    0.81    2.64
 -18   9  13    4.83    5.51
 -17   9  13    9.61    5.39
 -16   9  13    2.25    4.49
 -15   9  13    9.25    4.75
 -14   9  13    3.49    4.17
 -13   9  13   82.23    8.09
 -12   9  13    3.01    3.54
 -11   9  13   -1.05    3.35
 -10   9  13    6.12    3.96
  -9   9  13   66.75    6.96
  -8   9  13    0.60    3.09
  -7   9  13  297.32   13.31
   7  -9 -13  289.56   12.43
  -6   9  13    3.24    3.36
   6  -9 -13    5.64    2.70
   5  -9 -13   -0.36    2.09
  -5   9  13   -0.39    2.90
  -4   9  13    4.39    3.14
   4  -9 -13   -0.47    2.32
  -3   9  13    9.11    3.56
   3  -9 -13    9.26    3.17
   2  -9 -13    1.58    2.64
  -2   9  13   -0.47    2.93
  -1   9  13   85.60    7.47
   1  -9 -13   91.88    7.17
   0  -9 -13   21.18    4.55
   0   9  13   29.04    5.20
  -1  -9 -13   28.25    5.24
   1   9  13   15.23    4.30
   2   9  13    3.11    3.27
  -2  -9 -13    1.38    2.71
  -3  -9 -13   -1.73    2.87
  -4  -9 -13    5.10    4.09
 -19  10  13    7.89    7.12
 -18  10  13    8.21    5.92
 -17  10  13   14.85    6.06
 -16  10  13    5.80    4.63
 -15  10  13    4.61    4.82
 -14  10  13    0.78    4.17
 -13  10  13    3.71    4.37
 -12  10  13  167.10   10.86
 -11  10  13   25.16    5.24
 -10  10  13   13.89    4.68
  -9  10  13   11.14    4.12
  -8  10  13   54.79    6.45
   7 -10 -13    0.28    2.26
  -7  10  13    6.00    3.59
  -6  10  13   36.10    5.45
   6 -10 -13   23.16    4.30
  -5  10  13   15.25    4.47
   5 -10 -13   11.50    3.62
  -4  10  13   19.86    4.60
   4 -10 -13   16.12    3.97
   3 -10 -13   21.29    4.60
  -3  10  13   16.18    4.41
   2 -10 -13   89.27    7.79
  -2  10  13   82.66    7.43
   1 -10 -13   -0.37    2.52
  -1  10  13    1.00    3.39
   0  10  13   11.64    4.41
   0 -10 -13   18.02    4.53
  -1 -10 -13   65.36    7.38
   1  10  13   65.97    7.05
  -2 -10 -13   50.40    7.07
  -3 -10 -13    1.11    3.61
  -4 -10 -13   10.66    5.00
 -18  11  13    8.17    5.80
 -17  11  13    9.41    5.39
 -16  11  13    2.59    4.90
 -15  11  13   21.40    6.06
 -14  11  13   -0.76    4.14
 -13  11  13   18.96    5.55
 -12  11  13   -0.54    3.98
 -11  11  13   28.66    5.87
 -10  11  13   12.67    4.64
  -9  11  13   -0.22    3.32
  -8  11  13    1.95    3.39
   7 -11 -13   16.78    4.13
  -7  11  13   24.52    5.06
   6 -11 -13    0.51    2.40
  -6  11  13   -2.28    3.06
   5 -11 -13   53.12    6.36
  -5  11  13   57.66    6.65
   4 -11 -13   15.28    4.04
  -4  11  13   18.24    4.85
  -3  11  13   21.39    5.02
   3 -11 -13   14.33    4.36
  -2  11  13   74.03    7.22
   2 -11 -13   69.84    7.52
  -1  11  13   67.59    7.07
   1 -11 -13   74.40    7.66
   0 -11 -13    4.89    3.76
   0  11  13    1.42    3.35
  -1 -11 -13   13.23    4.72
  -2 -11 -13    0.11    3.69
  -3 -11 -13    6.44    4.81
 -17  12  13    3.05    5.48
 -16  12  13   12.29    5.86
 -15  12  13   20.04    5.91
 -14  12  13  106.64   10.02
 -13  12  13   -0.27    3.94
 -12  12  13    1.81    3.81
 -11  12  13    0.40    3.59
 -10  12  13   48.98    6.90
  -9  12  13    0.42    3.43
  -8  12  13   29.20    5.66
   8 -12 -13   22.99    4.89
  -7  12  13    1.21    3.12
   7 -12 -13    0.54    2.72
  -6  12  13   18.90    5.04
   6 -12 -13   27.68    5.14
   5 -12 -13    0.67    2.96
  -5  12  13   -0.13    3.15
   4 -12 -13   14.70    4.61
  -4  12  13   10.62    3.98
   3 -12 -13    8.16    4.02
  -3  12  13    5.05    3.69
  -2  12  13    1.51    3.03
   2 -12 -13    1.27    3.35
  -1  12  13    3.17    3.92
   1 -12 -13    4.87    4.05
   0 -12 -13   11.82    4.73
  -1 -12 -13    5.74    4.44
  -2 -12 -13   10.12    5.23
 -16  13  13   -0.20    4.72
 -15  13  13   59.67    8.55
 -14  13  13    4.79    4.81
 -13  13  13    1.88    4.37
 -12  13  13   -0.03    3.88
 -11  13  13    9.86    4.12
 -10  13  13   -1.48    3.51
  -9  13  13    9.85    4.63
  -8  13  13    8.31    4.01
   8 -13 -13    3.10    3.24
   7 -13 -13    0.10    3.02
  -7  13  13    0.75    2.93
   6 -13 -13    0.80    3.23
  -6  13  13   -1.13    3.35
  -5  13  13    1.38    3.45
   5 -13 -13   -1.71    3.30
   4 -13 -13   -1.64    3.46
  -4  13  13    4.54    3.48
  -3  13  13    2.34    3.45
   3 -13 -13    3.19    3.81
   2 -13 -13    5.12    4.13
  -2  13  13    5.20    3.39
   1 -13 -13   23.49    5.99
   0 -13 -13   -1.76    3.71
 -15  14  13   17.98    6.34
 -14  14  13   -1.65    4.58
 -13  14  13    1.69    1.39
 -12  14  13   -0.29    1.87
 -11  14  13   -1.45    3.31
 -10  14  13   12.05    4.85
  -9  14  13    0.73    3.50
  -8  14  13   21.66    5.34
   8 -14 -13   15.05    4.57
   7 -14 -13    8.71    4.33
  -7  14  13    7.39    3.96
   6 -14 -13   -1.41    3.62
  -6  14  13    2.69    3.37
  -5  14  13    5.56    3.65
   5 -14 -13   -0.63    3.68
   4 -14 -13   -1.02    3.60
  -4  14  13   -0.52    3.56
   3 -14 -13   10.97    5.20
   2 -14 -13   43.09    7.69
   1 -14 -13   29.75    7.01
 -13  15  13    1.31    1.63
 -12  15  13    1.56    1.70
 -11  15  13   -0.27    1.42
 -10  15  13    1.15    1.44
  -9  15  13    2.09    2.45
   8 -15 -13   -1.80    3.16
  -8  15  13   -0.41    3.40
   7 -15 -13    2.12    3.84
  -7  15  13    2.46    3.55
  -6  15  13    6.04    3.75
   6 -15 -13    3.61    4.35
   5 -15 -13    3.57    4.63
  -5  15  13    1.48    3.64
   4 -15 -13    5.88    4.82
 -10  16  13    1.65    1.90
  -9  16  13    6.23    4.55
  -8  16  13    6.53    4.44
  -7  16  13    3.41    4.50
  -6  16  13   -0.87    3.64
   0 -16  14   -5.15    3.31
   1 -16  14    8.15    3.86
   2 -16  14   10.41    4.14
  -3 -15  14   10.32    4.56
  -2 -15  14   27.88    5.85
  -1 -15  14    3.13    3.91
   0 -15  14    5.36    3.80
   1 -15  14   25.94    5.32
   2 -15  14   -0.40    3.25
   3 -15  14    4.53    3.55
   4 -15  14    7.08    3.65
   5 -15  14   21.04    5.04
  -5  15 -14   10.26    5.37
  -6  15 -14    6.16    3.65
  -7  15 -14   23.39    7.09
  -5 -14  14    5.33    3.60
  -4 -14  14   20.06    4.83
  -3 -14  14    0.79    3.42
  -2 -14  14    9.43    3.88
  -1 -14  14   -0.36    3.33
   0 -14  14   12.31    4.16
   1 -14  14   11.43    3.67
   2 -14  14    2.60    2.97
   3 -14  14    7.25    3.79
   4 -14  14    9.71    3.95
  -4  14 -14    0.55    4.12
   5 -14  14    4.17    3.50
  -5  14 -14   -2.66    3.52
   6 -14  14   15.00    4.53
  -6  14 -14   16.46    5.81
   7 -14  14   -0.15    3.47
  -7  14 -14   -1.38    3.69
  -8  14 -14    0.50    4.49
  -7 -13  14    2.48    3.73
  -6 -13  14    3.74    3.69
  -5 -13  14    9.34    4.02
  -4 -13  14   -3.17    2.84
  -3 -13  14   24.78    4.96
  -2 -13  14   -0.31    3.12
  -1 -13  14    2.56    3.21
   0 -13  14    6.13    3.38
   1 -13  14   11.05    3.79
   2 -13  14   -1.24    2.67
  -3  13 -14    6.87    4.26
   3 -13  14    9.35    3.66
   4 -13  14   -1.22    2.87
  -4  13 -14   -4.56    2.77
  -5  13 -14    3.44    3.72
   5 -13  14    8.50    4.04
  -6  13 -14    3.28    4.25
   6 -13  14    0.16    3.24
  -7  13 -14    1.17    3.63
  -8  13 -14   -0.41    2.24
  -8 -12  14   -4.82    2.88
  -7 -12  14   -0.05    2.84
  -6 -12  14    3.60    3.23
  -5 -12  14    1.53    3.36
  -4 -12  14   47.82    6.10
  -3 -12  14    0.47    3.06
  -2 -12  14    4.65    3.10
  -1 -12  14    2.38    3.14
   0 -12  14   -0.14    2.60
   1 -12  14    2.84    2.65
   2 -12  14   30.21    4.99
  -2  12 -14   26.62    5.40
   3 -12  14    7.74    3.46
  -3  12 -14    3.04    3.37
  -4  12 -14    7.60    4.18
   4 -12  14   13.64    3.86
  -5  12 -14    2.36    3.79
   5 -12  14    9.17    3.53
   6 -12  14   -1.47    2.65
  -6  12 -14   -3.24    3.03
  -7  12 -14   -1.57    3.33
  -8  12 -14   -4.18    1.68
  -9  12 -14   -2.03    2.19
 -10 -11  14    5.17    3.64
  -9 -11  14    2.85    3.15
  -8 -11  14    2.83    3.42
  -7 -11  14   27.94    5.37
  -6 -11  14    0.55    2.95
  -5 -11  14   23.66    4.91
  -4 -11  14    6.12    3.05
  -3 -11  14    3.53    2.99
  -2 -11  14    0.40    2.52
  -1 -11  14    6.31    3.27
   0 -11  14    2.00    2.63
  -1  11 -14   26.96    5.25
   1 -11  14   19.27    4.06
   2 -11  14    2.52    2.47
  -2  11 -14    0.91    3.08
  -3  11 -14    0.40    3.12
   3 -11  14   -3.15    2.02
  -4  11 -14    2.69    3.52
   4 -11  14    2.90    2.86
   5 -11  14    4.79    2.80
  -5  11 -14    8.10    4.24
  -6  11 -14   -1.18    3.10
   6 -11  14    2.26    2.79
  -7  11 -14   17.73    5.28
  -8  11 -14   -0.95    2.81
  -9  11 -14    3.60    2.60
 -11 -10  14    5.56    3.39
 -10 -10  14   25.33    5.09
  -9 -10  14    4.24    2.93
  -8 -10  14   19.70    4.60
  -7 -10  14    9.23    3.59
  -6 -10  14    3.09    2.76
  -5 -10  14    4.15    2.86
  -4 -10  14   35.90    5.11
  -3 -10  14    0.13    2.32
  -2 -10  14   45.68    5.41
  -1 -10  14    2.67    2.03
   0 -10  14   97.01    6.77
   0  10 -14   91.25    7.19
   0  10 -14   96.46    7.48
  -1  10 -14   29.84    5.08
   1 -10  14   23.95    4.04
  -1  10 -14   25.54    4.91
  -2  10 -14    1.70    3.05
  -2  10 -14   -1.85    3.04
   2 -10  14    5.87    2.63
  -3  10 -14    5.25    3.50
   3 -10  14    3.48    2.83
  -3  10 -14   -1.71    2.72
   4 -10  14   22.47    4.40
  -4  10 -14   26.06    5.39
  -4  10 -14   25.11    5.27
  -5  10 -14    5.21    3.89
   5 -10  14    2.19    2.71
  -5  10 -14   -0.12    3.16
  -6  10 -14   53.14    7.55
   6 -10  14   53.02    6.20
  -6  10 -14   50.79    6.99
  -8  10 -14   -0.32    3.61
  -9  10 -14   -2.04    1.73
 -10  10 -14   -3.54    2.16
 -12  -9  14   20.51    4.84
 -11  -9  14   20.42    4.70
 -10  -9  14   35.24    5.78
  -9  -9  14    3.17    2.80
  -8  -9  14    3.12    2.56
  -7  -9  14    3.59    2.63
  -6  -9  14   -0.18    2.20
  -5  -9  14   93.90    6.74
  -4  -9  14   33.47    4.69
  -3  -9  14   51.34    5.33
  -2  -9  14   10.06    2.87
  -1  -9  14   37.24    4.63
   1   9 -14   28.79    4.77
   1   9 -14   36.98    4.86
   0  -9  14    4.08    2.15
   0   9 -14   10.66    3.69
   0   9 -14   10.40    3.50
  -1   9 -14    3.65    2.66
  -1   9 -14    0.09    2.54
   1  -9  14    2.20    2.24
  -2   9 -14   23.11    4.42
   2  -9  14    5.89    2.49
  -2   9 -14   16.98    4.18
   3  -9  14   22.15    3.94
  -3   9 -14   28.51    5.06
  -3   9 -14   16.35    4.42
   4  -9  14    3.04    2.63
  -4   9 -14    3.75    3.44
  -4   9 -14    4.00    3.21
   5  -9  14   68.75    6.55
  -5   9 -14   64.20    7.61
  -5   9 -14   66.91    7.25
  -6   9 -14    6.33    3.86
  -6   9 -14   10.65    3.98
  -7   9 -14    4.50    3.79
  -7   9 -14    6.12    3.77
  -8   9 -14   -2.15    3.18
  -8   9 -14   -3.19    3.11
  -9   9 -14   -0.79    1.71
 -10   9 -14    5.12    5.35
 -12  -8  14   14.90    4.29
 -11  -8  14   16.52    4.18
 -10  -8  14    2.49    2.73
  -9  -8  14   -2.86    2.35
  -8  -8  14    0.26    1.93
  -7  -8  14   56.91    5.83
  -6  -8  14   44.52    5.27
  -5  -8  14   42.18    5.00
  -4  -8  14   24.60    3.94
  -3  -8  14   16.63    3.34
  -2  -8  14    2.91    2.00
  -2  -8  14    1.80    3.10
  -1  -8  14    1.05    2.01
   0  -8  14    8.86    2.79
  -1   8 -14    3.81    2.81
   1  -8  14    0.99    1.96
  -1   8 -14   -2.61    2.18
  -2   8 -14    3.70    2.97
   2  -8  14   -0.99    1.92
  -2   8 -14   -0.26    2.28
  -3   8 -14    6.66    3.47
   3  -8  14    7.65    2.86
  -3   8 -14   10.14    3.42
  -4   8 -14   11.33    3.90
  -4   8 -14   12.65    4.12
   4  -8  14   21.67    3.90
  -5   8 -14    2.90    3.04
   5  -8  14    1.97    2.76
  -5   8 -14   -0.68    2.57
  -6   8 -14    2.82    3.10
  -6   8 -14    1.21    3.02
  -7   8 -14    3.85    3.30
  -7   8 -14   -0.78    3.07
  -8   8 -14    2.11    3.25
  -8   8 -14   -2.34    3.02
  -9   8 -14    3.23    4.20
  -9   8 -14   -0.82    3.86
 -10   8 -14    7.87    5.07
 -13  -7  14   -6.22    2.31
 -12  -7  14   -0.71    1.82
 -11  -7  14    0.10    2.15
 -10  -7  14   -1.29    1.87
  -9  -7  14   -2.21    1.86
  -8  -7  14   30.60    4.72
  -7  -7  14   16.72    3.57
  -6  -7  14   13.49    3.26
  -5  -7  14    2.18    2.14
  -4  -7  14   -0.92    1.78
  -3  -7  14   25.33    3.91
  -3  -7  14   28.32    3.97
  -2  -7  14    8.01    2.65
  -2  -7  14    5.86    3.22
  -1  -7  14   -1.25    2.95
  -1  -7  14   -1.07    1.49
   0  -7  14    3.14    3.25
   0  -7  14    3.90    2.43
   1  -7  14   12.04    2.97
   1  -7  14   15.09    4.09
   2  -7  14   26.49    4.02
   2  -7  14   33.73    5.21
   3  -7  14  116.28    7.09
  -4   7 -14    0.40    2.74
   4  -7  14    0.13    2.19
  -4   7 -14   -0.10    2.67
  -5   7 -14    7.44    3.53
   5  -7  14    3.92    2.65
  -5   7 -14    4.51    3.46
  -6   7 -14    8.85    3.68
  -6   7 -14    7.39    3.57
  -7   7 -14    4.15    3.36
  -7   7 -14    0.78    3.07
  -8   7 -14   11.42    4.87
  -8   7 -14    9.62    4.26
  -9   7 -14   18.81    5.53
  -9   7 -14    7.13    4.33
 -10   7 -14   -0.43    4.20
 -10   7 -14   -0.48    3.71
 -14  -6  14   -0.23    1.50
 -13  -6  14    0.61    1.77
 -12  -6  14    8.56    3.05
 -11  -6  14   -4.24    1.80
 -10  -6  14    1.28    2.10
  -9  -6  14   19.72    3.80
  -8  -6  14   93.77    6.58
  -7  -6  14   30.43    4.29
  -6  -6  14   17.55    3.29
  -5  -6  14  163.46    8.32
  -4  -6  14   10.50    3.32
  -4  -6  14   15.29    3.20
  -3  -6  14    3.11    2.08
  -3  -6  14   -3.18    2.87
  -2  -6  14   19.29    4.23
  -2  -6  14   25.33    3.65
  -1  -6  14    2.03    3.26
  -1  -6  14    2.34    2.06
   0  -6  14  111.64    6.62
   0  -6  14  119.50    7.85
   1  -6  14    4.14    2.21
   1  -6  14    6.69    3.46
   2  -6  14   18.47    4.40
   2  -6  14   14.73    3.22
   3  -6  14    4.71    3.73
   3  -6  14    4.08    2.35
   4  -6  14    4.26    3.46
   4  -6  14   -0.32    2.26
  -6   6 -14   59.55    6.90
  -6   6 -14   54.48    7.34
  -7   6 -14    2.21    3.74
  -7   6 -14    0.72    3.12
  -8   6 -14   10.41    4.71
  -8   6 -14   17.41    4.79
  -9   6 -14    0.04    3.73
  -9   6 -14   -2.41    3.64
 -10   6 -14    6.23    4.74
 -10   6 -14    2.34    4.14
 -15  -5  14   -1.61    1.52
 -14  -5  14   -0.23    1.13
 -13  -5  14    0.44    2.45
 -12  -5  14   47.14    5.55
 -11  -5  14   21.29    4.04
 -10  -5  14   58.09    5.68
  -9  -5  14   40.75    4.81
  -8  -5  14   48.67    5.06
  -7  -5  14   24.63    3.99
  -6  -5  14    1.04    1.77
  -5  -5  14   12.14    3.31
  -5  -5  14   18.27    3.41
  -4  -5  14    2.71    2.06
  -4  -5  14    5.15    3.00
  -3  -5  14   21.52    3.87
  -3  -5  14   21.52    3.32
  -2  -5  14  112.32    7.15
  -2  -5  14  104.29    6.17
  -1  -5  14   36.14    3.93
  -1  -5  14   31.02    4.66
   0  -5  14    0.76    3.33
   0  -5  14    4.89    2.11
   1  -5  14   13.24    2.99
   1  -5  14    7.92    3.89
   2  -5  14   -1.10    3.24
   2  -5  14   -0.38    1.89
   3  -5  14    6.01    3.70
   3  -5  14    4.59    2.27
   4  -5  14   41.13    5.57
   4  -5  14   40.96    4.69
   5  -5  14   12.16    4.60
  -7   5 -14   14.24    4.44
  -7   5 -14   16.00    4.99
  -8   5 -14   -0.74    3.17
  -8   5 -14    0.94    3.72
  -9   5 -14    3.65    4.65
  -9   5 -14   -2.77    3.64
 -10   5 -14    6.99    5.20
 -10   5 -14    2.42    4.53
 -11   5 -14    5.38    4.99
 -11   5 -14   -1.04    4.55
 -15  -4  14   -0.81    1.28
 -14  -4  14    1.66    2.67
 -13  -4  14   40.82    5.42
 -12  -4  14    8.86    3.26
 -11  -4  14   13.09    3.36
 -10  -4  14   -1.06    1.86
  -9  -4  14   15.71    3.35
  -8  -4  14   21.77    3.67
  -7  -4  14    7.77    2.46
  -6  -4  14    6.42    2.99
  -6  -4  14    1.54    1.77
  -5  -4  14    8.04    2.37
  -5  -4  14    7.95    3.06
  -4  -4  14    6.02    2.26
  -4  -4  14    1.79    2.90
  -3  -4  14   29.20    4.26
  -3  -4  14   30.35    3.62
  -2  -4  14   54.86    5.48
  -2  -4  14   55.89    4.53
  -1  -4  14   -0.64    2.92
  -1  -4  14   -0.33    1.63
   0  -4  14    3.95    2.11
   0  -4  14    5.42    3.62
   1  -4  14   21.54    3.39
   1  -4  14   25.78    4.82
   2  -4  14    3.35    2.07
   2  -4  14   -2.80    3.18
   3  -4  14   -0.87    3.29
   3  -4  14   -0.91    2.06
   4  -4  14   31.74    5.31
   5  -4  14   -1.13    2.85
   6  -4  14   -0.82    3.69
  -8   4 -14   31.34    6.73
  -8   4 -14   35.64    6.41
  -9   4 -14    0.56    3.79
  -9   4 -14    6.88    4.52
 -10   4 -14    0.32    4.09
 -10   4 -14    3.05    4.75
 -11   4 -14    9.59    5.46
 -11   4 -14   18.76    6.62
 -16  -3  14    0.59    1.69
 -15  -3  14   -3.42    1.48
 -14  -3  14  186.75   10.46
 -13  -3  14    3.04    2.30
 -12  -3  14    0.03    1.96
 -11  -3  14    8.25    2.75
 -10  -3  14    0.17    1.63
  -9  -3  14    0.61    1.79
  -8  -3  14    5.43    2.38
  -7  -3  14   11.44    2.86
  -7  -3  14   10.65    3.14
  -6  -3  14   27.14    3.64
  -6  -3  14   32.62    4.09
  -5  -3  14    4.14    3.21
  -5  -3  14    4.63    2.05
  -4  -3  14    2.08    1.85
  -4  -3  14    4.01    3.08
  -3  -3  14  163.12    8.46
  -3  -3  14  160.79    7.08
  -2  -3  14   33.25    4.64
  -2  -3  14   39.50    3.81
  -1  -3  14    5.96    2.27
  -1  -3  14    5.88    3.46
   0  -3  14   12.16    2.65
   0  -3  14   12.45    3.72
   1  -3  14    3.24    2.14
   1  -3  14    6.01    3.70
   2  -3  14   18.77    3.27
   2  -3  14   17.13    4.43
   3  -3  14  129.73    8.82
   3  -3  14  119.75    6.70
   4  -3  14   -0.31    3.26
   5  -3  14    1.96    3.45
   6  -3  14   17.44    4.86
   7  -3  14    0.41    3.54
  -8   3 -14    7.58    4.21
  -8   3 -14    0.91    3.43
  -9   3 -14   20.52    5.79
  -9   3 -14   27.59    6.92
 -10   3 -14    1.14    4.21
 -10   3 -14    3.57    4.61
 -11   3 -14    6.33    5.88
 -11   3 -14   11.87    5.98
 -16  -2  14    1.01    1.11
 -15  -2  14   20.64    4.25
 -14  -2  14    2.23    2.65
 -13  -2  14   11.27    3.03
 -12  -2  14    0.16    1.95
 -11  -2  14    0.92    1.72
 -10  -2  14    7.43    2.55
  -9  -2  14    7.63    2.45
  -8  -2  14    1.32    1.76
  -8  -2  14    3.58    2.82
  -7  -2  14   -0.99    1.51
  -7  -2  14   -0.09    2.73
  -6  -2  14   68.64    5.58
  -6  -2  14   61.39    4.58
  -5  -2  14  160.87    8.18
  -5  -2  14  162.75    7.24
  -4  -2  14   39.44    3.73
  -4  -2  14   42.71    4.78
  -3  -2  14   19.59    2.87
  -3  -2  14   17.55    3.94
  -2  -2  14   95.72    5.29
  -2  -2  14   81.25    6.60
  -1  -2  14    0.99    1.78
  -1  -2  14    1.21    3.12
   0  -2  14    1.05    3.20
   0  -2  14    1.64    2.00
   1  -2  14   86.64    7.16
   1  -2  14   86.15    5.34
   2  -2  14  125.76    8.18
   2  -2  14  136.25    6.77
   3  -2  14   48.46    5.86
   4  -2  14   23.19    4.93
   5  -2  14    2.01    3.58
   6  -2  14   21.98    5.02
   7  -2  14   17.54    5.03
   8  -2  14   43.97    6.76
  -9   2 -14   13.77    5.37
  -9   2 -14   17.74    6.08
 -10   2 -14    9.28    5.37
 -10   2 -14    3.24    4.60
 -11   2 -14    7.96    6.51
 -11   2 -14   -0.91    4.93
 -17  -1  14   -1.28    1.45
 -16  -1  14    1.32    2.25
 -15  -1  14    2.90    2.49
 -14  -1  14   18.70    3.90
 -13  -1  14    5.78    2.66
 -12  -1  14    6.28    2.42
 -11  -1  14   21.73    3.69
 -10  -1  14  101.84    6.30
  -9  -1  14    2.42    2.86
  -9  -1  14   -2.72    1.53
  -8  -1  14  189.33    8.95
  -8  -1  14  186.56    8.18
  -7  -1  14   27.70    4.36
  -7  -1  14   30.74    3.58
  -6  -1  14   32.25    3.45
  -6  -1  14   25.98    4.11
  -5  -1  14    0.66    1.78
  -5  -1  14   -0.31    2.65
  -4  -1  14    7.94    2.17
  -4  -1  14    8.40    3.39
  -3  -1  14   70.76    5.83
  -3  -1  14   65.23    4.31
  -2  -1  14   65.15    5.93
  -2  -1  14   70.93    4.51
  -1  -1  14   32.81    3.38
  -1  -1  14   35.43    5.04
   0  -1  14  109.58    7.50
   0  -1  14  104.47    5.65
   1  -1  14    0.56    3.32
   1  -1  14    5.02    2.08
   2  -1  14   -0.04    2.76
   3  -1  14    6.03    3.59
   4  -1  14   22.81    4.85
   5  -1  14    9.69    4.37
   6  -1  14   20.36    5.14
   7  -1  14   -0.12    3.42
   8  -1  14   15.25    5.05
  -9   1 -14    7.91    4.95
  -9   1 -14   19.50    5.95
 -10   1 -14    1.79    4.79
 -10   1 -14    1.76    5.00
 -17   0  14   -2.63    1.12
 -16   0  14    2.06    2.75
 -15   0  14    0.72    2.22
 -14   0  14    6.36    2.59
 -13   0  14   10.82    2.89
 -12   0  14    9.69    2.87
 -11   0  14    5.87    2.50
 -10   0  14    3.98    2.12
 -10   0  14    4.20    2.95
  -9   0  14   73.22    6.12
  -9   0  14   74.33    5.16
  -8   0  14    0.18    3.00
  -8   0  14    2.16    1.76
  -7   0  14    0.14    1.71
  -7   0  14    8.73    3.24
  -6   0  14   15.96    3.69
  -6   0  14   14.68    2.50
  -5   0  14    1.75    2.96
  -5   0  14    1.26    1.65
  -4   0  14   -0.71    1.32
  -4   0  14    2.02    2.95
  -3   0  14  124.07    5.57
  -3   0  14  122.72    7.83
  -2   0  14   43.40    3.43
  -2   0  14   66.84    5.95
  -1   0  14   15.08    4.11
   0   0  14   -1.67    0.96
   0   0  14   -0.13    3.30
   1   0  14   24.28    4.75
   2   0  14   -2.61    2.84
   3   0  14    8.29    3.65
   4   0  14   -1.68    2.91
   5   0  14    4.28    3.69
   6   0  14   28.62    5.63
   7   0  14    6.54    3.86
   8   0  14   10.36    4.54
 -10   0 -14    3.03    5.57
 -10   0 -14    3.98    6.78
 -18   1  14   15.94    4.85
 -17   1  14   -1.97    2.33
 -16   1  14    4.61    2.90
 -15   1  14   13.36    3.62
 -14   1  14   20.85    3.85
 -13   1  14    4.05    2.48
 -12   1  14   35.92    4.33
 -11   1  14   -0.08    2.71
 -11   1  14    0.25    1.76
 -10   1  14    6.29    3.18
 -10   1  14    5.84    2.14
  -9   1  14   31.63    4.65
  -9   1  14   29.66    3.55
  -8   1  14   33.35    4.53
  -8   1  14   19.04    2.87
  -7   1  14    2.51    1.87
  -7   1  14    3.99    3.19
  -6   1  14   55.19    5.41
  -6   1  14   52.39    3.81
  -5   1  14    3.76    3.20
  -5   1  14    0.39    0.79
  -4   1  14   22.13    4.27
  -4   1  14   23.62    2.51
  -3   1  14   71.17    6.11
  -3   1  14   67.77    3.99
  -2   1  14   10.53    3.80
  -2   1  14    9.27    2.03
  -1   1  14    0.70    3.10
  -1   1  14    1.86    1.72
   0   1  14   -4.44    2.53
   0   1  14    2.40    1.66
   1   1  14   -2.28    3.10
   2   1  14   13.17    4.09
   3   1  14   15.22    4.16
   4   1  14   34.91    5.39
   5   1  14    0.43    3.33
   6   1  14   23.08    5.27
   7   1  14   10.43    4.41
   8   1  14    9.47    4.63
   9   1  14    4.61    4.47
 -18   2  14   12.74    4.20
 -17   2  14    3.54    2.95
 -16   2  14   15.90    3.87
 -15   2  14   39.96    5.16
 -14   2  14    2.11    2.20
 -13   2  14   36.47    4.38
 -12   2  14   22.43    4.06
 -12   2  14   14.68    3.06
 -11   2  14   11.79    2.73
 -11   2  14   11.02    3.67
 -10   2  14   11.80    2.68
 -10   2  14   11.56    3.59
  -9   2  14  127.13    7.91
  -9   2  14  133.79    6.44
  -8   2  14   15.13    2.52
  -8   2  14   11.55    3.81
  -6   2  14  170.48    6.58
  -6   2  14  166.07    8.99
  -5   2  14  152.81    8.64
  -5   2  14  139.14    5.69
  -4   2  14   -0.62    2.89
  -4   2  14    0.67    1.39
  -3   2  14    7.77    3.63
  -2   2  14    4.22    3.22
  -1   2  14    9.39    3.72
   0   2  14    0.30    3.08
   1   2  14   17.36    4.26
   2   2  14   60.08    6.26
   3   2  14   40.63    5.60
   4   2  14   13.11    4.14
   5   2  14   23.16    5.25
   6   2  14    6.19    3.92
   7   2  14    1.39    3.82
   8   2  14   23.20    5.50
 -18   3  14   22.54    4.23
 -17   3  14    2.94    2.89
 -16   3  14    6.62    3.04
 -15   3  14   18.34    3.82
 -14   3  14   22.10    3.87
 -13   3  14    2.65    2.02
 -13   3  14   -1.64    3.03
 -12   3  14   97.98    6.07
 -12   3  14  112.27    7.64
 -11   3  14   65.81    6.03
 -11   3  14   60.24    4.63
 -10   3  14   23.54    4.38
 -10   3  14   18.20    2.96
  -9   3  14    3.63    3.29
  -9   3  14   -0.25    1.15
  -8   3  14  259.50    8.73
  -8   3  14  256.27   11.50
  -7   3  14   17.64    2.33
  -7   3  14   14.62    4.04
  -6   3  14  159.68    9.06
  -5   3  14    8.93    3.73
  -4   3  14    4.65    3.20
  -3   3  14   25.50    4.80
  -2   3  14   44.99    5.29
  -1   3  14   20.40    4.52
   0   3  14  121.14    7.99
   1   3  14    1.64    3.10
   2   3  14   22.61    4.72
   3   3  14    0.94    3.07
   4   3  14    2.97    3.47
   5   3  14   -2.23    3.45
   6   3  14    2.47    3.52
   7   3  14   10.15    4.62
 -19   4  14   10.08    4.21
 -18   4  14   13.86    3.83
 -17   4  14   22.39    4.48
 -16   4  14   32.52    4.89
 -15   4  14   11.58    3.33
 -14   4  14    2.05    3.51
 -14   4  14    8.15    2.72
 -13   4  14    9.99    4.00
 -13   4  14   15.57    3.24
 -12   4  14    5.72    2.12
 -12   4  14    7.86    3.63
 -11   4  14   25.49    4.59
 -11   4  14   34.45    3.68
 -10   4  14   25.97    4.53
  -9   4  14  342.62   13.74
  -8   4  14    1.73    3.24
  -7   4  14   57.70    6.19
  -6   4  14   -0.55    3.06
  -5   4  14   73.29    6.59
  -4   4  14    1.71    3.42
  -3   4  14   24.66    4.74
   3  -4 -14   24.57    3.28
   2  -4 -14    0.75    1.80
  -2   4  14   -3.25    2.64
  -1   4  14   54.26    5.89
   0   4  14   -3.55    2.73
   1   4  14   30.10    5.02
   2   4  14    2.49    3.24
   3   4  14   14.48    4.35
   4   4  14   11.09    4.10
   5   4  14   22.53    5.03
   6   4  14    8.51    4.38
 -19   5  14    6.44    3.73
 -18   5  14    5.44    3.32
 -17   5  14   13.46    3.65
 -16   5  14    4.55    3.00
 -15   5  14   -1.98    1.94
 -15   5  14    1.21    3.69
 -14   5  14   55.35    5.19
 -14   5  14   49.20    6.06
 -13   5  14   -0.32    3.51
 -12   5  14   88.57    7.29
 -11   5  14   89.82    7.30
 -10   5  14   53.33    5.89
  -9   5  14    1.73    3.20
  -8   5  14   -1.03    3.16
  -7   5  14    2.76    3.53
  -6   5  14    1.16    3.40
  -5   5  14   49.48    5.91
   4  -5 -14    5.46    2.30
  -4   5  14    8.57    3.50
   3  -5 -14   10.02    2.75
  -3   5  14   14.84    4.11
  -2   5  14   56.95    6.27
   2  -5 -14   68.88    5.15
   1  -5 -14    2.89    1.98
  -1   5  14    1.46    3.13
   0   5  14   42.98    5.68
   1   5  14    0.54    2.98
   2   5  14    0.06    3.07
   3   5  14   19.11    4.65
   4   5  14   93.06    8.02
   5   5  14    2.25    3.70
 -15   6  14   15.51    5.06
 -14   6  14    4.02    3.84
 -13   6  14   35.56    5.74
 -12   6  14   11.53    4.17
 -11   6  14    2.42    3.65
 -10   6  14    1.78    3.41
  -9   6  14    2.78    3.21
  -8   6  14   66.60    6.55
  -7   6  14    9.32    3.90
  -6   6  14   23.18    4.66
   5  -6 -14   52.15    4.75
  -5   6  14   47.91    5.69
  -4   6  14   11.95    3.98
   4  -6 -14    4.37    2.21
   3  -6 -14   70.89    5.32
  -3   6  14   68.42    6.64
  -2   6  14    2.99    3.31
   2  -6 -14   -2.60    1.71
   1  -6 -14   -0.31    1.78
  -1   6  14   -0.09    2.90
   0   6  14   -0.68    3.06
   0  -6 -14    2.47    2.26
   1   6  14   15.43    4.51
   2   6  14   13.94    4.32
   3   6  14    7.48    3.94
   4   6  14   22.28    5.05
   5   6  14   -2.07    3.65
 -16   7  14   22.99    5.63
 -15   7  14    7.31    4.35
 -14   7  14   53.07    6.72
 -13   7  14   30.36    5.39
 -12   7  14    1.60    3.70
 -11   7  14    2.90    3.68
 -10   7  14   17.03    4.60
  -9   7  14    1.73    3.37
  -8   7  14   14.51    4.21
  -7   7  14    9.34    3.87
  -6   7  14   28.19    4.97
   5  -7 -14    4.02    2.56
  -5   7  14    6.18    3.47
   4  -7 -14   34.28    4.38
  -4   7  14   34.93    5.27
   3  -7 -14    4.68    2.50
  -3   7  14    8.53    3.46
  -2   7  14   14.03    4.25
   2  -7 -14   17.14    3.63
   1  -7 -14    1.99    2.45
  -1   7  14   -4.32    3.02
   0   7  14   23.77    4.90
   0  -7 -14   18.48    4.05
   1   7  14    1.58    3.18
   2   7  14   12.39    4.38
   3   7  14   -0.67    3.30
   4   7  14    3.38    3.93
 -17   8  14   17.64    5.83
 -16   8  14   12.92    5.05
 -15   8  14   14.26    5.04
 -14   8  14    7.65    4.42
 -13   8  14   18.27    5.04
 -12   8  14    1.11    3.51
 -11   8  14    4.33    3.74
 -10   8  14    7.69    4.12
  -9   8  14    0.39    3.30
  -8   8  14   21.25    4.77
  -7   8  14  169.72    9.81
   6  -8 -14   -1.31    1.87
  -6   8  14    4.17    3.35
  -5   8  14   -0.09    3.08
   5  -8 -14    1.82    2.18
  -4   8  14   -2.75    2.74
   4  -8 -14   -0.66    2.08
   3  -8 -14   20.71    4.11
  -3   8  14   16.59    4.45
  -2   8  14   31.70    5.36
   2  -8 -14   28.80    4.62
  -1   8  14   56.07    6.66
   1  -8 -14   54.33    5.84
   0   8  14    9.20    3.82
   0  -8 -14   11.71    3.49
   1   8  14   10.78    4.10
   2   8  14   -0.28    3.55
   3   8  14   -4.56    3.33
 -18   9  14    3.56    5.45
 -17   9  14   29.27    6.54
 -16   9  14    4.03    4.88
 -15   9  14    3.19    4.33
 -14   9  14   13.04    5.19
 -13   9  14    1.80    3.80
 -12   9  14   24.41    5.49
 -11   9  14   18.97    5.27
 -10   9  14    1.52    3.28
  -9   9  14    1.21    3.12
  -8   9  14  102.97    8.04
  -7   9  14    2.92    3.41
  -6   9  14    5.72    3.35
   6  -9 -14    6.94    2.99
  -5   9  14   -1.62    2.81
   5  -9 -14    1.52    2.44
  -4   9  14   28.28    5.24
   4  -9 -14   37.10    5.13
   3  -9 -14    5.74    2.84
  -3   9  14    3.54    3.60
  -2   9  14   24.43    5.13
   2  -9 -14   17.49    4.12
   1  -9 -14    3.55    2.96
  -1   9  14    7.80    4.12
   0  -9 -14   27.12    5.09
   0   9  14   22.45    4.96
  -1  -9 -14    8.73    3.99
   1   9  14    8.79    4.38
  -2  -9 -14    7.66    3.62
   2   9  14    7.57    4.04
 -18  10  14    8.69    6.22
 -17  10  14    3.82    5.17
 -16  10  14    4.68    5.29
 -15  10  14    3.18    4.27
 -14  10  14   -5.80    3.66
 -13  10  14    2.44    4.13
 -12  10  14   26.92    5.74
 -11  10  14   20.64    5.45
 -10  10  14    5.93    4.02
  -9  10  14   -1.21    3.18
  -8  10  14    4.50    3.63
  -7  10  14    5.31    3.61
   7 -10 -14    2.18    2.56
  -6  10  14   -0.47    2.92
   6 -10 -14    2.75    2.81
   5 -10 -14   14.94    3.94
  -5  10  14    9.07    4.09
  -4  10  14    6.93    3.86
   4 -10 -14   11.62    3.65
  -3  10  14   33.68    5.61
   3 -10 -14   26.00    5.07
   2 -10 -14    3.90    3.23
  -2  10  14    3.18    3.38
   1 -10 -14   31.69    5.63
  -1  10  14   34.66    5.74
   0 -10 -14   -1.48    2.84
   0  10  14    1.90    3.16
   1  10  14    4.53    3.83
  -1 -10 -14    5.26    4.07
  -2 -10 -14    9.25    4.36
 -17  11  14    3.59    5.37
 -16  11  14   -1.11    4.66
 -15  11  14    1.77    4.27
 -14  11  14   45.47    7.24
 -13  11  14    4.50    4.21
 -12  11  14   21.37    5.34
 -11  11  14   44.48    6.75
 -10  11  14   16.87    4.88
  -9  11  14    0.54    3.38
  -8  11  14   86.44    8.01
   7 -11 -14    4.05    3.16
  -7  11  14   -0.61    3.15
   6 -11 -14  141.85    9.22
  -6  11  14  159.82   10.18
  -5  11  14    0.30    3.28
   5 -11 -14   -0.38    3.36
   4 -11 -14   23.59    4.96
  -4  11  14   19.95    5.01
  -3  11  14   -0.15    3.31
   3 -11 -14    1.18    3.01
  -2  11  14   13.01    4.43
   2 -11 -14   12.30    4.32
  -1  11  14   39.43    6.15
   1 -11 -14   45.05    6.85
   0  11  14   15.33    4.79
   0 -11 -14   19.11    5.24
  -1 -11 -14    5.39    4.27
  -2 -11 -14   42.51    7.54
 -16  12  14    2.94    5.26
 -15  12  14   63.93    8.35
 -14  12  14   31.14    6.59
 -13  12  14    5.76    4.35
 -12  12  14    1.32    4.11
 -11  12  14    2.86    3.53
 -10  12  14    2.64    3.78
  -9  12  14   27.95    5.79
  -8  12  14   33.15    5.81
   8 -12 -14   13.17    4.24
  -7  12  14  112.19    9.09
   7 -12 -14  127.70    9.15
  -6  12  14    5.67    3.82
   6 -12 -14   -0.57    2.86
  -5  12  14    8.83    4.03
   5 -12 -14    8.04    3.93
  -4  12  14   -1.34    2.91
   4 -12 -14    3.23    3.57
   3 -12 -14    2.34    3.69
  -3  12  14    4.64    3.31
  -2  12  14   15.53    4.79
  -1  12  14   38.85    6.22
   1 -12 -14   43.05    7.12
   0 -12 -14   -1.73    3.90
  -1 -12 -14   23.07    6.27
 -15  13  14    5.10    4.92
 -14  13  14    8.75    5.03
 -13  13  14   10.20    5.08
 -12  13  14    0.43    3.11
 -11  13  14   -0.32    3.58
 -10  13  14   -2.21    3.72
  -8  13  14   27.06    5.61
   8 -13 -14   21.53    5.19
  -7  13  14    4.61    3.97
   7 -13 -14    4.98    3.87
  -6  13  14    1.74    3.38
   6 -13 -14   -3.80    2.95
   5 -13 -14    1.53    3.53
  -5  13  14    6.80    3.74
   4 -13 -14   20.45    5.55
  -4  13  14   16.85    4.82
   3 -13 -14   -1.32    3.73
  -3  13  14   -3.64    2.81
   2 -13 -14   17.42    5.60
   1 -13 -14   -2.18    4.09
   0 -13 -14   25.93    6.62
 -14  14  14    4.10    4.77
 -13  14  14    0.84    1.68
 -12  14  14    0.68    1.40
 -11  14  14    2.27    1.34
 -10  14  14   -0.62    1.96
  -9  14  14    0.36    2.86
   8 -14 -14    1.00    3.55
  -8  14  14    1.76    3.53
  -7  14  14    6.19    3.78
   7 -14 -14   -0.99    3.26
   6 -14 -14   -5.42    3.28
  -6  14  14    3.82    3.92
  -5  14  14    9.70    4.28
   5 -14 -14    7.74    4.55
   4 -14 -14   -1.68    3.72
  -4  14  14   -2.09    3.74
   3 -14 -14    8.07    4.86
   2 -14 -14   15.37    5.92
 -11  15  14    0.77    1.68
 -10  15  14    1.22    1.81
  -9  15  14    2.84    1.66
  -8  15  14    5.06    4.10
   8 -15 -14   -0.70    3.83
   7 -15 -14   -4.82    3.25
  -7  15  14    5.03    4.11
   6 -15 -14    6.36    4.67
  -6  15  14   -5.97    3.05
  -5  15  14   23.07    5.54
   5 -15 -14   16.03    6.01
  -2 -15  15    6.62    4.07
  -1 -15  15   -0.45    3.36
   0 -15  15   -4.39    3.41
   1 -15  15   -2.90    3.01
   2 -15  15    1.98    3.25
   3 -15  15   -2.81    2.98
  -6  15 -15   -2.75    4.53
  -4 -14  15    1.67    3.49
  -3 -14  15    7.18    4.39
  -2 -14  15    2.05    3.71
  -1 -14  15    1.73    3.60
   0 -14  15   -5.21    2.95
   1 -14  15    4.26    2.96
   2 -14  15    5.53    3.76
   3 -14  15    1.01    3.01
  -4  14 -15    1.05    3.75
   4 -14  15    0.69    2.95
   5 -14  15    0.75    3.37
  -5  14 -15    6.25    4.46
  -6  14 -15    4.65    4.15
  -7  14 -15    6.12    5.16
  -6 -13  15    7.80    3.93
  -5 -13  15    2.97    3.46
  -4 -13  15   26.90    5.41
  -3 -13  15    0.38    2.86
  -2 -13  15    3.31    3.60
  -1 -13  15   -0.38    2.79
   0 -13  15    5.17    3.35
   1 -13  15    1.39    2.72
   2 -13  15   15.96    4.35
  -3  13 -15    3.42    4.42
   3 -13  15    4.60    3.14
  -4  13 -15   15.24    5.22
   4 -13  15   11.67    4.28
   5 -13  15    1.96    3.49
  -5  13 -15    1.13    3.97
  -6  13 -15   14.31    5.33
  -7  13 -15    2.97    4.38
  -8 -12  15   -2.17    3.18
  -7 -12  15   31.01    5.69
  -6 -12  15    3.37    3.54
  -5 -12  15    6.46    3.69
  -4 -12  15    1.89    3.35
  -3 -12  15    1.37    2.82
  -2 -12  15    6.56    3.60
  -1 -12  15   36.50    5.61
   0 -12  15   -0.59    2.58
   1 -12  15   25.76    4.93
   2 -12  15    2.07    2.98
  -2  12 -15    2.37    3.48
  -3  12 -15   -2.04    3.72
   3 -12  15    4.19    2.80
  -4  12 -15    2.10    3.55
   4 -12  15    1.84    2.83
  -5  12 -15    3.10    3.62
   5 -12  15    1.77    2.80
  -6  12 -15    9.58    4.65
  -7  12 -15    0.28    2.26
  -8  12 -15    0.10    2.48
  -9 -11  15   21.52    4.74
  -8 -11  15   23.36    4.94
  -7 -11  15    6.78    3.54
  -6 -11  15   -1.64    2.48
  -5 -11  15    0.40    3.02
  -4 -11  15   17.27    4.40
  -3 -11  15    8.41    3.54
  -2 -11  15   29.42    5.10
  -1 -11  15    1.44    2.58
   0 -11  15   26.25    4.68
  -1  11 -15    2.94    3.47
   1 -11  15    2.57    2.37
  -1  11 -15    0.90    2.96
   2 -11  15    4.13    2.72
  -2  11 -15    2.59    3.63
  -2  11 -15    5.70    3.96
  -3  11 -15    6.97    4.13
  -3  11 -15    0.84    3.54
   3 -11  15    8.16    3.38
   4 -11  15    6.00    3.21
  -4  11 -15    6.00    4.08
  -4  11 -15    3.94    3.91
   5 -11  15    7.60    3.29
  -5  11 -15    4.57    4.03
   6 -11  15   -1.00    2.72
  -6  11 -15    5.88    4.32
  -7  11 -15    1.98    2.83
  -8  11 -15    2.24    2.26
 -10 -10  15    9.86    3.74
  -9 -10  15    0.59    3.04
  -8 -10  15    0.23    2.79
  -7 -10  15    0.89    2.90
  -6 -10  15   -4.04    2.12
  -5 -10  15    6.49    3.36
  -4 -10  15   23.12    4.42
  -3 -10  15   13.72    3.53
  -2 -10  15    4.62    2.86
  -1 -10  15   23.64    4.22
   0  10 -15    0.18    2.94
   0 -10  15    2.37    2.40
   0  10 -15    0.09    2.73
  -1  10 -15    3.19    3.00
   1 -10  15    4.57    2.55
  -1  10 -15    5.93    3.75
   2 -10  15    8.69    3.11
  -2  10 -15    1.98    3.31
  -2  10 -15   16.21    4.21
  -3  10 -15    9.77    4.34
   3 -10  15    9.29    3.20
  -3  10 -15   15.06    4.58
  -4  10 -15    4.08    3.41
   4 -10  15    5.89    2.86
  -4  10 -15   -1.28    3.27
  -5  10 -15   29.14    5.74
   5 -10  15   26.35    4.84
  -5  10 -15   24.71    5.39
  -6  10 -15    6.50    3.91
   6 -10  15    6.69    3.58
  -6  10 -15   -2.50    3.39
  -7  10 -15    1.22    3.48
  -7  10 -15   -0.21    3.62
  -8  10 -15   -1.83    1.82
  -9  10 -15   -0.50    2.44
 -11  -9  15    3.00    3.36
 -10  -9  15    3.86    3.26
  -9  -9  15    0.48    2.65
  -8  -9  15    1.02    2.31
  -7  -9  15   -0.50    2.17
  -6  -9  15    5.48    2.79
  -5  -9  15   10.03    3.29
  -4  -9  15   91.95    6.73
  -3  -9  15    2.56    2.15
  -2  -9  15   54.87    5.57
   1   9 -15    2.98    2.68
  -1  -9  15   -0.04    1.84
   1   9 -15    5.29    3.10
   0   9 -15    6.74    3.21
   0  -9  15   10.55    3.05
   0   9 -15    8.97    3.34
  -1   9 -15    1.67    2.89
  -1   9 -15    4.26    3.07
   1  -9  15   -0.27    1.93
  -2   9 -15   16.68    4.26
   2  -9  15   17.73    3.55
  -2   9 -15   14.34    4.45
  -3   9 -15    0.74    3.04
  -3   9 -15    6.34    3.54
   3  -9  15   -1.45    2.21
  -4   9 -15   61.43    7.07
   4  -9  15   46.52    5.59
  -4   9 -15   63.49    7.64
  -5   9 -15    1.62    3.34
   5  -9  15   -0.08    2.44
  -5   9 -15    4.86    3.55
  -7   9 -15   -3.24    3.00
  -7   9 -15   -3.87    3.15
  -8   9 -15    1.41    2.02
  -8   9 -15   -0.51    1.70
  -9   9 -15    0.13    2.18
 -12  -8  15   16.12    4.41
 -11  -8  15   -3.18    1.26
 -10  -8  15   -2.61    1.81
  -9  -8  15   16.72    3.85
  -8  -8  15    3.20    2.39
  -7  -8  15   63.18    6.33
  -6  -8  15   20.43    3.96
  -5  -8  15   26.03    4.15
  -4  -8  15    2.32    2.32
  -3  -8  15   15.39    3.41
  -2  -8  15   -0.82    1.67
  -2  -8  15    2.17    3.18
  -1  -8  15  116.08    7.60
  -1  -8  15  111.27    6.89
   0  -8  15    2.48    3.55
   0  -8  15    2.29    2.28
   1  -8  15   65.80    5.78
  -2   8 -15   30.55    5.15
   2  -8  15   25.75    4.34
  -2   8 -15   35.13    5.77
  -3   8 -15   24.70    5.54
  -3   8 -15   23.28    4.88
   3  -8  15   20.70    4.16
  -4   8 -15   19.43    4.64
  -4   8 -15   35.88    6.03
   4  -8  15   29.19    4.64
  -5   8 -15   -1.77    2.88
   5  -8  15   -1.13    2.14
  -5   8 -15   -2.78    2.44
  -6   8 -15   19.46    5.06
  -6   8 -15    9.17    3.72
  -7   8 -15    1.18    3.50
  -7   8 -15   -0.58    3.16
  -8   8 -15    0.81    2.62
  -8   8 -15    2.80    2.78
  -9   8 -15   18.00    5.76
  -9   8 -15   12.72    5.26
 -13  -7  15   -0.81    1.29
 -12  -7  15   -1.59    1.08
 -11  -7  15    6.02    2.82
 -10  -7  15   13.91    3.54
  -9  -7  15   36.39    5.23
  -8  -7  15   24.16    4.27
  -7  -7  15   70.71    6.18
  -6  -7  15   14.76    3.49
  -5  -7  15  154.64    8.27
  -4  -7  15   18.20    3.65
  -3  -7  15   15.87    3.73
  -3  -7  15   17.54    3.35
  -2  -7  15    7.08    3.24
  -2  -7  15    7.98    2.75
  -1  -7  15   37.96    4.38
  -1  -7  15   43.01    5.02
   0  -7  15   87.03    6.91
   0  -7  15   87.84    6.11
   1  -7  15  127.02    7.36
   1  -7  15  132.17    8.50
   2  -7  15   28.27    5.28
   2  -7  15   23.45    3.88
   3  -7  15    6.25    2.92
   3  -7  15   -0.39    3.51
   4  -7  15    5.11    2.86
  -4   7 -15    5.32    3.44
  -4   7 -15    7.58    3.48
  -5   7 -15   -0.68    2.58
  -5   7 -15    1.00    2.58
  -6   7 -15    4.79    3.58
  -6   7 -15    2.49    3.43
  -7   7 -15    2.82    3.28
  -7   7 -15   -1.65    3.03
  -8   7 -15   19.40    5.95
  -8   7 -15   20.73    5.44
  -9   7 -15    0.87    3.76
  -9   7 -15   -1.83    3.74
 -14  -6  15    1.30    1.71
 -13  -6  15   -1.32    0.87
 -11  -6  15   -1.25    1.86
 -10  -6  15   14.82    3.51
  -9  -6  15    4.35    2.61
  -8  -6  15   15.37    3.44
  -7  -6  15    4.39    2.23
  -6  -6  15   20.33    3.57
  -5  -6  15   30.67    4.27
  -4  -6  15    4.68    2.23
  -4  -6  15    8.24    3.30
  -3  -6  15   29.07    4.32
  -3  -6  15   28.46    3.88
  -2  -6  15   21.39    4.37
  -2  -6  15   21.39    3.58
  -1  -6  15   20.85    3.50
  -1  -6  15   20.61    4.34
   0  -6  15    3.52    2.18
   0  -6  15    0.49    3.25
   1  -6  15   -3.24    2.91
   1  -6  15   -0.70    1.67
   2  -6  15    2.11    3.41
   2  -6  15    4.45    2.64
   3  -6  15   54.94    5.43
   3  -6  15   53.37    6.34
   4  -6  15   56.21    5.59
   4  -6  15   35.01    5.73
  -6   6 -15   -0.52    2.81
  -6   6 -15    5.07    3.62
  -7   6 -15    0.84    3.74
  -7   6 -15    2.49    3.70
  -8   6 -15    4.57    4.20
  -8   6 -15   -0.34    3.63
  -9   6 -15    4.70    4.13
  -9   6 -15   -0.92    4.02
 -10   6 -15    5.81    4.67
 -14  -5  15   -0.28    1.33
 -13  -5  15    3.90    2.82
 -12  -5  15    0.89    2.36
 -11  -5  15    1.67    2.19
 -10  -5  15   19.10    3.88
  -9  -5  15   -0.17    1.94
  -8  -5  15   23.49    4.07
  -7  -5  15   30.22    4.23
  -6  -5  15    0.24    1.90
  -5  -5  15   36.54    4.36
  -5  -5  15   33.54    4.20
  -4  -5  15    0.39    2.88
  -4  -5  15    0.55    1.75
  -3  -5  15    3.57    2.05
  -3  -5  15   -0.25    2.96
  -2  -5  15   61.59    5.70
  -2  -5  15   66.05    5.00
  -1  -5  15   11.32    2.69
  -1  -5  15    7.98    3.69
   0  -5  15   32.53    5.04
   0  -5  15   36.18    4.14
   1  -5  15   -0.15    1.95
   1  -5  15   -0.79    3.33
   2  -5  15   11.75    3.09
   2  -5  15    6.02    3.69
   3  -5  15    0.56    3.45
   3  -5  15    1.22    2.28
   4  -5  15   15.28    4.82
   5  -5  15   21.48    5.17
  -7   5 -15    7.25    4.11
  -7   5 -15    7.42    4.82
  -8   5 -15    8.43    4.97
  -8   5 -15    2.33    4.05
  -9   5 -15    3.81    4.54
  -9   5 -15    1.02    4.59
 -10   5 -15    5.58    4.68
 -10   5 -15    0.13    4.58
 -15  -4  15   -1.74    1.16
 -14  -4  15   -1.66    1.80
 -13  -4  15  102.59    7.62
 -12  -4  15   37.55    5.21
 -11  -4  15   17.85    3.80
 -10  -4  15    1.88    2.03
  -9  -4  15    0.30    1.74
  -8  -4  15    1.25    2.10
  -7  -4  15   65.04    5.47
  -6  -4  15   31.76    4.30
  -6  -4  15   31.52    4.12
  -5  -4  15   10.74    2.62
  -5  -4  15    5.88    3.15
  -4  -4  15    5.44    2.25
  -4  -4  15    9.17    3.38
  -3  -4  15   81.12    6.57
  -3  -4  15   63.55    4.85
  -2  -4  15    4.65    3.42
  -2  -4  15    1.01    1.83
  -1  -4  15    6.09    2.38
  -1  -4  15   11.20    3.91
   0  -4  15   -1.79    3.09
   0  -4  15    0.29    1.94
   1  -4  15   46.03    4.57
   1  -4  15   43.95    5.74
   2  -4  15   29.98    5.35
   2  -4  15   30.21    3.99
   3  -4  15   14.22    4.69
   3  -4  15   12.41    3.12
   4  -4  15   54.27    6.55
   5  -4  15   10.81    4.19
   6  -4  15   13.17    4.97
  -8   4 -15    8.29    5.33
  -8   4 -15    2.33    4.50
  -9   4 -15   46.21    7.96
  -9   4 -15   57.12    9.25
 -10   4 -15    7.50    5.03
 -10   4 -15   -2.38    4.80
 -16  -3  15    1.26    1.80
 -15  -3  15    0.78    1.22
 -14  -3  15    3.65    2.45
 -13  -3  15   26.67    4.57
 -12  -3  15    3.85    2.60
 -11  -3  15    0.56    2.21
 -10  -3  15   -3.24    1.49
  -9  -3  15   10.57    2.89
  -8  -3  15    1.60    2.02
  -7  -3  15    0.99    1.67
  -7  -3  15    0.82    2.71
  -6  -3  15   14.14    3.58
  -6  -3  15    4.74    2.19
  -5  -3  15    1.18    1.82
  -5  -3  15    4.65    3.18
  -4  -3  15   23.06    4.30
  -4  -3  15   18.90    2.98
  -3  -3  15   30.31    3.60
  -3  -3  15   32.99    4.72
  -2  -3  15    6.85    2.31
  -2  -3  15    6.28    3.53
  -1  -3  15  111.66    6.03
  -1  -3  15   79.95    6.78
   0  -3  15   22.80    3.36
   0  -3  15   17.74    4.42
   1  -3  15   20.20    4.52
   1  -3  15   14.60    3.10
   2  -3  15   19.15    4.71
   2  -3  15   18.02    3.31
   3  -3  15   34.31    5.60
   4  -3  15    4.45    3.73
   5  -3  15    1.80    3.56
   6  -3  15    4.61    4.08
   7  -3  15   11.30    4.90
  -8   3 -15   67.16    9.31
  -8   3 -15   40.28    7.07
  -9   3 -15    4.40    4.78
  -9   3 -15    4.71    5.20
 -10   3 -15   -2.31    4.94
 -10   3 -15    5.46    5.26
 -16  -2  15   -2.44    1.33
 -15  -2  15    0.02    2.13
 -14  -2  15    9.83    3.34
 -13  -2  15   -2.81    1.97
 -12  -2  15    1.06    1.91
 -11  -2  15    1.76    2.06
 -10  -2  15   14.08    3.11
  -9  -2  15   27.85    3.92
  -8  -2  15   -0.24    1.68
  -8  -2  15    4.04    2.88
  -7  -2  15   -0.77    1.60
  -7  -2  15    1.04    2.81
  -6  -2  15   19.95    3.19
  -6  -2  15   14.61    3.73
  -5  -2  15    3.02    2.97
  -5  -2  15    3.67    1.89
  -4  -2  15    0.29    1.49
  -4  -2  15   -3.32    2.85
  -3  -2  15   21.87    3.06
  -3  -2  15   22.29    4.41
  -2  -2  15  209.65   10.46
  -2  -2  15  226.88    8.66
  -1  -2  15    2.92    2.12
  -1  -2  15   -2.43    2.72
   0  -2  15   32.34    5.03
   0  -2  15   30.79    3.64
   1  -2  15   52.55    5.94
   1  -2  15   51.76    4.46
   2  -2  15   -0.49    1.80
   2  -2  15    2.55    3.51
   3  -2  15   42.73    5.82
   4  -2  15    6.85    4.10
   5  -2  15   -0.77    3.59
   6  -2  15    6.64    3.98
   7  -2  15    0.62    3.67
   8  -2  15    4.04    4.21
  -9   2 -15    8.61    5.77
  -9   2 -15    9.02    5.34
 -10   2 -15    9.74    6.92
 -10   2 -15    5.81    5.55
 -17  -1  15    2.71    1.88
 -16  -1  15    0.47    1.77
 -15  -1  15   -4.35    1.93
 -14  -1  15   -0.74    1.97
 -13  -1  15   26.57    4.50
 -12  -1  15    4.64    2.33
 -11  -1  15    7.95    2.63
 -10  -1  15   -0.32    1.61
  -9  -1  15   25.08    3.63
  -9  -1  15   23.48    3.90
  -8  -1  15    2.98    3.17
  -8  -1  15   -1.80    1.51
  -7  -1  15    6.42    2.17
  -7  -1  15    8.03    3.29
  -6  -1  15   27.75    4.28
  -6  -1  15   28.89    3.44
  -5  -1  15   12.96    2.61
  -5  -1  15   15.43    3.81
  -4  -1  15    2.02    3.02
  -4  -1  15    1.71    1.77
  -3  -1  15   53.91    5.65
  -3  -1  15   63.52    4.35
  -2  -1  15   13.71    4.22
  -2  -1  15   16.68    2.80
  -1  -1  15    5.59    3.69
  -1  -1  15    6.40    2.16
   0  -1  15   -1.29    1.87
   0  -1  15   -0.06    3.17
   1  -1  15    3.71    2.11
   1  -1  15    7.37    3.79
   2  -1  15   -0.71    2.95
   3  -1  15   14.49    4.32
   4  -1  15    5.55    3.85
   5  -1  15   -1.84    3.43
   6  -1  15   61.31    7.17
   7  -1  15   11.41    4.64
   8  -1  15   47.62    7.05
  -9   1 -15   21.03    7.55
  -9   1 -15   12.17    5.64
 -10   1 -15    4.90    5.99
 -17   0  15   -1.43    2.49
 -16   0  15   -0.84    2.15
 -15   0  15   -0.99    1.72
 -14   0  15    0.49    2.40
 -13   0  15   -0.17    1.85
 -12   0  15   13.46    3.16
 -11   0  15    1.58    1.93
 -10   0  15    1.66    1.92
 -10   0  15    1.93    2.71
  -9   0  15    2.67    2.76
  -9   0  15    0.74    1.63
  -8   0  15   72.99    6.09
  -8   0  15   69.14    4.92
  -7   0  15   -2.67    2.73
  -7   0  15    0.96    1.54
  -6   0  15   36.64    5.10
  -6   0  15   37.05    3.61
  -5   0  15   20.84    4.15
  -5   0  15   17.38    2.70
  -4   0  15  118.30    7.99
  -4   0  15  127.68    5.97
  -3   0  15   31.76    4.96
  -3   0  15   20.37    2.67
  -2   0  15   77.29    6.57
  -1   0  15   15.45    4.25
   0   0  15    9.35    3.92
   1   0  15    9.16    3.76
   2   0  15   28.42    5.04
   3   0  15   79.43    7.27
   4   0  15   32.28    5.57
   5   0  15   36.72    5.95
   6   0  15   18.42    5.11
   7   0  15   10.39    4.46
   8   0  15    2.56    4.21
 -18   1  15   -2.73    3.06
 -17   1  15    2.36    2.45
 -16   1  15   -2.69    2.01
 -15   1  15    4.23    2.86
 -14   1  15    5.72    2.76
 -13   1  15   78.58    6.31
 -12   1  15    1.42    2.05
 -11   1  15   13.98    3.51
 -11   1  15    8.03    2.51
 -10   1  15    2.14    1.92
 -10   1  15    1.22    2.88
  -9   1  15  252.48    9.57
  -9   1  15  233.31   10.81
  -8   1  15   65.58    4.62
  -8   1  15   74.30    6.19
  -7   1  15  239.80    8.89
  -7   1  15  262.59   11.52
  -6   1  15   16.20    2.57
  -6   1  15   11.60    3.91
  -4   1  15    1.11    3.26
  -4   1  15    2.03    1.59
  -3   1  15    3.49    1.86
  -3   1  15    4.96    3.58
  -2   1  15   13.81    4.19
  -1   1  15   44.47    5.64
   0   1  15    3.95    3.28
   1   1  15   25.76    4.87
   2   1  15   21.45    4.56
   3   1  15   22.03    4.96
   4   1  15   -1.01    3.29
   5   1  15   -4.60    3.04
   6   1  15    3.82    4.10
   7   1  15   -1.26    3.54
   8   1  15   12.59    5.10
   9   1  15    2.26    4.61
 -18   2  15   22.05    4.75
 -17   2  15    2.85    2.79
 -16   2  15   28.15    4.79
 -15   2  15   -0.09    2.24
 -14   2  15   44.68    5.19
 -13   2  15    1.47    1.88
 -12   2  15    3.95    3.21
 -12   2  15    3.55    2.23
 -11   2  15    1.63    1.81
 -11   2  15    5.54    3.27
 -10   2  15  345.22   13.43
 -10   2  15  305.94   11.27
  -9   2  15   -0.72    2.93
  -9   2  15    3.88    1.90
  -8   2  15  184.06    7.54
  -8   2  15  191.04    9.79
  -7   2  15   -1.28    0.94
  -7   2  15    3.68    3.30
  -6   2  15   48.61    5.65
  -6   2  15   44.79    3.50
  -5   2  15    0.88    3.30
  -4   2  15    1.23    3.12
  -3   2  15   14.34    4.21
  -2   2  15   38.60    5.32
  -1   2  15    1.97    3.14
   0   2  15    1.09    3.04
   1   2  15   21.69    4.71
   2   2  15    2.39    3.25
   3   2  15   23.42    5.00
   4   2  15   -3.88    3.02
   5   2  15    1.73    3.67
   6   2  15    8.65    4.30
   7   2  15    7.24    4.78
   8   2  15    4.41    4.13
 -18   3  15   15.33    3.83
 -17   3  15   13.40    3.79
 -16   3  15    9.45    3.21
 -15   3  15    7.16    2.90
 -14   3  15    2.59    2.09
 -13   3  15    0.72    3.22
 -13   3  15   -0.73    1.83
 -12   3  15    6.47    3.70
 -12   3  15    2.29    1.96
 -11   3  15   33.37    3.89
 -11   3  15   38.07    5.04
 -10   3  15  182.19    7.84
 -10   3  15  171.71    9.44
  -9   3  15   69.21    6.40
  -8   3  15    4.62    3.39
  -7   3  15   11.65    3.97
  -6   3  15   10.07    3.91
  -5   3  15    6.42    3.60
  -4   3  15   19.75    4.64
  -3   3  15   36.85    5.33
  -2   3  15   35.46    5.16
  -1   3  15   52.18    6.06
   0   3  15    9.57    3.78
   1   3  15   35.69    5.50
   2   3  15   17.43    4.69
   3   3  15    0.22    3.16
   4   3  15    2.86    3.52
   5   3  15    4.11    3.68
   6   3  15   -0.37    4.04
   7   3  15    4.00    4.51
 -19   4  15   -5.39    3.31
 -18   4  15   18.12    4.40
 -17   4  15    6.38    3.27
 -16   4  15   -0.29    2.30
 -15   4  15    2.25    2.30
 -14   4  15    5.89    3.79
 -14   4  15    3.85    2.27
 -13   4  15    2.13    3.30
 -12   4  15   37.56    5.23
 -11   4  15   52.58    5.90
 -10   4  15   45.40    5.53
  -9   4  15    1.28    3.15
  -8   4  15   12.81    4.08
  -7   4  15    3.11    3.42
  -6   4  15   41.14    5.46
  -5   4  15    2.11    3.35
  -4   4  15   31.03    5.23
  -3   4  15    5.47    3.57
  -2   4  15   82.17    7.15
  -1   4  15   25.11    4.93
   0   4  15   36.85    5.39
   1   4  15    8.75    4.08
   2   4  15   10.64    4.35
   3   4  15   11.93    4.12
   4   4  15   36.29    5.95
   5   4  15   -1.48    3.27
   6   4  15   95.20    8.71
 -14   5  15    0.65    3.82
 -13   5  15  133.62    8.98
 -12   5  15    1.27    3.33
 -11   5  15   72.27    6.77
 -10   5  15   46.25    5.88
  -9   5  15   13.41    3.99
  -8   5  15    8.94    3.88
  -7   5  15   14.56    4.15
  -6   5  15    0.35    2.96
  -5   5  15   28.49    5.09
   4  -5 -15   68.94    5.08
  -4   5  15   65.55    6.54
  -3   5  15  100.81    7.82
  -2   5  15   33.94    5.34
  -1   5  15   -0.16    2.98
   0   5  15   -2.85    3.01
   1   5  15   21.50    5.09
   2   5  15    2.92    3.54
   3   5  15   22.65    5.09
   4   5  15   -0.18    3.76
   5   5  15   21.88    5.54
 -15   6  15    6.16    4.19
 -14   6  15   95.52    8.34
 -13   6  15   -1.59    3.59
 -12   6  15   30.53    5.46
 -11   6  15    4.20    3.69
 -10   6  15   21.72    4.71
  -9   6  15   21.16    4.74
  -8   6  15   36.14    5.29
  -7   6  15    2.34    3.28
  -6   6  15    6.21    3.68
  -5   6  15   55.69    6.22
   5  -6 -15   57.28    5.14
  -4   6  15    2.79    2.89
   4  -6 -15    1.46    2.02
  -3   6  15    2.19    3.17
   3  -6 -15    3.83    2.41
  -2   6  15   28.97    5.31
  -1   6  15   14.76    4.40
   0   6  15   43.14    6.13
   1   6  15    2.44    3.34
   2   6  15   35.66    5.90
   3   6  15    3.20    3.52
   4   6  15    0.97    3.46
 -16   7  15   26.04    5.87
 -15   7  15   38.30    6.27
 -14   7  15    1.00    3.71
 -13   7  15   16.70    5.22
 -12   7  15    6.28    3.85
 -11   7  15   24.38    5.14
 -10   7  15    5.06    3.79
  -9   7  15    7.58    3.62
  -8   7  15   46.50    6.04
  -7   7  15   -1.05    2.71
  -6   7  15    0.60    2.70
   5  -7 -15    0.72    2.06
  -5   7  15    1.08    3.09
  -4   7  15    1.31    3.03
   4  -7 -15    0.72    2.29
  -3   7  15   15.49    4.43
   3  -7 -15   11.03    3.25
   2  -7 -15   39.73    4.89
  -2   7  15   44.63    6.14
  -1   7  15  130.28    9.07
   0   7  15    6.54    3.93
   1   7  15   23.44    5.09
   2   7  15   -1.14    3.45
   3   7  15    0.47    3.48
 -17   8  15    0.89    4.44
 -16   8  15    8.24    4.88
 -15   8  15   14.16    5.06
 -14   8  15   37.88    6.53
 -13   8  15   74.27    7.89
 -12   8  15   20.37    5.34
 -11   8  15   -1.89    3.38
 -10   8  15    6.17    3.99
  -9   8  15    5.59    3.73
  -8   8  15   44.80    6.14
  -7   8  15    8.54    3.95
  -6   8  15   11.58    4.14
   6  -8 -15    6.83    2.76
   5  -8 -15   -1.28    1.92
  -5   8  15   -2.82    2.82
  -4   8  15   46.78    6.22
   4  -8 -15   44.61    5.19
  -3   8  15   -2.25    3.00
   3  -8 -15    0.83    2.30
   2  -8 -15   36.22    5.15
  -2   8  15   32.14    5.67
   1  -8 -15   -0.91    2.49
  -1   8  15    2.14    3.37
   0   8  15   19.67    5.06
   1   8  15    3.77    3.78
   2   8  15    0.10    3.49
 -18   9  15   -1.29    5.88
 -17   9  15    6.77    5.26
 -16   9  15    6.76    4.62
 -15   9  15    6.48    4.72
 -14   9  15    5.98    4.42
 -13   9  15    7.20    4.61
 -12   9  15   27.39    5.78
 -11   9  15   -2.42    3.50
 -10   9  15   41.43    6.25
  -9   9  15    7.93    3.98
  -8   9  15   25.95    5.37
  -7   9  15   -1.16    2.84
   6  -9 -15   -0.29    2.16
  -6   9  15    0.37    3.21
  -5   9  15   28.09    5.38
   5  -9 -15   21.61    4.34
   4  -9 -15   10.78    3.51
  -4   9  15   12.57    4.34
   3  -9 -15   59.71    6.39
  -3   9  15   62.97    7.00
   2  -9 -15    8.76    3.71
  -2   9  15   15.81    4.71
   1  -9 -15   24.96    5.11
  -1   9  15   21.58    5.10
   0   9  15    2.93    3.50
   1   9  15    8.17    4.16
 -18  10  15   -0.91    6.12
 -17  10  15    4.09    5.29
 -16  10  15    3.66    4.88
 -15  10  15    5.53    4.74
 -14  10  15   17.33    5.51
 -13  10  15   15.79    5.13
 -12  10  15    8.43    4.55
 -11  10  15   38.70    6.35
 -10  10  15   10.44    4.46
  -9  10  15    2.64    3.59
  -8  10  15   45.25    6.56
  -7  10  15   13.38    4.51
   7 -10 -15   19.91    4.36
  -6  10  15   53.90    6.63
   6 -10 -15   35.63    5.41
   5 -10 -15    2.80    3.02
  -5  10  15    9.65    3.98
   4 -10 -15   27.98    5.08
  -4  10  15   22.40    5.36
  -3  10  15   17.95    5.07
   3 -10 -15   22.39    4.87
  -2  10  15    9.44    4.42
   2 -10 -15    7.94    3.97
  -1  10  15   19.21    4.84
   1 -10 -15   30.26    5.72
   0 -10 -15   12.48    4.40
   0  10  15    9.50    4.20
 -17  11  15    2.22    5.34
 -16  11  15    3.78    5.20
 -15  11  15   14.83    5.72
 -14  11  15   24.78    6.19
 -13  11  15    8.72    5.11
 -12  11  15    2.36    3.97
 -11  11  15    4.28    4.13
 -10  11  15    7.98    4.14
  -9  11  15   31.80    5.97
  -8  11  15   12.84    4.69
   7 -11 -15  104.58    7.98
  -7  11  15   99.58    8.71
   6 -11 -15    2.83    3.14
  -6  11  15    9.24    4.12
  -5  11  15   -0.76    2.98
   5 -11 -15   -1.45    2.76
  -4  11  15    4.33    3.71
   4 -11 -15    4.65    3.61
  -3  11  15   -3.95    2.90
   3 -11 -15   -0.85    2.93
   2 -11 -15    3.89    3.87
  -2  11  15    4.68    3.89
   1 -11 -15   38.13    6.68
  -1  11  15   30.24    5.96
   0 -11 -15    5.08    4.42
 -16  12  15   -1.02    4.68
 -15  12  15    3.58    4.67
 -14  12  15   18.86    5.94
 -13  12  15    0.54    4.23
 -12  12  15   -2.20    3.73
 -11  12  15   -1.56    3.57
 -10  12  15    4.19    4.06
  -9  12  15    8.64    4.27
   7 -12 -15   -0.03    2.94
  -7  12  15   -4.55    2.84
   6 -12 -15   32.68    5.88
  -6  12  15   22.71    5.53
   5 -12 -15    7.05    4.14
  -5  12  15    6.99    4.04
  -4  12  15   -1.18    3.10
   4 -12 -15    5.01    3.68
  -3  12  15    5.84    3.96
   3 -12 -15   -1.26    3.49
   2 -12 -15   37.57    6.88
  -2  12  15   49.85    7.06
   1 -12 -15    3.80    4.70
   0 -12 -15   52.86    8.24
 -14  13  15    6.84    5.28
 -13  13  15   14.44    5.75
 -12  13  15    2.84    1.47
 -11  13  15    0.74    1.64
 -10  13  15   -0.75    2.39
  -9  13  15   -0.76    3.43
   8 -13 -15   27.97    5.79
  -7  13  15   -0.10    3.50
   7 -13 -15    2.44    3.65
   6 -13 -15    0.21    3.46
  -6  13  15    2.89    3.53
  -5  13  15   24.01    5.75
   5 -13 -15   17.19    5.36
  -4  13  15    5.70    3.91
   4 -13 -15    4.97    4.51
   3 -13 -15   21.79    5.89
  -3  13  15   16.67    4.82
   2 -13 -15   -0.29    4.66
   1 -13 -15   24.94    6.89
 -12  14  15    1.46    1.60
 -11  14  15    1.52    1.72
 -10  14  15    0.92    1.52
  -9  14  15    1.70    1.69
   8 -14 -15    0.63    3.73
  -8  14  15    2.89    1.58
   7 -14 -15   -2.77    3.29
  -7  14  15    1.91    3.81
  -6  14  15    3.43    3.11
   6 -14 -15   -1.23    3.92
  -5  14  15   -3.43    3.23
   5 -14 -15    3.94    4.37
  -4  14  15    5.69    4.15
   4 -14 -15    2.47    4.70
  -9  15  15   -0.21    1.68
  -8  15  15    3.47    4.48
  -7  15  15   -0.26    4.20
  -6  15  15   16.27    5.97
  -3 -14  16    8.70    4.57
  -2 -14  16   -4.52    3.30
  -1 -14  16    0.91    3.25
   0 -14  16    5.19    3.53
   1 -14  16    0.29    3.24
   2 -14  16   15.32    4.57
   3 -14  16   -5.38    2.84
  -5  14 -16   -5.01    3.52
  -6  14 -16    4.78    5.23
  -5 -13  16    6.58    4.08
  -4 -13  16   -5.51    3.02
  -3 -13  16    3.86    3.72
  -2 -13  16    3.35    3.42
  -1 -13  16   -3.20    2.58
   0 -13  16   -6.50    2.63
   1 -13  16    3.65    3.40
   2 -13  16    3.95    3.43
  -3  13 -16    2.61    3.99
   3 -13  16    1.67    2.30
   4 -13  16    0.45    1.56
  -4  13 -16   -2.56    3.38
  -5  13 -16   -2.62    3.05
   5 -13  16   -0.07    1.50
  -6  13 -16   -0.93    4.00
  -7 -12  16   -2.03    2.90
  -6 -12  16   -1.60    3.11
  -5 -12  16   -1.92    2.98
  -4 -12  16    6.96    3.92
  -3 -12  16   16.30    4.65
  -2 -12  16    0.49    2.96
  -1 -12  16   -0.70    2.97
   0 -12  16   18.06    4.19
   1 -12  16    0.26    2.35
   2 -12  16   -1.13    2.24
  -2  12 -16    3.36    4.11
   3 -12  16    0.95    2.35
  -3  12 -16   -1.49    3.31
  -4  12 -16    0.00    3.64
   4 -12  16    0.11    1.27
   5 -12  16    3.24    1.59
  -5  12 -16    2.89    3.78
  -6  12 -16   12.58    4.87
  -7  12 -16   -1.96    2.52
  -8 -11  16    8.27    4.04
  -7 -11  16    3.38    3.51
  -6 -11  16    3.47    3.46
  -5 -11  16   -0.50    2.59
  -4 -11  16    3.70    3.05
  -3 -11  16   35.64    5.37
  -2 -11  16   -0.92    2.23
  -1 -11  16   25.28    4.44
   0 -11  16    3.86    3.01
  -1  11 -16    2.32    3.06
   1 -11  16    7.89    3.08
  -1  11 -16    0.26    3.55
  -2  11 -16    4.71    3.78
  -2  11 -16    9.79    4.16
   2 -11  16    5.35    3.03
   3 -11  16   11.34    3.68
  -3  11 -16   15.73    4.96
  -3  11 -16   24.16    5.73
  -4  11 -16    1.34    3.31
  -4  11 -16   -3.24    3.18
   4 -11  16    2.00    2.66
  -5  11 -16   23.03    5.65
  -5  11 -16   27.10    6.08
   6 -11  16   -0.47    1.16
  -6  11 -16   -0.51    2.83
  -7  11 -16    2.13    2.56
 -10 -10  16   23.64    5.26
  -9 -10  16   12.03    4.32
  -8 -10  16   -0.61    2.58
  -7 -10  16   -3.05    2.16
  -6 -10  16    0.25    2.45
  -5 -10  16    1.74    2.29
  -4 -10  16   55.60    6.16
  -3 -10  16   13.30    3.53
  -2 -10  16    7.27    2.89
  -1 -10  16   -0.09    2.27
   0  10 -16    0.28    3.11
   0 -10  16    0.24    2.35
   0  10 -16    4.15    3.40
   1 -10  16   -0.78    2.12
  -1  10 -16   -5.55    2.64
  -1  10 -16    2.23    3.25
  -2  10 -16   59.05    7.06
   2 -10  16   49.92    5.80
  -2  10 -16   42.69    6.69
  -3  10 -16    1.28    3.37
  -3  10 -16    9.80    3.99
   3 -10  16    1.09    2.42
  -4  10 -16   23.55    5.36
  -4  10 -16   19.67    5.21
   4 -10  16   24.02    4.65
  -5  10 -16    1.40    3.24
  -5  10 -16    0.08    3.52
   5 -10  16    5.08    3.13
  -6  10 -16    0.23    3.49
  -6  10 -16   -5.27    2.88
  -7  10 -16   -3.54    1.78
  -7  10 -16    0.33    2.07
  -8  10 -16    0.72    2.27
 -11  -9  16   -1.51    2.64
 -10  -9  16   -1.93    1.05
  -9  -9  16   -3.45    1.64
  -8  -9  16   -3.53    2.02
  -7  -9  16   12.08    3.65
  -6  -9  16   26.46    4.77
  -5  -9  16   16.23    3.96
  -4  -9  16   17.21    3.85
  -3  -9  16    3.66    2.22
  -2  -9  16    4.18    2.50
  -1  -9  16   28.22    4.43
   1   9 -16   26.52    4.85
   1   9 -16   28.22    5.18
   0   9 -16   39.92    5.99
   0  -9  16   51.01    5.53
   0   9 -16   41.36    5.76
  -1   9 -16   17.58    4.67
   1  -9  16   21.67    4.03
  -1   9 -16   22.24    5.02
  -2   9 -16   12.24    4.40
  -2   9 -16   18.16    4.76
   2  -9  16   11.25    3.44
  -3   9 -16    1.82    3.04
  -3   9 -16    0.65    3.10
   3  -9  16    0.46    2.70
  -4   9 -16   -3.38    2.81
   4  -9  16   -0.12    2.33
  -4   9 -16    1.99    3.19
  -5   9 -16    2.47    3.45
  -5   9 -16    1.97    3.47
   5  -9  16    0.00    2.80
  -6   9 -16    3.32    4.12
  -6   9 -16   -1.91    3.11
  -7   9 -16    0.78    1.61
  -7   9 -16    2.62    1.83
  -8   9 -16   -3.59    2.35
  -8   9 -16   -1.70    2.36
 -12  -8  16    1.63    1.66
 -11  -8  16   -3.48    0.84
 -10  -8  16   -0.25    2.19
  -9  -8  16    0.66    2.06
  -8  -8  16    0.37    2.30
  -7  -8  16   11.97    3.42
  -6  -8  16    7.70    2.83
  -5  -8  16   10.12    3.22
  -4  -8  16    3.90    2.42
  -3  -8  16   14.67    3.49
  -2  -8  16   18.54    4.28
  -2  -8  16   13.23    3.26
  -1  -8  16   17.05    4.44
  -1  -8  16   15.75    3.50
   0  -8  16   51.18    5.43
   0  -8  16   44.40    5.91
   1  -8  16   13.69    3.31
  -2   8 -16   17.62    4.68
   2  -8  16   17.01    3.76
  -2   8 -16    8.23    3.65
  -3   8 -16    3.77    3.33
  -3   8 -16   -2.11    2.83
   3  -8  16    0.62    2.57
  -4   8 -16   -1.66    2.85
   4  -8  16    0.31    2.64
  -4   8 -16    0.27    3.11
  -5   8 -16    0.38    3.84
   5  -8  16   -2.51    2.29
  -5   8 -16    2.73    3.58
  -6   8 -16   -2.37    3.00
  -6   8 -16   -0.20    3.36
  -7   8 -16    1.14    2.17
  -7   8 -16    1.62    2.53
  -8   8 -16    2.84    2.02
  -8   8 -16   -1.82    2.24
 -13  -7  16    0.49    1.30
 -12  -7  16   -1.05    1.03
 -11  -7  16    0.12    2.15
 -10  -7  16   15.65    3.71
  -9  -7  16    6.47    2.87
  -8  -7  16   14.22    3.38
  -7  -7  16   32.89    4.89
  -6  -7  16    9.95    3.15
  -5  -7  16   -2.11    1.58
  -4  -7  16    0.75    2.02
  -3  -7  16   14.09    3.11
  -3  -7  16   11.51    3.85
  -2  -7  16   29.59    4.70
  -2  -7  16   27.46    4.11
  -1  -7  16   92.13    6.33
  -1  -7  16   97.19    7.14
   0  -7  16    5.19    3.59
   0  -7  16    9.11    2.88
   1  -7  16    4.78    2.74
   1  -7  16   12.63    4.32
   2  -7  16   33.89    5.78
   2  -7  16   38.70    5.00
   3  -7  16    3.16    2.55
   3  -7  16    6.61    4.32
  -4   7 -16    6.49    3.74
   4  -7  16    5.17    2.94
  -4   7 -16    8.74    3.84
  -5   7 -16   21.35    5.49
  -5   7 -16   20.49    5.11
  -6   7 -16   -0.44    3.46
  -6   7 -16    6.85    3.91
  -7   7 -16   -0.12    2.85
  -7   7 -16    2.01    3.09
  -8   7 -16   -1.98    4.10
  -8   7 -16    0.20    4.04
 -13  -6  16    0.89    1.42
 -12  -6  16    1.83    2.41
 -11  -6  16    1.71    2.44
 -10  -6  16   19.66    4.19
  -9  -6  16   18.72    3.88
  -8  -6  16   11.75    3.18
  -7  -6  16    1.42    2.12
  -6  -6  16    8.53    2.74
  -5  -6  16    1.61    2.10
  -4  -6  16    4.46    2.30
  -4  -6  16    7.85    3.21
  -3  -6  16   -1.24    1.69
  -3  -6  16    1.30    2.83
  -2  -6  16   21.72    4.34
  -2  -6  16   21.44    3.66
  -1  -6  16  152.10    9.13
  -1  -6  16  167.33    8.29
   0  -6  16   -2.59    3.19
   0  -6  16    1.52    2.04
   1  -6  16   27.88    4.11
   1  -6  16   38.07    5.42
   2  -6  16    4.05    3.59
   2  -6  16    3.64    2.73
   3  -6  16    7.60    4.34
   3  -6  16   10.77    3.40
   4  -6  16   12.53    3.75
   4  -6  16   24.42    5.55
  -6   6 -16   13.58    4.70
  -6   6 -16   20.90    5.48
  -7   6 -16    0.39    3.98
  -7   6 -16    6.95    4.79
  -8   6 -16    3.66    4.48
  -8   6 -16    1.51    4.14
 -14  -5  16   -1.48    1.08
 -13  -5  16   -1.40    1.68
 -11  -5  16   -0.76    2.15
 -10  -5  16   23.86    4.37
  -9  -5  16   -0.18    2.02
  -8  -5  16    1.54    2.28
  -7  -5  16   42.26    4.93
  -6  -5  16  115.85    7.00
  -5  -5  16    3.73    2.86
  -5  -5  16    0.06    1.78
  -4  -5  16   12.39    2.91
  -4  -5  16    6.26    3.30
  -3  -5  16    2.43    1.97
  -3  -5  16   -0.46    3.09
  -2  -5  16   18.18    4.19
  -2  -5  16   20.05    3.52
  -1  -5  16    8.00    3.80
  -1  -5  16   14.93    3.29
   0  -5  16   31.66    4.14
   0  -5  16   31.06    5.13
   1  -5  16   24.92    5.05
   1  -5  16   12.43    3.00
   2  -5  16   15.55    3.39
   2  -5  16   22.49    5.12
   3  -5  16   -0.29    2.30
   3  -5  16    0.46    3.51
   4  -5  16   64.15    7.08
   5  -5  16   -0.58    3.36
  -7   5 -16    5.29    4.83
  -7   5 -16    0.13    4.03
  -8   5 -16    6.30    4.93
  -8   5 -16    5.73    4.54
  -9   5 -16    5.29    5.29
  -9   5 -16    5.09    5.06
 -15  -4  16   -2.07    1.36
 -14  -4  16   -0.78    1.52
 -13  -4  16   18.84    4.15
 -12  -4  16   -0.71    2.15
 -11  -4  16    4.20    2.60
 -10  -4  16    2.97    2.22
  -9  -4  16   56.41    5.65
  -8  -4  16    5.15    2.33
  -7  -4  16  102.15    6.61
  -6  -4  16   12.81    3.38
  -6  -4  16    3.17    2.13
  -5  -4  16    5.96    2.95
  -5  -4  16    0.53    1.84
  -4  -4  16    0.04    1.54
  -4  -4  16    1.70    2.79
  -3  -4  16   17.48    4.05
  -3  -4  16   16.55    3.15
  -2  -4  16   10.59    2.64
  -2  -4  16    9.40    3.62
  -1  -4  16   11.20    2.73
  -1  -4  16    7.05    3.76
   0  -4  16   -1.82    3.00
   0  -4  16    3.11    2.07
   1  -4  16   22.48    4.84
   1  -4  16   16.97    3.52
   2  -4  16    6.65    2.78
   2  -4  16    3.65    3.82
   3  -4  16    1.28    3.90
   3  -4  16    2.60    2.47
   4  -4  16   -4.52    3.12
   5  -4  16   -0.95    3.70
   6  -4  16   -1.95    3.96
  -8   4 -16   10.48    5.95
  -8   4 -16    8.12    5.30
  -9   4 -16    5.77    5.46
  -9   4 -16    2.07    4.71
 -15  -3  16   -1.03    1.16
 -14  -3  16    1.04    2.37
 -13  -3  16   -0.42    1.92
 -12  -3  16    1.62    2.52
 -11  -3  16    3.30    2.35
 -10  -3  16    1.18    1.99
  -9  -3  16    1.58    2.14
  -8  -3  16   30.11    4.12
  -7  -3  16  114.98    6.67
  -7  -3  16  115.47    7.07
  -6  -3  16    4.09    2.08
  -6  -3  16    0.76    2.81
  -5  -3  16    1.32    1.89
  -5  -3  16   -3.70    2.59
  -4  -3  16    2.93    1.86
  -4  -3  16   14.88    3.85
  -3  -3  16   10.00    2.45
  -3  -3  16    4.91    3.35
  -2  -3  16   32.86    4.89
  -2  -3  16   33.42    3.75
  -1  -3  16   28.79    4.86
  -1  -3  16   31.17    3.78
   0  -3  16    2.02    2.93
   0  -3  16   -0.56    1.66
   1  -3  16   30.28    5.12
   1  -3  16   22.82    3.59
   2  -3  16   11.62    4.40
   2  -3  16    8.38    2.76
   3  -3  16    3.32    3.93
   4  -3  16    0.64    3.72
   5  -3  16   19.48    5.12
   6  -3  16    1.05    3.90
   7  -3  16    5.34    4.36
  -8   3 -16    5.59    5.08
  -8   3 -16    6.42    5.61
  -9   3 -16   26.21    8.00
  -9   3 -16   12.66    5.97
 -16  -2  16   -0.67    1.56
 -15  -2  16    4.03    2.42
 -14  -2  16   -1.71    2.08
 -13  -2  16   13.38    3.56
 -12  -2  16    4.68    2.54
 -11  -2  16    1.00    2.09
 -10  -2  16   11.92    2.92
  -9  -2  16   44.07    4.83
  -8  -2  16    7.42    2.38
  -8  -2  16   10.74    3.30
  -7  -2  16    7.81    3.42
  -7  -2  16    3.95    2.12
  -6  -2  16   12.81    3.60
  -6  -2  16    6.52    2.32
  -5  -2  16    2.51    3.02
  -5  -2  16    1.04    1.71
  -4  -2  16    6.89    2.11
  -4  -2  16    0.35    2.99
  -3  -2  16   42.45    5.34
  -3  -2  16   46.71    4.21
  -2  -2  16   85.13    5.46
  -2  -2  16   91.99    7.25
  -1  -2  16  131.00    8.54
  -1  -2  16  133.11    6.68
   0  -2  16   18.97    4.55
   0  -2  16   16.21    3.10
   1  -2  16   19.50    4.75
   1  -2  16   19.13    3.37
   2  -2  16   25.58    5.11
   3  -2  16    0.37    3.05
   4  -2  16   13.91    4.68
   5  -2  16   38.13    6.29
   7  -2  16   11.35    4.81
  -9   2 -16   -3.12    5.09
  -9   2 -16    3.99    6.06
 -16  -1  16    5.80    2.72
 -15  -1  16    3.26    2.53
 -14  -1  16    5.90    2.89
 -13  -1  16   -3.44    1.86
 -12  -1  16    2.41    2.25
 -11  -1  16    5.37    2.50
 -10  -1  16    1.27    1.85
  -9  -1  16   -0.15    2.71
  -9  -1  16    1.86    1.86
  -8  -1  16   51.66    5.41
  -8  -1  16   47.55    4.55
  -7  -1  16   15.43    3.87
  -7  -1  16   17.55    3.09
  -6  -1  16   24.37    4.30
  -6  -1  16   21.29    3.21
  -5  -1  16   36.97    3.64
  -5  -1  16   39.05    5.06
  -4  -1  16  103.38    5.63
  -4  -1  16   94.91    7.14
  -3  -1  16   23.64    4.59
  -3  -1  16   24.52    3.13
  -2  -1  16  190.23    7.82
  -2  -1  16  195.10   10.28
  -1  -1  16    1.61    1.77
  -1  -1  16    1.19    3.27
   0  -1  16   -3.03    2.47
   0  -1  16   -0.05    1.72
   1  -1  16    7.79    2.49
   1  -1  16   10.57    4.31
   2  -1  16    5.47    3.67
   3  -1  16   10.70    4.20
   4  -1  16   21.51    5.22
   5  -1  16   16.28    5.25
   6  -1  16   15.70    5.04
   7  -1  16    2.69    3.83
   8  -1  16    8.18    5.04
 -17   0  16    2.23    3.03
 -16   0  16    2.97    2.82
 -15   0  16    6.74    2.81
 -14   0  16    2.02    2.46
 -13   0  16    8.78    2.92
 -12   0  16    4.50    2.58
 -11   0  16    6.06    2.53
 -10   0  16    2.96    3.08
 -10   0  16    2.31    1.97
  -9   0  16    5.39    2.33
  -9   0  16    3.94    2.97
  -8   0  16   -0.20    2.72
  -8   0  16   -1.15    1.47
  -7   0  16   60.09    5.86
  -7   0  16   57.79    4.60
  -6   0  16    0.24    2.94
  -6   0  16    0.47    1.49
  -5   0  16   48.37    3.99
  -5   0  16   43.93    5.43
  -4   0  16    4.58    3.37
  -4   0  16   -1.71    1.51
  -3   0  16   73.39    6.56
  -3   0  16   50.51    3.78
  -2   0  16    0.06    0.80
  -2   0  16    5.23    3.18
  -1   0  16   50.24    5.95
   0   0  16    9.01    4.12
   1   0  16   19.93    4.59
   2   0  16   71.46    7.01
   3   0  16    7.80    4.25
   4   0  16    8.30    4.16
   5   0  16    7.28    4.31
   6   0  16   10.27    4.71
   7   0  16    6.58    4.46
   8   0  16   -6.66    4.07
 -17   1  16   -0.06    2.06
 -16   1  16   14.45    3.77
 -15   1  16    8.88    3.14
 -14   1  16    7.65    3.08
 -13   1  16   10.57    3.00
 -12   1  16    5.30    2.32
 -11   1  16    5.79    2.46
 -11   1  16    3.95    3.08
 -10   1  16    2.87    2.96
 -10   1  16    6.12    2.21
  -9   1  16   11.09    2.57
  -9   1  16   10.48    3.57
  -8   1  16  142.90    8.70
  -8   1  16  144.72    6.81
  -7   1  16   18.77    4.40
  -7   1  16   19.72    2.93
  -6   1  16   61.08    6.25
  -5   1  16   18.73    4.36
  -4   1  16   61.45    6.17
  -3   1  16   13.04    4.09
  -2   1  16   11.62    3.92
  -1   1  16   10.69    3.85
   0   1  16   -0.42    3.14
   1   1  16   68.80    6.84
   2   1  16   49.51    6.35
   3   1  16   46.36    6.39
   4   1  16    7.15    4.08
   5   1  16    5.45    4.24
   6   1  16    4.44    4.19
   7   1  16   -3.60    3.44
   8   1  16    8.27    5.22
 -18   2  16   -0.66    3.00
 -17   2  16   10.72    3.69
 -16   2  16   -0.92    2.16
 -15   2  16   13.09    3.41
 -14   2  16    0.23    2.17
 -13   2  16    4.78    2.49
 -12   2  16    9.32    3.66
 -12   2  16   10.10    2.95
 -11   2  16    9.25    3.77
 -11   2  16    4.08    2.17
 -10   2  16    1.25    3.01
 -10   2  16   -0.95    1.67
  -9   2  16  199.74    8.38
  -9   2  16  206.43   10.34
  -8   2  16   80.90    6.81
  -7   2  16   74.87    6.70
  -6   2  16   12.20    4.08
  -5   2  16   63.07    6.46
  -4   2  16   -0.69    2.80
  -3   2  16   86.54    7.32
  -2   2  16   67.01    6.78
  -1   2  16    9.17    3.53
   0   2  16    1.96    3.33
   1   2  16   27.25    5.25
   2   2  16    4.94    3.78
   3   2  16   -2.27    3.28
   4   2  16   -1.38    3.26
   5   2  16   10.21    4.73
   6   2  16    1.02    4.16
   7   2  16    3.89    4.33
   8   2  16   12.49    5.63
 -18   3  16   43.59    6.11
 -17   3  16   -0.31    2.35
 -16   3  16   -1.91    2.05
 -15   3  16    1.09    2.30
 -14   3  16    2.89    2.43
 -13   3  16    4.07    3.59
 -13   3  16   14.93    3.35
 -12   3  16   54.63    5.94
 -11   3  16    9.74    3.97
 -10   3  16   51.01    5.77
  -9   3  16   -2.84    2.81
  -8   3  16   18.14    4.51
  -7   3  16    4.59    3.31
  -6   3  16   -0.14    2.96
  -5   3  16    4.89    3.42
  -4   3  16   11.56    4.14
  -3   3  16    4.40    3.53
  -2   3  16   42.05    5.61
  -1   3  16   24.47    4.82
   0   3  16    1.64    3.49
   1   3  16   -0.33    3.48
   2   3  16   18.46    4.85
   3   3  16   -2.67    3.39
   4   3  16   18.50    5.05
   5   3  16    6.13    4.02
   6   3  16   21.23    5.63
   7   3  16    4.11    4.44
 -13   4  16   82.09    7.40
 -12   4  16    5.78    3.73
 -11   4  16   25.04    4.79
 -10   4  16   14.44    4.09
  -9   4  16    4.23    3.42
  -8   4  16    4.99    3.47
  -7   4  16   24.02    4.86
  -6   4  16   13.99    4.35
  -5   4  16   22.90    4.82
  -4   4  16    2.66    3.32
  -3   4  16   75.91    7.22
  -2   4  16   -3.26    2.85
  -1   4  16   -2.60    2.89
   0   4  16    3.98    3.68
   1   4  16   15.23    4.66
   2   4  16    4.50    3.73
   3   4  16    2.10    3.52
   4   4  16   -1.50    3.34
   5   4  16   30.79    5.99
   6   4  16   -3.41    3.57
 -14   5  16   22.83    5.12
 -13   5  16    7.94    4.16
 -12   5  16   27.61    5.23
 -11   5  16   -0.83    3.15
 -10   5  16   26.06    4.93
  -9   5  16   33.10    5.50
  -8   5  16   72.46    6.77
  -7   5  16    4.03    3.27
  -6   5  16   24.90    4.87
  -5   5  16    1.67    3.36
  -4   5  16   63.02    6.69
  -3   5  16    2.58    3.30
  -2   5  16    4.85    3.13
  -1   5  16    0.64    3.47
   0   5  16    1.69    3.38
   1   5  16   14.62    4.71
   2   5  16   -1.10    3.46
   3   5  16   -1.27    3.40
   4   5  16    8.83    4.57
   5   5  16   -2.98    3.63
 -15   6  16   33.64    6.10
 -14   6  16    7.30    4.19
 -13   6  16   18.23    4.82
 -12   6  16    2.55    3.91
 -11   6  16    0.96    3.46
 -10   6  16   -0.99    3.02
  -9   6  16   31.70    5.49
  -8   6  16    6.40    3.82
  -7   6  16   38.30    5.73
  -6   6  16    4.55    3.42
  -5   6  16    3.00    3.32
  -4   6  16    0.18    3.09
  -3   6  16   -0.44    3.22
  -2   6  16   17.19    4.67
  -1   6  16   27.47    5.50
   0   6  16    1.62    3.32
   1   6  16  110.14    8.88
   2   6  16    0.09    3.47
   3   6  16   -3.93    3.53
   4   6  16   10.88    4.83
 -16   7  16    3.99    4.58
 -15   7  16    5.51    4.39
 -14   7  16   36.41    6.17
 -13   7  16    3.67    3.84
 -12   7  16   53.95    6.66
 -11   7  16    2.01    3.80
 -10   7  16   59.11    6.84
  -9   7  16   -1.13    3.39
  -8   7  16   23.85    5.18
  -7   7  16   15.00    4.55
  -6   7  16    4.11    3.44
  -5   7  16    2.48    3.61
   5  -7 -16    3.06    2.49
  -4   7  16   38.37    5.94
  -3   7  16   11.47    4.35
  -2   7  16  101.58    8.68
  -1   7  16   11.69    4.41
   0   7  16   42.99    6.38
   1   7  16    3.37    3.71
   2   7  16    1.48    3.67
   3   7  16   10.70    4.61
 -17   8  16    6.42    5.15
 -16   8  16   15.87    5.43
 -15   8  16    0.69    4.10
 -14   8  16   12.37    4.85
 -13   8  16   55.97    7.23
 -12   8  16   17.59    5.02
 -11   8  16   18.85    5.24
 -10   8  16   65.51    7.44
  -9   8  16    0.37    3.41
  -8   8  16    5.40    4.10
  -7   8  16   28.40    5.52
  -6   8  16    1.24    3.33
   5  -8 -16   41.39    5.16
  -5   8  16   34.22    5.89
   4  -8 -16    0.85    2.43
  -4   8  16   -4.90    2.68
  -3   8  16   38.56    6.10
  -2   8  16    2.76    3.81
  -1   8  16   33.06    5.79
   0   8  16   19.97    5.18
   1   8  16   -3.47    3.24
   2   8  16    3.81    4.30
 -18   9  16   -0.91    6.60
 -17   9  16    1.85    5.11
 -16   9  16    6.47    5.42
 -15   9  16    0.98    4.13
 -14   9  16    2.12    4.33
 -13   9  16   64.35    7.73
 -12   9  16   -4.44    3.36
 -11   9  16   40.45    6.40
 -10   9  16    4.36    3.92
  -9   9  16    2.11    3.61
  -8   9  16    7.69    4.08
  -7   9  16   58.23    7.03
   6  -9 -16    3.64    2.89
  -6   9  16    4.31    3.54
   5  -9 -16   -1.42    2.42
  -5   9  16    5.02    3.67
  -4   9  16   52.09    6.79
  -3   9  16   -2.21    3.17
   3  -9 -16    1.59    2.89
  -2   9  16    1.23    3.33
  -1   9  16    2.64    3.27
   0   9  16   -1.16    3.53
   1   9  16    0.27    3.64
 -17  10  16    7.63    5.40
 -16  10  16    4.12    4.87
 -15  10  16    0.37    4.61
 -14  10  16    6.99    4.77
 -13  10  16   11.86    5.11
 -12  10  16    2.70    4.18
 -11  10  16    8.15    4.30
 -10  10  16    1.01    3.72
  -9  10  16    5.69    4.01
  -8  10  16   -1.46    3.47
  -7  10  16  120.91    9.38
   6 -10 -16   -1.47    2.71
  -6  10  16    3.79    3.59
   5 -10 -16   17.42    4.34
  -5  10  16   17.77    4.94
   4 -10 -16    1.63    2.97
  -4  10  16    3.17    3.72
  -3  10  16    7.60    4.00
   3 -10 -16    0.38    2.94
  -2  10  16    0.63    3.28
  -1  10  16   -2.61    3.09
   0  10  16    0.64    4.11
 -16  11  16   11.97    5.98
 -15  11  16    9.43    5.19
 -14  11  16   21.60    6.02
 -13  11  16    1.15    4.27
 -12  11  16    6.63    4.62
 -11  11  16    0.93    3.82
 -10  11  16    5.38    4.15
  -9  11  16    5.01    4.20
  -8  11  16   57.55    7.41
   7 -11 -16    0.06    2.91
   6 -11 -16   57.02    6.86
  -6  11  16   61.47    7.32
  -5  11  16    2.67    3.64
   5 -11 -16   -0.28    3.20
  -4  11  16    6.05    3.85
   4 -11 -16    2.81    3.65
   3 -11 -16    0.91    3.75
  -3  11  16    2.92    3.69
   2 -11 -16   12.57    4.74
  -2  11  16   15.25    5.11
  -1  11  16   -0.65    3.41
 -15  12  16    0.07    4.77
 -14  12  16    7.28    5.06
 -13  12  16   -6.79    3.59
 -12  12  16    0.54    4.28
 -11  12  16    0.78    2.17
 -10  12  16    2.04    3.20
  -9  12  16   -0.35    3.40
  -8  12  16    5.49    4.02
  -7  12  16    7.61    4.23
  -6  12  16    1.51    3.58
   6 -12 -16    4.47    3.80
   5 -12 -16    1.43    3.74
  -5  12  16    5.96    4.25
  -4  12  16    7.06    4.05
   4 -12 -16    6.04    4.37
  -3  12  16   13.88    4.85
   3 -12 -16   12.98    5.15
   2 -12 -16   12.72    5.43
  -2  12  16    7.32    3.89
 -13  13  16   21.49    5.98
 -12  13  16    3.59    1.83
 -11  13  16   -0.41    1.56
 -10  13  16   -0.94    1.40
  -9  13  16    2.55    1.68
  -8  13  16    1.74    1.60
  -7  13  16   -0.03    1.45
   7 -13 -16   -2.44    3.40
  -6  13  16   10.90    4.35
   6 -13 -16   10.33    4.93
   5 -13 -16    3.18    4.28
  -5  13  16    3.72    3.98
  -4  13  16   16.85    5.46
   4 -13 -16    9.04    5.22
  -3  13  16    5.59    4.46
   3 -13 -16    3.11    4.59
  -9  14  16    1.98    2.07
  -8  14  16    1.39    1.86
   8 -14 -16   -2.22    3.78
  -7  14  16    7.68    4.79
   7 -14 -16    4.74    4.30
  -6  14  16    4.34    4.69
   6 -14 -16    3.35    4.55
   5 -14 -16    1.20    4.51
  -5  14  16    4.94    5.01
  -4 -13  17   -1.65    3.24
  -3 -13  17    3.49    3.58
  -2 -13  17   -0.84    3.45
  -1 -13  17    0.67    3.06
   0 -13  17   11.36    4.25
   1 -13  17    0.58    1.28
   2 -13  17    0.78    1.38
   3 -13  17   -0.97    1.36
  -4  13 -17    5.81    3.98
  -5  13 -17   -4.69    4.16
  -6 -12  17    3.20    3.82
  -5 -12  17    0.10    3.52
  -4 -12  17    0.12    3.37
  -3 -12  17    4.62    2.80
  -2 -12  17   -0.21    1.24
  -1 -12  17   -0.87    1.29
   0 -12  17    2.18    1.66
   1 -12  17    0.46    1.22
   2 -12  17    0.69    1.17
  -2  12 -17    4.91    3.68
  -3  12 -17    6.57    4.14
   3 -12  17    0.92    1.49
   4 -12  17    1.92    1.70
  -4  12 -17   12.87    5.08
   5 -12  17    0.78    2.04
  -5  12 -17    7.81    4.74
  -6  12 -17   -0.51    4.37
  -8 -11  17    7.03    3.78
  -7 -11  17    1.39    3.16
  -6 -11  17   -1.30    1.08
  -5 -11  17    2.03    1.71
  -4 -11  17    3.32    2.73
  -3 -11  17   -1.72    2.50
  -2 -11  17    6.63    3.09
  -1 -11  17   -1.68    2.29
   0 -11  17    0.74    2.29
  -1  11 -17    2.18    3.43
   1 -11  17    0.59    2.55
  -1  11 -17    4.50    3.84
  -2  11 -17    6.48    4.28
   2 -11  17    1.22    2.52
  -2  11 -17    3.33    3.42
  -3  11 -17    1.95    3.97
  -3  11 -17   -1.38    3.14
   3 -11  17   -1.33    2.20
  -4  11 -17    9.66    4.99
  -4  11 -17   11.11    4.81
  -5  11 -17    0.58    3.78
  -5  11 -17   -7.85    2.83
   5 -11  17    0.79    1.65
  -6  11 -17   -1.92    2.06
  -9 -10  17    1.12    1.46
  -8 -10  17    1.21    1.23
  -7 -10  17    0.61    1.42
  -6 -10  17    0.47    2.42
  -5 -10  17   -0.72    2.04
  -4 -10  17    1.58    2.28
  -3 -10  17    9.13    3.44
  -2 -10  17    2.55    2.67
  -1 -10  17    9.85    3.44
   0  10 -17   -1.16    3.14
   0  10 -17    1.21    2.66
   0 -10  17    4.61    2.77
   1 -10  17   13.40    3.73
  -1  10 -17   13.78    4.49
  -1  10 -17   16.21    4.58
  -2  10 -17    2.38    3.33
  -2  10 -17    3.25    3.58
   3 -10  17   12.34    3.92
  -3  10 -17   16.53    5.00
  -3  10 -17    7.52    4.47
   4 -10  17    3.08    3.13
  -4  10 -17    9.54    4.54
  -4  10 -17    4.98    3.76
   5 -10  17    0.77    1.74
  -5  10 -17    4.28    3.41
  -5  10 -17    2.39    3.32
  -6  10 -17   -0.67    2.11
  -6  10 -17    0.07    2.27
  -7  10 -17    1.15    2.90
 -10  -9  17   -2.21    1.29
  -9  -9  17    0.15    1.08
  -8  -9  17    0.98    2.07
  -7  -9  17    3.88    2.61
  -6  -9  17   20.36    4.19
  -5  -9  17    6.99    3.22
  -4  -9  17    3.77    2.50
  -3  -9  17    1.21    2.30
  -2  -9  17    2.14    2.18
  -1  -9  17    1.18    2.29
   1   9 -17    3.05    3.34
   1   9 -17   10.63    3.81
   0   9 -17   42.20    6.10
   0  -9  17   47.47    5.54
   0   9 -17   61.96    7.38
  -1   9 -17   21.14    4.94
  -1   9 -17   20.26    5.10
   1  -9  17   20.35    4.15
  -2   9 -17   43.28    6.48
  -2   9 -17   53.09    7.20
   2  -9  17   51.27    5.98
  -3   9 -17    4.16    3.38
  -3   9 -17    3.50    3.16
   3  -9  17    2.33    2.44
  -4   9 -17    2.77    3.70
  -4   9 -17    2.04    3.65
   4  -9  17   -2.44    2.38
   5  -9  17   -3.34    2.49
  -5   9 -17   -0.69    3.29
  -5   9 -17    0.41    3.43
  -6   9 -17   -0.76    1.76
  -6   9 -17   -0.10    1.68
  -7   9 -17    0.41    2.10
  -7   9 -17   -2.56    2.35
 -11  -8  17    1.35    1.41
 -10  -8  17    0.63    1.03
  -9  -8  17    4.58    2.81
  -8  -8  17   15.93    4.02
  -7  -8  17    0.79    2.23
  -6  -8  17   10.08    3.31
  -5  -8  17    3.24    2.41
  -4  -8  17    1.66    2.33
  -3  -8  17   49.25    5.54
  -2  -8  17   20.09    4.41
  -2  -8  17   24.93    4.24
  -1  -8  17   68.66    6.19
  -1  -8  17   74.05    7.00
   0  -8  17   27.14    5.35
   0  -8  17   30.56    4.60
   1  -8  17   25.76    4.40
   1  -8  17   14.12    4.58
   2  -8  17    3.40    2.77
  -3   8 -17    5.41    3.88
  -3   8 -17    2.10    3.37
   3  -8  17    3.48    2.78
  -4   8 -17    4.00    3.69
   4  -8  17    2.04    2.56
  -4   8 -17    0.29    3.05
  -5   8 -17   20.49    5.46
  -5   8 -17   14.52    4.90
  -6   8 -17    2.45    1.92
  -6   8 -17    1.38    1.92
  -7   8 -17    1.74    2.60
  -7   8 -17    0.66    2.06
 -12  -7  17    1.28    1.51
 -11  -7  17   -1.94    0.91
 -10  -7  17    3.73    2.61
  -9  -7  17   42.14    5.68
  -8  -7  17   -0.95    2.25
  -7  -7  17   -2.23    1.97
  -6  -7  17    6.58    2.74
  -5  -7  17   14.14    3.49
  -4  -7  17   74.28    6.26
  -3  -7  17    7.25    3.88
  -3  -7  17   10.58    2.95
  -2  -7  17   42.57    4.96
  -2  -7  17   30.82    4.90
  -1  -7  17   20.31    3.96
  -1  -7  17   17.52    4.59
   0  -7  17   -2.84    3.36
   0  -7  17    2.47    2.18
   1  -7  17   -2.50    3.33
   1  -7  17    1.21    2.39
   2  -7  17   -0.12    2.34
   2  -7  17    3.19    4.14
   3  -7  17    3.10    2.72
   3  -7  17    0.46    3.78
   4  -7  17   -0.21    2.59
  -5   7 -17    0.66    3.73
  -5   7 -17    5.45    4.10
  -6   7 -17    2.39    2.72
  -6   7 -17    3.52    2.55
  -7   7 -17    5.73    2.33
  -7   7 -17    0.18    2.15
 -12  -6  17   -1.23    0.88
 -11  -6  17    1.87    2.71
 -10  -6  17   26.16    4.60
  -9  -6  17    4.64    2.48
  -8  -6  17   -1.19    2.09
  -7  -6  17    2.55    2.60
  -6  -6  17    6.39    2.67
  -5  -6  17    4.54    2.35
  -4  -6  17   10.64    3.01
  -4  -6  17   12.83    3.91
  -3  -6  17   21.20    3.79
  -3  -6  17   15.93    4.31
  -2  -6  17   -0.08    3.47
  -2  -6  17   -1.13    1.83
  -1  -6  17    7.03    3.92
  -1  -6  17    2.92    2.23
   0  -6  17    9.14    4.14
   0  -6  17   13.33    3.26
   1  -6  17    0.35    2.30
   1  -6  17    5.54    3.99
   2  -6  17    1.36    3.67
   2  -6  17    7.32    2.78
   3  -6  17    3.72    2.64
   3  -6  17    7.17    4.39
   4  -6  17   36.45    6.43
  -6   6 -17    3.49    3.20
  -6   6 -17    2.16    3.21
  -7   6 -17    2.26    4.65
  -7   6 -17    7.80    5.22
 -14  -5  17    0.33    1.33
 -13  -5  17   -4.39    0.91
 -12  -5  17    2.26    2.44
 -11  -5  17   11.20    3.53
 -10  -5  17   -0.11    2.09
  -9  -5  17    3.55    2.29
  -8  -5  17    6.78    2.77
  -7  -5  17   83.14    6.67
  -6  -5  17   30.28    4.31
  -5  -5  17   35.79    4.40
  -5  -5  17   33.07    4.68
  -4  -5  17   57.97    5.71
  -4  -5  17   53.45    5.04
  -3  -5  17   10.51    3.77
  -3  -5  17   11.96    2.93
  -2  -5  17    3.81    3.30
  -2  -5  17   -0.75    1.83
  -1  -5  17    2.49    3.35
  -1  -5  17   -0.90    1.79
   0  -5  17   18.19    3.58
   0  -5  17   16.93    4.67
   1  -5  17    1.40    2.38
   1  -5  17    0.82    3.80
   2  -5  17   57.15    6.85
   2  -5  17   64.09    5.82
   3  -5  17   20.83    4.08
   3  -5  17   16.41    4.86
   4  -5  17   10.48    4.71
   5  -5  17    2.30    4.42
  -7   5 -17   14.57    5.94
  -7   5 -17    8.50    5.11
 -14  -4  17   -1.26    1.18
 -13  -4  17   -2.21    2.00
 -12  -4  17    3.80    2.64
 -11  -4  17   -1.84    1.94
 -10  -4  17   -1.09    2.10
  -9  -4  17   10.68    3.19
  -8  -4  17   82.65    6.02
  -7  -4  17   57.93    5.53
  -6  -4  17   58.62    5.62
  -6  -4  17   62.69    5.46
  -5  -4  17    3.34    1.96
  -5  -4  17    2.44    2.89
  -4  -4  17   93.92    6.02
  -4  -4  17   98.71    7.23
  -3  -4  17   10.30    3.82
  -3  -4  17   16.78    3.21
  -2  -4  17   -2.46    3.26
  -2  -4  17   -0.27    1.74
  -1  -4  17   45.83    4.70
  -1  -4  17   45.27    5.78
   0  -4  17   56.39    5.19
   0  -4  17   45.95    6.03
   1  -4  17    6.26    2.74
   1  -4  17    9.32    4.28
   2  -4  17    8.39    4.43
   2  -4  17    6.93    2.85
   3  -4  17    3.15    4.19
   4  -4  17    7.27    4.32
   5  -4  17    5.77    4.38
   6  -4  17    3.14    4.02
 -15  -3  17    1.12    1.63
 -14  -3  17    2.91    2.41
 -13  -3  17    0.47    2.31
 -12  -3  17    5.50    2.66
 -11  -3  17   36.20    4.84
 -10  -3  17    0.83    2.34
  -9  -3  17   66.77    5.83
  -8  -3  17    6.81    2.60
  -7  -3  17   16.92    4.06
  -7  -3  17   20.80    3.62
  -6  -3  17   22.69    3.64
  -6  -3  17   24.21    4.20
  -5  -3  17    9.80    3.55
  -5  -3  17    7.88    2.43
  -4  -3  17    1.78    3.10
  -4  -3  17    0.52    1.97
  -3  -3  17    3.74    1.95
  -3  -3  17   -2.62    2.83
  -2  -3  17    3.42    3.29
  -2  -3  17    5.72    2.26
  -1  -3  17   91.62    7.54
  -1  -3  17   94.33    5.92
   0  -3  17   -1.17    1.95
   0  -3  17    0.76    3.65
   1  -3  17    5.58    3.97
   1  -3  17    6.55    2.59
   2  -3  17   18.36    5.13
   2  -3  17    8.72    2.98
   3  -3  17    3.67    4.07
   4  -3  17   -1.44    3.92
   5  -3  17   24.28    5.54
   6  -3  17    0.43    3.91
   7  -3  17   -0.85    1.52
 -16  -2  17   -0.37    2.94
 -15  -2  17   -2.38    1.81
 -14  -2  17    3.06    2.76
 -13  -2  17    0.81    2.36
 -12  -2  17    3.08    2.46
 -11  -2  17   -2.07    1.81
 -10  -2  17    5.69    2.47
  -9  -2  17    7.65    2.66
  -8  -2  17   21.09    3.52
  -8  -2  17   13.62    3.84
  -7  -2  17   14.64    3.77
  -7  -2  17   13.70    2.96
  -6  -2  17   26.50    3.66
  -6  -2  17   33.90    4.67
  -5  -2  17    6.45    2.54
  -5  -2  17   11.34    3.79
  -4  -2  17   21.04    4.36
  -4  -2  17   16.15    2.94
  -3  -2  17    2.40    1.91
  -3  -2  17    7.18    3.54
  -2  -2  17   -0.25    3.10
  -2  -2  17    4.18    2.01
  -1  -2  17   84.94    5.63
  -1  -2  17   87.35    7.34
   0  -2  17    1.31    2.14
   0  -2  17    8.01    3.99
   1  -2  17    0.10    1.95
   1  -2  17   -4.17    3.17
   2  -2  17    0.71    3.76
   3  -2  17    4.28    3.83
   4  -2  17   16.41    5.16
   5  -2  17    8.94    4.80
   6  -2  17   -4.90    3.28
   7  -2  17   -0.89    1.65
 -16  -1  17    1.65    2.81
 -15  -1  17    6.71    3.09
 -14  -1  17   -1.09    1.96
 -13  -1  17   12.41    3.38
 -12  -1  17   -0.10    2.04
 -11  -1  17    5.79    2.57
 -10  -1  17   14.22    3.25
  -9  -1  17    5.24    3.33
  -8  -1  17    5.41    3.27
  -8  -1  17    4.28    2.08
  -7  -1  17    6.82    3.50
  -7  -1  17    5.40    2.32
  -6  -1  17    5.74    3.46
  -6  -1  17    6.31    2.36
  -5  -1  17   -0.18    1.58
  -5  -1  17    2.73    2.96
  -4  -1  17    9.01    3.57
  -4  -1  17    4.42    2.00
  -3  -1  17   14.63    4.30
  -3  -1  17   12.78    2.73
  -2  -1  17   52.00    5.95
  -2  -1  17   53.99    4.43
  -1  -1  17    3.61    2.16
  -1  -1  17    5.37    3.59
   0  -1  17    9.81    4.21
   1  -1  17    1.70    3.56
   2  -1  17   65.85    7.01
   3  -1  17    5.92    4.11
   4  -1  17   24.24    5.73
   5  -1  17   15.35    5.33
   6  -1  17   -3.25    2.70
   7  -1  17   -0.30    1.94
 -17   0  17    6.88    3.78
 -16   0  17   16.00    3.99
 -15   0  17    2.58    2.56
 -14   0  17   18.39    3.96
 -13   0  17    3.48    2.58
 -12   0  17    7.75    2.86
 -11   0  17   -1.65    1.64
 -10   0  17   -1.48    1.66
 -10   0  17   -0.48    2.83
  -9   0  17    8.48    3.65
  -9   0  17    1.57    2.01
  -8   0  17   21.17    4.34
  -8   0  17   18.08    3.16
  -7   0  17   30.91    3.58
  -7   0  17   35.69    5.06
  -6   0  17    0.96    3.12
  -6   0  17   -0.47    1.50
  -5   0  17   17.30    4.28
  -5   0  17   10.73    2.31
  -4   0  17  111.34    8.07
  -3   0  17    0.56    3.23
  -2   0  17    2.67    3.48
  -1   0  17    6.09    3.78
   0   0  17   18.92    4.63
   1   0  17  120.74    8.92
   2   0  17   67.14    7.24
   3   0  17   23.99    5.47
   4   0  17    8.33    4.41
   5   0  17    0.96    4.08
   6   0  17   -3.37    2.63
   7   0  17    1.05    4.39
 -17   1  17   23.92    5.07
 -16   1  17    3.71    2.90
 -15   1  17   14.04    3.74
 -14   1  17    7.52    3.07
 -13   1  17    1.15    2.41
 -12   1  17    5.19    2.70
 -11   1  17    4.83    3.21
 -11   1  17    2.39    2.13
 -10   1  17    0.97    1.82
 -10   1  17    3.97    3.34
  -9   1  17   80.40    6.90
  -9   1  17   80.54    5.34
  -8   1  17    7.65    2.38
  -8   1  17    2.25    3.42
  -7   1  17  200.57   10.55
  -6   1  17   11.55    3.84
  -5   1  17   47.04    5.74
  -4   1  17    4.14    3.62
  -3   1  17   17.99    4.55
  -2   1  17    1.59    3.34
  -1   1  17   17.78    4.74
   0   1  17   17.74    4.76
   1   1  17   60.10    6.89
   2   1  17   -0.02    3.46
   3   1  17    3.90    4.02
   4   1  17    9.59    4.48
   5   1  17   14.59    5.09
   6   1  17    1.89    4.06
   7   1  17   19.74    5.97
 -18   2  17   74.36    7.67
 -17   2  17   22.90    4.34
 -16   2  17    3.63    2.84
 -15   2  17    6.56    3.08
 -14   2  17   10.94    3.15
 -13   2  17    1.81    2.24
 -12   2  17   25.33    4.07
 -12   2  17   27.26    4.97
 -11   2  17   14.38    4.24
 -10   2  17   16.24    4.40
  -9   2  17    0.36    2.96
  -8   2  17   45.12    5.63
  -7   2  17   42.19    5.61
  -6   2  17   25.30    4.90
  -5   2  17    6.51    3.80
  -4   2  17   19.92    4.44
  -3   2  17    4.49    3.68
  -2   2  17   27.48    5.23
  -1   2  17   16.96    4.74
   0   2  17    3.92    3.38
   1   2  17   12.66    4.52
   2   2  17    6.87    3.95
   3   2  17   -3.82    3.41
   4   2  17    0.86    3.64
   5   2  17   -1.00    3.82
   6   2  17    4.58    4.96
   7   2  17    1.28    5.11
 -18   3  17   11.47    4.01
 -12   3  17   -1.04    3.27
 -11   3  17   16.35    4.47
 -10   3  17    9.56    3.68
  -9   3  17   23.83    4.83
  -8   3  17   17.43    4.44
  -7   3  17    7.17    3.99
  -6   3  17   57.45    6.42
  -5   3  17   39.86    5.77
  -4   3  17    0.89    3.07
  -3   3  17   30.23    5.48
  -2   3  17    4.32    3.62
  -1   3  17    0.80    2.94
   0   3  17   15.53    4.72
   1   3  17    2.43    3.80
   2   3  17    4.63    3.93
   3   3  17   14.39    4.79
   4   3  17   15.26    4.76
   5   3  17   57.26    7.48
   6   3  17    2.54    5.12
 -13   4  17    0.01    3.32
 -12   4  17   27.12    5.27
 -11   4  17    3.59    3.61
 -10   4  17    4.17    3.50
  -9   4  17   -0.77    3.19
  -8   4  17   41.83    5.94
  -7   4  17    2.19    3.31
  -6   4  17   65.77    6.90
  -5   4  17    8.90    4.02
  -4   4  17   55.49    6.63
  -3   4  17    5.71    3.57
  -2   4  17    4.91    3.89
  -1   4  17    8.71    4.01
   0   4  17   -0.13    3.55
   1   4  17   -0.45    3.46
   2   4  17   21.71    5.37
   3   4  17    2.23    3.73
   4   4  17    9.64    4.48
   5   4  17   -4.94    3.48
   6   4  17   13.12    6.34
 -14   5  17    6.62    4.00
 -13   5  17   73.23    7.35
 -12   5  17    2.11    3.41
 -11   5  17   18.47    5.03
 -10   5  17   36.88    5.82
  -9   5  17   65.43    6.90
  -8   5  17   13.59    4.34
  -7   5  17   85.76    7.83
  -6   5  17    9.27    4.15
  -5   5  17   -0.59    3.21
  -4   5  17   -3.87    2.82
  -3   5  17   -0.92    3.25
  -2   5  17    0.47    3.42
  -1   5  17    6.53    3.87
   0   5  17   -0.70    3.44
   1   5  17   70.26    7.69
   2   5  17    4.96    4.15
   3   5  17    3.72    3.80
   4   5  17   -0.41    3.63
   5   5  17   -5.25    4.09
 -15   6  17   11.40    4.69
 -14   6  17    6.62    4.05
 -13   6  17    0.53    3.82
 -12   6  17   47.21    6.45
 -11   6  17   38.86    6.01
 -10   6  17   21.15    5.24
  -9   6  17   57.26    6.68
  -8   6  17   43.53    6.29
  -7   6  17    4.69    3.67
  -6   6  17    2.63    3.87
  -5   6  17   10.46    4.12
  -4   6  17    9.13    4.23
  -3   6  17   18.87    4.86
  -2   6  17   37.37    6.02
  -1   6  17    4.42    4.03
   0   6  17    8.03    4.13
   1   6  17    1.10    3.48
   2   6  17    1.91    3.75
   3   6  17   -2.51    3.42
   4   6  17   16.25    5.70
 -16   7  17    0.21    4.23
 -15   7  17    2.91    4.28
 -14   7  17    2.76    4.27
 -13   7  17   71.75    7.53
 -12   7  17   26.94    5.74
 -11   7  17    6.88    4.14
 -10   7  17   59.26    7.13
  -9   7  17   35.17    6.16
  -8   7  17   17.15    4.58
  -7   7  17    3.65    3.65
  -6   7  17    6.48    3.87
  -5   7  17   14.87    4.68
  -4   7  17   15.80    4.83
  -3   7  17   16.51    4.91
  -2   7  17   30.41    5.82
  -1   7  17   72.80    7.89
   0   7  17   -2.18    3.18
   1   7  17   -1.64    3.43
   2   7  17    1.13    3.97
   3   7  17    4.31    4.36
 -17   8  17   21.13    6.57
 -16   8  17   -0.64    4.87
 -15   8  17   -8.43    3.69
 -14   8  17    8.62    4.74
 -13   8  17   50.93    7.19
 -12   8  17   19.67    5.39
 -11   8  17    5.82    4.22
 -10   8  17    0.25    3.70
  -9   8  17    2.64    3.65
  -8   8  17    3.69    3.83
  -7   8  17   10.32    4.40
  -6   8  17    8.91    4.41
  -5   8  17   -0.09    3.67
  -4   8  17   19.20    5.05
  -3   8  17    4.75    3.97
  -2   8  17   29.21    5.98
  -1   8  17    4.97    4.08
   0   8  17    2.18    3.70
   1   8  17    0.10    3.85
   2   8  17   18.64    5.23
 -17   9  17    9.96    5.71
 -16   9  17    7.86    5.14
 -15   9  17   11.96    5.53
 -14   9  17    9.29    5.01
 -13   9  17   42.89    6.86
 -12   9  17    2.42    3.86
 -11   9  17    4.27    4.14
 -10   9  17   28.87    5.87
  -9   9  17   -3.52    3.36
  -8   9  17    3.74    3.84
  -7   9  17   67.21    7.65
   6  -9 -17    9.54    3.55
  -6   9  17   12.16    4.84
  -5   9  17    8.48    4.26
  -4   9  17    5.93    4.07
  -3   9  17   -0.95    3.54
  -2   9  17   -1.42    3.20
  -1   9  17   14.71    5.01
   0   9  17    4.10    3.83
   1   9  17   30.92    6.13
 -16  10  17    9.96    5.59
 -15  10  17   12.89    5.70
 -14  10  17   37.89    7.29
 -13  10  17   -2.64    3.73
 -12  10  17    0.92    4.03
 -11  10  17    4.59    4.27
 -10  10  17   -5.70    3.30
  -9  10  17   10.50    4.72
  -8  10  17   27.52    5.98
  -7  10  17   14.43    4.93
   6 -10 -17   44.36    6.08
   5 -10 -17   28.91    5.20
  -5  10  17   15.17    5.08
  -4  10  17    5.31    3.96
  -3  10  17   11.38    4.64
  -2  10  17   14.97    4.75
  -1  10  17    9.94    4.22
   0  10  17    2.84    4.13
 -15  11  17   20.08    6.12
 -14  11  17    5.35    4.78
 -13  11  17    2.40    4.48
 -12  11  17   13.26    5.24
 -11  11  17    8.77    4.90
 -10  11  17   -0.48    2.89
  -9  11  17    0.49    3.56
  -8  11  17   -0.62    3.37
  -7  11  17    0.37    3.48
   6 -11 -17   -1.66    3.08
  -6  11  17    1.26    3.70
  -5  11  17    1.13    3.27
   5 -11 -17   -0.81    3.41
  -4  11  17   -0.45    3.43
  -2  11  17   17.44    5.16
  -1  11  17   19.48    5.63
 -13  12  17    6.11    5.22
 -12  12  17    9.17    5.21
 -11  12  17    0.40    1.49
 -10  12  17    2.16    1.57
  -9  12  17   -0.47    1.39
  -8  12  17    2.52    1.55
   7 -12 -17   -1.95    3.34
  -7  12  17   -0.01    1.35
   6 -12 -17    6.69    4.45
   5 -12 -17   -3.77    3.99
  -5  12  17    4.46    4.07
   4 -12 -17    3.01    4.66
  -4  12  17    1.51    3.96
  -3  12  17    0.14    4.11
 -10  13  17    1.32    1.73
  -9  13  17    0.97    1.83
  -8  13  17    3.32    2.34
  -7  13  17    3.70    1.80
   7 -13 -17    7.05    4.56
  -6  13  17   -3.18    4.03
   6 -13 -17    3.85    4.63
  -5  13  17   43.90    7.34
   5 -13 -17   19.27    6.09
   4 -13 -17    4.42    6.90
  -4  13 -18    1.72    4.88
  -4 -12  18    0.60    1.51
  -3 -12  18   -0.93    1.28
  -2 -12  18    0.20    1.30
  -1 -12  18    1.46    1.44
   0 -12  18    0.56    1.21
   1 -12  18    1.98    1.35
   2 -12  18    0.94    1.60
   3 -12  18    0.32    1.71
  -3  12 -18   -0.52    3.38
  -4  12 -18    4.03    4.89
  -6 -11  18   -0.52    1.20
  -5 -11  18    0.06    1.03
  -4 -11  18   -0.07    0.91
  -3 -11  18    0.40    1.16
  -2 -11  18   -0.03    1.59
  -1 -11  18    2.34    2.01
   0 -11  18    2.21    1.85
   1 -11  18   -1.16    1.12
  -1  11 -18    6.31    4.47
   2 -11  18    1.34    1.13
  -2  11 -18    8.46    4.62
  -2  11 -18    3.49    3.47
  -3  11 -18   24.36    5.94
  -3  11 -18   22.79    5.38
   4 -11  18    1.45    1.92
  -4  11 -18    3.68    4.25
  -4  11 -18   -1.37    3.11
  -5  11 -18   10.99    5.32
  -5  11 -18   18.13    7.10
  -8 -10  18   -0.78    1.49
  -7 -10  18   -0.75    1.28
  -6 -10  18    1.07    1.09
  -5 -10  18    0.18    2.28
  -4 -10  18    0.48    2.52
  -3 -10  18    6.30    2.89
  -2 -10  18    9.69    3.26
  -1 -10  18    3.61    2.99
   0  10 -18   29.86    5.71
   0  10 -18   35.21    6.09
   0 -10  18   25.61    4.80
  -1  10 -18    8.24    4.48
  -1  10 -18   18.10    4.72
   1 -10  18   11.07    3.69
   2 -10  18    2.81    2.85
  -2  10 -18   -0.83    3.59
  -2  10 -18    7.90    3.74
  -3  10 -18   13.78    5.00
  -3  10 -18    8.67    4.94
  -4  10 -18    2.12    3.42
   4 -10  18    2.46    1.50
  -4  10 -18   -2.64    3.66
   5 -10  18    0.88    1.79
  -5  10 -18    2.38    2.78
  -5  10 -18    2.01    2.36
  -9  -9  18   -3.03    1.00
  -8  -9  18    0.61    1.15
  -7  -9  18    0.84    2.55
  -6  -9  18    2.32    2.59
  -5  -9  18    0.55    2.44
  -3  -9  18    9.89    3.34
  -2  -9  18   12.31    3.67
   1   9 -18   28.69    5.46
   1   9 -18   34.09    5.70
  -1  -9  18   25.09    4.62
   0   9 -18   18.87    4.95
   0  -9  18   11.06    3.38
   0   9 -18   10.72    4.29
  -1   9 -18   23.55    5.68
   1  -9  18   16.01    3.70
  -1   9 -18   26.51    5.92
   2  -9  18    4.89    3.07
  -2   9 -18    2.05    3.19
  -2   9 -18    4.49    3.97
  -3   9 -18    3.10    3.71
  -3   9 -18    1.84    3.57
   3  -9  18    3.31    2.83
  -4   9 -18    3.31    3.36
  -4   9 -18    1.65    3.51
   4  -9  18    0.89    2.71
  -5   9 -18    4.56    2.29
  -5   9 -18    0.54    2.32
  -6   9 -18    0.29    2.82
  -6   9 -18    2.96    2.63
 -10  -8  18    0.46    1.21
  -9  -8  18    1.48    1.56
  -8  -8  18    4.40    2.99
  -6  -8  18    2.23    2.51
  -5  -8  18    2.87    2.34
  -4  -8  18    5.47    2.62
  -3  -8  18   10.01    3.07
  -2  -8  18   27.98    4.60
  -2  -8  18   25.12    4.90
  -1  -8  18    9.22    3.15
  -1  -8  18   11.29    4.40
   0  -8  18   12.72    3.59
   0  -8  18   10.80    4.53
   1  -8  18    4.09    4.47
   1  -8  18    0.85    2.56
   2  -8  18    1.48    2.85
  -3   8 -18    9.19    4.38
   3  -8  18    5.07    3.11
  -3   8 -18   10.39    4.48
   4  -8  18   -1.20    2.54
  -4   8 -18   -3.80    3.24
  -4   8 -18   -1.09    3.24
  -5   8 -18    5.36    2.24
  -5   8 -18    1.03    1.78
  -6   8 -18   -3.35    2.30
  -6   8 -18    1.12    2.14
 -11  -7  18   -2.40    1.05
 -10  -7  18   -0.48    1.77
  -9  -7  18    1.20    2.65
  -8  -7  18   -0.84    2.27
  -7  -7  18   -0.29    2.07
  -6  -7  18   15.69    3.77
  -5  -7  18   16.75    3.81
  -4  -7  18   19.69    3.99
  -3  -7  18   57.55    5.71
  -3  -7  18   58.84    6.22
  -2  -7  18    3.41    3.77
  -2  -7  18   -1.83    2.03
  -1  -7  18   12.35    4.53
  -1  -7  18   23.17    4.04
   0  -7  18    0.77    3.75
   0  -7  18    8.26    3.02
   1  -7  18    1.95    2.43
   1  -7  18    5.80    4.07
   2  -7  18    0.35    3.90
   2  -7  18    0.08    2.42
   3  -7  18   -1.75    2.31
   3  -7  18   -2.23    4.32
   4  -7  18    0.49    2.72
  -5   7 -18   -1.49    1.73
  -5   7 -18    2.21    2.00
  -6   7 -18    3.42    2.54
  -6   7 -18    0.42    2.45
 -12  -6  18   -1.22    1.26
 -11  -6  18    2.00    1.92
 -10  -6  18    1.20    2.50
  -9  -6  18   -1.38    1.94
  -8  -6  18    3.11    2.66
  -7  -6  18   49.86    5.74
  -6  -6  18   44.74    5.33
  -5  -6  18   91.79    6.68
  -4  -6  18   11.10    4.13
  -4  -6  18    6.44    2.78
  -3  -6  18   -2.30    2.97
  -3  -6  18    2.92    2.30
  -2  -6  18   16.94    3.67
  -2  -6  18   22.34    5.01
  -1  -6  18    3.56    3.86
  -1  -6  18   -1.01    2.03
   0  -6  18   29.36    4.47
   0  -6  18   25.15    5.27
   1  -6  18    4.33    2.80
   1  -6  18    2.74    4.15
   2  -6  18    1.45    3.90
   2  -6  18    5.65    2.88
   3  -6  18    0.96    4.09
   3  -6  18   11.27    3.57
   4  -6  18   17.31    5.69
  -6   6 -18    6.98    2.84
  -6   6 -18    2.03    2.55
 -13  -5  18   -1.23    1.21
 -12  -5  18    1.09    1.94
 -11  -5  18    1.51    2.49
 -10  -5  18   13.22    3.58
  -9  -5  18   12.26    3.33
  -8  -5  18   70.79    6.45
  -7  -5  18   12.54    3.36
  -6  -5  18  102.02    6.92
  -5  -5  18    8.43    3.75
  -5  -5  18    9.52    2.92
  -4  -5  18    6.29    3.46
  -4  -5  18    8.85    2.77
  -3  -5  18    6.19    3.79
  -3  -5  18    1.02    1.97
  -2  -5  18   79.62    6.01
  -2  -5  18   81.90    7.23
  -1  -5  18    4.43    2.39
  -1  -5  18    4.33    3.77
   0  -5  18   14.42    4.70
   0  -5  18   19.17    3.90
   1  -5  18    2.96    4.06
   1  -5  18   -0.86    2.34
   2  -5  18   25.83    5.76
   2  -5  18   24.98    4.31
   3  -5  18   -2.99    3.31
   3  -5  18    5.15    3.19
   4  -5  18    1.61    4.09
   5  -5  18    1.09    4.39
 -14  -4  18   -3.32    1.23
 -13  -4  18   -0.52    1.50
 -12  -4  18    0.72    2.43
 -11  -4  18   13.58    3.82
 -10  -4  18   -0.28    2.27
  -9  -4  18   18.53    3.83
  -8  -4  18    2.22    2.32
  -7  -4  18    9.31    3.00
  -6  -4  18    4.76    2.55
  -6  -4  18   -1.01    3.13
  -5  -4  18    0.51    3.06
  -5  -4  18   -0.55    1.83
  -4  -4  18   10.18    2.82
  -4  -4  18   12.79    4.10
  -3  -4  18   17.56    4.47
  -3  -4  18   17.14    3.30
  -2  -4  18    0.57    1.90
  -2  -4  18   -1.76    3.19
  -1  -4  18  118.35    8.59
  -1  -4  18  119.25    6.99
   0  -4  18    2.36    3.87
   0  -4  18    1.13    2.24
   1  -4  18    7.33    2.97
   1  -4  18    6.84    4.55
   2  -4  18   -0.71    2.30
   2  -4  18   -3.92    3.69
   3  -4  18   10.33    4.65
   4  -4  18    0.03    4.07
   5  -4  18   -0.88    2.69
   6  -4  18    0.04    1.97
 -15  -3  18    1.99    3.05
 -14  -3  18   -0.81    1.95
 -13  -3  18    0.20    2.09
 -12  -3  18    5.40    2.93
 -11  -3  18   12.68    3.36
 -10  -3  18   17.51    3.76
  -9  -3  18    2.44    2.27
  -8  -3  18    7.08    2.53
  -7  -3  18    1.43    1.84
  -7  -3  18   -2.88    2.91
  -6  -3  18   22.22    3.60
  -6  -3  18   12.15    4.02
  -5  -3  18    0.63    1.90
  -5  -3  18   -0.71    2.79
  -4  -3  18   32.16    5.10
  -4  -3  18   30.76    3.98
  -3  -3  18    5.97    3.61
  -3  -3  18    3.00    2.07
  -2  -3  18   31.32    5.29
  -2  -3  18   39.87    4.33
  -1  -3  18    2.11    2.19
  -1  -3  18    0.50    3.36
   0  -3  18    0.02    3.47
   0  -3  18   -2.34    1.96
   1  -3  18   -3.66    3.43
   1  -3  18    0.42    2.12
   2  -3  18    2.82    2.59
   2  -3  18    3.51    4.24
   3  -3  18   -0.35    4.06
   5  -3  18    0.90    2.71
   6  -3  18   -0.08    1.88
 -15  -2  18   -0.84    2.58
 -14  -2  18    1.65    2.55
 -13  -2  18   11.08    3.31
 -12  -2  18    4.00    2.61
 -11  -2  18   34.68    4.82
 -10  -2  18    3.59    2.50
  -9  -2  18    8.68    2.94
  -8  -2  18    0.65    3.11
  -8  -2  18    1.97    1.97
  -7  -2  18    9.30    3.71
  -7  -2  18   12.65    2.90
  -6  -2  18   48.42    4.60
  -6  -2  18   62.79    6.24
  -5  -2  18   16.29    3.05
  -5  -2  18   13.73    4.18
  -4  -2  18    4.40    3.60
  -4  -2  18    2.26    1.82
  -3  -2  18    7.43    3.84
  -3  -2  18    9.90    2.61
  -2  -2  18    0.89    1.80
  -2  -2  18    4.23    3.67
  -1  -2  18   -2.03    1.63
  -1  -2  18    0.29    3.24
   0  -2  18    5.28    3.85
   1  -2  18   17.25    5.00
   2  -2  18   13.52    4.68
   3  -2  18   12.78    4.76
   4  -2  18   -4.95    3.61
   5  -2  18   -1.04    2.35
   6  -2  18   -0.04    1.83
 -16  -1  18   -0.69    2.57
 -15  -1  18   -0.33    2.46
 -14  -1  18   73.40    6.91
 -13  -1  18   -2.06    2.02
 -12  -1  18    1.25    2.52
 -11  -1  18    2.52    2.41
 -10  -1  18   -1.02    1.78
  -9  -1  18    5.89    3.50
  -9  -1  18   -0.06    1.84
  -8  -1  18  110.52    7.97
  -8  -1  18  100.15    6.36
  -7  -1  18   46.85    5.63
  -7  -1  18   41.12    4.35
  -6  -1  18    1.18    1.77
  -6  -1  18    1.05    2.94
  -5  -1  18    2.97    1.87
  -5  -1  18    4.28    3.34
  -4  -1  18   12.56    4.46
  -4  -1  18   12.16    2.70
  -3  -1  18    0.84    3.36
  -2  -1  18   21.65    4.96
  -1  -1  18   -3.47    3.21
   0  -1  18   26.74    5.64
   1  -1  18    6.98    4.33
   2  -1  18    3.57    3.85
   3  -1  18    6.24    4.29
   4  -1  18    3.71    4.47
   5  -1  18    1.43    2.24
   6  -1  18   -0.95    2.18
 -16   0  18   -1.25    2.35
 -15   0  18   25.98    4.85
 -14   0  18    3.92    2.89
 -13   0  18    2.06    2.41
 -12   0  18    0.24    2.10
 -11   0  18    0.97    1.99
 -10   0  18    1.22    3.34
 -10   0  18   -2.00    1.76
  -9   0  18   17.44    3.18
  -9   0  18   21.63    4.62
  -8   0  18   43.97    5.53
  -8   0  18   29.60    3.90
  -7   0  18    6.97    3.52
  -6   0  18    2.65    3.57
  -5   0  18    7.51    3.93
  -4   0  18    2.07    3.32
  -3   0  18    4.52    3.83
  -2   0  18    5.73    3.86
  -1   0  18   28.19    5.63
   0   0  18   28.05    5.59
   1   0  18   22.14    5.40
   2   0  18   17.29    5.25
   3   0  18    7.61    4.53
   4   0  18    0.85    4.19
   5   0  18    1.09    1.86
   6   0  18    1.28    2.29
 -17   1  18   15.94    4.39
 -16   1  18    2.31    2.85
 -15   1  18   -3.21    2.18
 -14   1  18   -1.03    2.33
 -13   1  18   -2.17    1.96
 -12   1  18    1.95    2.28
 -11   1  18    0.69    1.98
 -11   1  18    1.52    3.28
 -10   1  18    3.48    3.62
  -9   1  18    6.87    3.60
  -8   1  18   77.63    7.13
  -7   1  18   17.29    4.51
  -6   1  18   -1.63    2.94
  -5   1  18    4.98    3.74
  -4   1  18   14.53    4.39
  -3   1  18    5.24    3.68
  -2   1  18   65.14    7.25
  -1   1  18   17.38    5.08
   0   1  18   70.63    7.63
   1   1  18    2.30    3.95
   2   1  18   16.85    5.22
   3   1  18    4.37    4.16
   4   1  18   -1.28    3.30
   5   1  18   -1.08    1.92
   6   1  18   -4.25    4.96
 -17   2  18   10.62    3.42
 -11   2  18   15.69    4.45
 -10   2  18    3.18    3.33
  -9   2  18   12.56    4.17
  -8   2  18    3.10    3.58
  -7   2  18   -0.07    3.19
  -6   2  18   -1.10    3.21
  -5   2  18   80.56    7.43
  -4   2  18    1.19    3.40
  -3   2  18   57.59    6.63
  -2   2  18   -2.47    3.17
  -1   2  18    3.24    3.79
   0   2  18   23.17    5.20
   1   2  18    2.30    3.75
   2   2  18  149.01   11.03
   3   2  18    6.22    4.37
   4   2  18   -0.30    2.47
   5   2  18   36.45    7.23
 -12   3  18   20.84    4.69
 -11   3  18    9.32    4.26
 -10   3  18    6.23    3.88
  -9   3  18   27.03    5.19
  -8   3  18   16.21    4.69
  -7   3  18    8.07    4.02
  -6   3  18  140.86    9.67
  -5   3  18    0.13    3.29
  -4   3  18   21.04    5.06
  -3   3  18   20.45    5.01
  -2   3  18    2.93    3.59
  -1   3  18    1.83    3.59
   0   3  18   -0.62    3.47
   1   3  18    9.33    4.39
   2   3  18   36.44    6.22
   3   3  18    0.50    3.62
   4   3  18   22.47    5.72
   5   3  18    0.13    4.64
 -13   4  18   19.88    5.05
 -12   4  18    2.71    3.55
 -11   4  18    9.52    3.94
 -10   4  18    2.00    3.41
  -9   4  18  136.86    9.43
  -8   4  18    0.04    3.42
  -7   4  18   33.65    5.74
  -6   4  18   43.46    6.28
  -5   4  18   35.91    5.97
  -4   4  18    6.29    4.15
  -3   4  18   11.53    4.44
  -2   4  18    4.27    3.84
  -1   4  18    4.30    3.89
   0   4  18    2.68    3.95
   1   4  18   17.76    5.30
   2   4  18    0.29    3.70
   3   4  18    1.07    3.77
   4   4  18    7.51    5.03
 -14   5  18   -2.06    3.77
 -13   5  18    1.78    4.02
 -12   5  18   -6.43    3.34
 -11   5  18   19.44    5.10
 -10   5  18    7.25    3.93
  -9   5  18   48.71    6.53
  -8   5  18   33.79    5.83
  -7   5  18    8.34    4.27
  -6   5  18   43.77    6.24
  -5   5  18    0.34    3.70
  -4   5  18   16.89    5.09
  -3   5  18   27.05    5.61
  -2   5  18    3.19    3.96
  -1   5  18   35.15    6.22
   0   5  18    8.19    4.50
   1   5  18    0.34    3.66
   2   5  18   20.59    5.64
   3   5  18    4.09    4.24
   4   5  18    6.82    5.11
 -15   6  18    6.50    4.71
 -14   6  18    0.63    3.76
 -13   6  18    0.87    3.87
 -12   6  18   19.13    5.27
 -11   6  18    5.87    4.26
 -10   6  18   50.91    6.75
  -9   6  18   50.43    6.69
  -8   6  18    2.72    3.57
  -7   6  18   12.25    4.61
  -6   6  18    8.52    3.94
  -5   6  18   53.02    6.95
  -4   6  18    0.66    3.13
  -3   6  18    7.68    4.37
  -2   6  18   -1.61    3.55
  -1   6  18   32.90    6.23
   0   6  18   -0.90    3.46
   1   6  18   11.18    4.68
   2   6  18    5.07    3.81
   3   6  18    0.51    4.48
 -16   7  18   10.52    5.29
 -15   7  18    2.76    4.21
 -14   7  18    5.83    4.52
 -13   7  18    5.02    4.63
 -12   7  18    9.86    4.90
 -11   7  18    7.73    4.57
 -10   7  18    7.36    4.20
  -9   7  18    4.29    3.96
  -8   7  18    2.88    3.82
  -7   7  18    9.10    4.42
  -6   7  18   33.45    6.16
  -5   7  18    7.25    4.29
  -4   7  18   32.11    6.23
  -2   7  18   67.74    7.92
  -1   7  18    1.77    3.68
   0   7  18    0.60    3.72
   1   7  18   13.06    4.56
   2   7  18    4.40    4.85
 -17   8  18    4.39    6.00
 -16   8  18   10.52    5.68
 -15   8  18   47.10    7.22
 -14   8  18    4.91    4.83
 -13   8  18   19.16    5.58
 -12   8  18   17.03    5.50
 -11   8  18    0.53    3.82
 -10   8  18    7.50    4.49
  -9   8  18    4.24    3.74
  -8   8  18   12.37    4.57
  -7   8  18   22.42    5.53
  -6   8  18   17.72    5.26
  -5   8  18    4.07    3.99
  -3   8  18   -0.25    3.65
  -2   8  18    1.07    3.53
  -1   8  18   12.34    4.90
   0   8  18    3.07    3.72
   1   8  18   30.25    6.55
 -16   9  18   14.92    5.79
 -15   9  18   25.33    6.40
 -14   9  18    6.01    4.96
 -13   9  18    2.48    4.23
 -12   9  18   -1.90    3.77
 -11   9  18    0.72    4.20
 -10   9  18    1.58    4.12
  -9   9  18    3.95    3.73
  -8   9  18   17.33    5.19
  -7   9  18   44.77    6.94
  -6   9  18   -1.48    3.67
  -5   9  18   -0.77    3.96
  -4   9  18    4.31    4.35
  -3   9  18   -0.40    2.94
  -2   9  18   20.62    5.32
  -1   9  18    2.75    4.05
   0   9  18   24.07    6.00
 -15  10  18   12.44    5.60
 -14  10  18    2.27    4.60
 -13  10  18   -2.43    3.77
 -12  10  18   27.38    6.45
 -11  10  18   26.05    6.11
 -10  10  18    4.04    4.38
  -9  10  18    1.50    3.25
  -8  10  18    2.62    3.42
  -7  10  18    1.72    3.34
  -6  10  18    0.69    3.00
  -5  10  18   -0.07    1.98
  -4  10  18    0.96    1.96
  -3  10  18    3.99    4.13
  -2  10  18    9.16    4.73
  -1  10  18   31.53    7.19
 -13  11  18   36.64    7.17
 -12  11  18   23.56    6.40
 -11  11  18   32.99    6.92
 -10  11  18    2.28    1.55
  -9  11  18    0.66    1.42
  -8  11  18    2.65    1.56
  -7  11  18    0.63    1.54
  -6  11  18    1.10    1.69
  -5  11  18   -0.36    1.64
  -4  11  18    9.28    5.17
  -3  11  18    1.17    4.74
 -10  12  18    2.23    1.82
  -9  12  18    0.87    1.97
  -8  12  18    2.02    1.85
  -7  12  18    0.79    2.14
  -6  12  18    1.52    1.67
   7 -13 -18    4.49    5.96
  -3  12 -19    1.60    5.83
  -3  12 -19   -0.20    4.28
  -5 -11  19    2.29    1.67
  -4 -11  19   -2.11    1.21
  -3 -11  19    0.67    1.11
  -2 -11  19    0.51    1.23
  -1 -11  19   -0.95    0.98
   0 -11  19   -0.66    1.12
   1 -11  19   -2.08    1.36
   2 -11  19    2.03    1.72
  -2  11 -19    5.03    3.70
  -2  11 -19    3.43    4.83
  -3  11 -19    3.30    3.87
  -3  11 -19   -2.26    4.52
  -4  11 -19    1.65    4.35
  -4  11 -19    8.27    6.30
  -7 -10  19   -0.64    1.45
  -6 -10  19   -1.88    1.32
  -5 -10  19    1.21    1.25
  -4 -10  19   -1.09    1.02
  -3 -10  19   -0.54    1.33
  -2 -10  19    1.33    2.08
  -1 -10  19    0.67    3.04
   0 -10  19   -1.12    1.34
  -1  10 -19   15.26    5.06
  -1  10 -19    8.49    4.63
  -2  10 -19    6.72    4.00
   2 -10  19    0.89    1.38
  -2  10 -19   -0.60    4.06
  -3  10 -19    6.86    3.81
   3 -10  19   -0.20    1.38
  -3  10 -19    6.79    4.51
  -4  10 -19   -0.77    5.58
   4 -10  19   -0.65    1.67
  -4  10 -19   -0.83    3.93
  -8  -9  19   -1.69    1.28
  -7  -9  19   -3.24    0.97
  -6  -9  19   -2.57    1.67
  -5  -9  19   -1.98    2.16
  -4  -9  19   -1.94    2.19
  -3  -9  19   13.80    3.74
  -2  -9  19   54.35    6.14
   1   9 -19   11.93    4.52
  -1  -9  19    6.71    3.09
   1   9 -19   21.87    4.94
   0  -9  19    4.70    2.73
   0   9 -19   18.95    5.10
   0   9 -19    8.92    4.57
   1  -9  19   15.74    3.86
  -1   9 -19   16.70    4.84
  -1   9 -19   18.69    5.24
  -2   9 -19    4.06    4.11
   2  -9  19   -0.86    1.97
  -2   9 -19    1.24    4.67
  -3   9 -19    2.09    3.37
   3  -9  19    6.44    2.94
  -3   9 -19    5.17    4.26
  -4   9 -19    5.35    2.59
  -4   9 -19    2.70    2.57
   4  -9  19   10.78    3.88
 -10  -8  19   -0.18    1.41
  -9  -8  19   -1.23    1.29
  -8  -8  19   -1.47    2.10
  -7  -8  19    0.02    2.42
  -6  -8  19   -1.07    2.20
  -5  -8  19   -0.38    2.10
  -4  -8  19   17.55    3.87
  -3  -8  19   24.86    4.48
  -2  -8  19   19.85    4.22
  -1  -8  19   -0.52    1.97
  -1  -8  19    1.71    3.94
   0  -8  19    0.43    4.22
   0  -8  19    1.83    2.44
   1  -8  19    8.57    3.33
   1  -8  19    7.67    4.79
   2  -8  19    0.94    2.46
   3  -8  19   11.66    3.76
  -3   8 -19    9.21    4.18
  -3   8 -19    3.61    3.26
  -4   8 -19    2.66    2.38
   4  -8  19    5.57    2.84
  -4   8 -19    0.81    1.97
  -5   8 -19    1.77    2.96
  -5   8 -19    1.69    2.31
 -11  -7  19   -1.52    1.42
 -10  -7  19    1.15    1.19
  -9  -7  19   -1.06    1.79
  -8  -7  19    7.00    3.05
  -7  -7  19    9.99    3.22
  -6  -7  19    1.55    2.28
  -5  -7  19   18.17    3.90
  -4  -7  19    2.42    2.50
  -3  -7  19    0.12    3.52
  -3  -7  19    1.10    2.24
  -2  -7  19    6.67    3.90
  -2  -7  19   10.62    3.35
  -1  -7  19   11.82    3.32
  -1  -7  19    3.08    4.03
   0  -7  19   19.99    5.22
   0  -7  19   22.69    4.27
   1  -7  19   36.30    5.23
   1  -7  19   41.27    6.45
   2  -7  19    8.06    3.23
   2  -7  19    4.89    4.78
   3  -7  19    2.19    4.42
   3  -7  19    0.22    2.86
  -4   7 -19   -1.57    1.78
  -4   7 -19    1.28    1.94
  -5   7 -19    0.27    2.73
  -5   7 -19    3.76    2.58
 -12  -6  19   -1.84    1.43
 -11  -6  19   -1.97    1.01
 -10  -6  19    7.07    3.15
  -9  -6  19    8.88    3.43
  -8  -6  19    0.76    2.38
  -7  -6  19    0.69    2.41
  -6  -6  19   14.02    3.51
  -5  -6  19    3.51    2.33
  -4  -6  19    9.77    3.27
  -4  -6  19    5.08    3.72
  -3  -6  19   -0.23    1.88
  -3  -6  19   -3.64    3.52
  -2  -6  19   12.89    4.74
  -2  -6  19    9.31    3.13
  -1  -6  19   19.30    3.81
  -1  -6  19   15.26    4.96
   0  -6  19    9.14    4.44
   0  -6  19    1.00    2.46
   1  -6  19    0.20    4.10
   1  -6  19    5.13    3.05
   2  -6  19    2.79    2.88
   2  -6  19    1.96    4.18
   3  -6  19   10.54    5.01
   3  -6  19   17.39    4.14
   4  -6  19   -0.63    4.27
 -13  -5  19   -3.56    1.27
 -11  -5  19    3.54    2.81
 -10  -5  19    0.72    2.19
  -9  -5  19    2.74    2.43
  -8  -5  19   19.86    4.07
  -7  -5  19   17.93    3.75
  -6  -5  19    5.06    2.52
  -5  -5  19   24.76    4.95
  -5  -5  19   30.96    4.43
  -4  -5  19    0.75    3.23
  -4  -5  19    0.67    1.84
  -3  -5  19    1.61    2.32
  -3  -5  19    4.73    3.78
  -2  -5  19   16.37    3.52
  -2  -5  19   16.85    4.79
  -1  -5  19   26.45    5.47
  -1  -5  19   27.02    4.30
   0  -5  19   19.43    5.48
   0  -5  19   12.45    3.43
   1  -5  19   45.78    6.73
   1  -5  19   31.44    4.76
   2  -5  19    4.74    4.38
   2  -5  19    8.09    3.32
   3  -5  19   -3.03    3.70
   4  -5  19   -1.13    4.26
   5  -5  19   13.99    5.78
 -14  -4  19   10.29    4.08
 -13  -4  19    6.13    2.89
 -12  -4  19   11.40    3.65
 -11  -4  19   14.70    3.73
 -10  -4  19   37.14    5.25
  -9  -4  19    4.41    2.67
  -8  -4  19    9.47    3.13
  -7  -4  19    0.80    2.17
  -6  -4  19    2.19    3.45
  -6  -4  19    0.71    2.04
  -5  -4  19   -0.29    3.27
  -5  -4  19   -3.31    1.56
  -4  -4  19   26.91    4.09
  -4  -4  19   20.71    4.85
  -3  -4  19    5.69    3.77
  -3  -4  19    7.32    2.58
  -2  -4  19   60.23    5.35
  -2  -4  19   45.34    6.24
  -1  -4  19   -0.61    3.55
  -1  -4  19   -0.97    2.07
   0  -4  19   42.76    5.03
   0  -4  19   30.86    5.86
   1  -4  19    4.22    4.49
   1  -4  19    2.33    2.53
   2  -4  19    1.91    2.82
   2  -4  19   -0.33    4.04
   3  -4  19    3.52    4.59
   4  -4  19   38.38    6.75
   5  -4  19   -2.18    1.74
 -14  -3  19   -1.26    2.15
 -13  -3  19   19.19    4.15
 -12  -3  19   16.80    4.03
 -11  -3  19   46.55    5.71
 -10  -3  19    2.00    2.20
  -9  -3  19   -1.74    2.06
  -8  -3  19    2.46    2.27
  -7  -3  19   33.88    5.19
  -7  -3  19   38.14    4.64
  -6  -3  19    5.23    2.48
  -6  -3  19   10.16    3.93
  -5  -3  19   25.07    3.86
  -5  -3  19   22.93    4.72
  -4  -3  19    6.65    3.87
  -4  -3  19    6.40    2.54
  -3  -3  19   31.62    4.33
  -3  -3  19   37.38    5.72
  -2  -3  19   22.32    5.14
  -2  -3  19   26.71    3.95
  -1  -3  19    9.58    4.30
  -1  -3  19   10.02    2.93
   0  -3  19   20.36    5.29
   0  -3  19   24.22    3.94
   1  -3  19    5.99    4.37
   2  -3  19    8.76    4.79
   3  -3  19   16.85    5.62
   4  -3  19   -0.39    1.37
   5  -3  19    0.06    1.94
 -15  -2  19   -2.33    2.58
 -14  -2  19    8.34    3.07
 -13  -2  19    5.13    2.85
 -12  -2  19   20.16    4.25
 -11  -2  19    2.49    2.34
 -10  -2  19   10.27    3.13
  -9  -2  19    0.74    2.47
  -8  -2  19   34.26    4.49
  -8  -2  19   26.46    4.85
  -7  -2  19    4.80    3.50
  -7  -2  19    3.25    1.99
  -6  -2  19   35.50    4.21
  -6  -2  19   28.85    5.10
  -5  -2  19    2.11    1.95
  -5  -2  19    3.78    3.53
  -4  -2  19   32.47    5.51
  -4  -2  19   24.24    3.64
  -3  -2  19    4.69    3.96
  -3  -2  19    7.23    2.48
  -2  -2  19    2.66    3.66
  -1  -2  19   -2.38    3.45
   0  -2  19   15.74    5.11
   1  -2  19    0.81    3.79
   2  -2  19    1.19    4.10
   3  -2  19   -1.19    3.20
   4  -2  19   -0.36    1.58
   5  -2  19    0.05    2.06
 -16  -1  19    0.31    3.40
 -15  -1  19    1.12    2.13
 -14  -1  19   -0.57    2.36
 -13  -1  19    9.96    3.35
 -12  -1  19    2.17    2.59
 -11  -1  19    1.10    1.96
 -10  -1  19    3.71    2.42
  -9  -1  19   32.16    4.33
  -9  -1  19   30.32    5.03
  -8  -1  19    3.45    2.15
  -8  -1  19   -0.90    3.04
  -7  -1  19   32.91    5.39
  -7  -1  19   27.88    3.83
  -6  -1  19   16.20    4.40
  -5  -1  19   36.27    5.82
  -4  -1  19    5.79    4.10
  -3  -1  19   -3.92    3.44
  -2  -1  19   22.67    5.29
  -1  -1  19   19.13    5.11
   0  -1  19   20.23    5.36
   1  -1  19   10.36    4.75
   2  -1  19   -1.32    3.60
   3  -1  19    1.83    3.56
   4  -1  19   -2.73    1.30
   5  -1  19    1.20    2.49
 -16   0  19    3.72    3.43
 -15   0  19    1.26    2.84
 -14   0  19    5.69    2.97
 -13   0  19   -0.17    2.31
 -12   0  19    1.18    2.30
 -11   0  19   -1.05    2.05
  -9   0  19    7.29    3.74
  -8   0  19   89.74    7.45
  -7   0  19   -1.92    3.19
  -6   0  19    2.98    3.61
  -5   0  19   13.37    4.40
  -4   0  19   -2.41    3.30
  -3   0  19    6.24    4.06
  -2   0  19   44.09    6.60
  -1   0  19    8.13    4.26
   0   0  19   32.25    6.12
   1   0  19    3.60    4.02
   2   0  19    0.69    3.99
   3   0  19    1.28    2.72
   4   0  19    0.61    1.86
 -16   1  19   -0.36    1.92
 -10   1  19    2.93    3.46
  -9   1  19   16.78    4.69
  -8   1  19   15.79    4.74
  -7   1  19    4.30    3.59
  -6   1  19   84.92    7.74
  -5   1  19    2.39    3.79
  -4   1  19    2.85    3.56
  -3   1  19   51.86    6.85
  -2   1  19    3.19    3.81
  -1   1  19   26.67    5.78
   0   1  19    3.39    3.98
   1   1  19    1.41    3.92
   2   1  19    4.88    4.12
   3   1  19   -0.59    1.61
   4   1  19   -1.28    2.15
 -11   2  19   -5.69    3.13
 -10   2  19    7.46    3.83
  -9   2  19    4.55    3.59
  -8   2  19    4.20    3.82
  -7   2  19   31.59    5.64
  -6   2  19   51.84    6.52
  -5   2  19   -1.24    3.33
  -4   2  19    6.05    4.35
  -3   2  19    6.05    4.05
  -2   2  19   29.84    6.04
  -1   2  19   -0.35    3.76
   0   2  19    1.82    3.44
   1   2  19   10.59    4.73
   2   2  19    2.18    3.59
   3   2  19   -1.26    1.52
   4   2  19   -0.07    2.10
 -12   3  19   -0.18    3.49
 -11   3  19   10.14    4.33
 -10   3  19    5.80    3.84
  -9   3  19   30.04    5.94
  -8   3  19    3.93    3.81
  -7   3  19   10.71    4.53
  -6   3  19   32.78    5.98
  -5   3  19   28.76    5.61
  -4   3  19   -0.84    3.56
  -3   3  19   15.14    4.86
  -2   3  19   -4.21    3.15
  -1   3  19   -0.77    3.54
   0   3  19   13.92    5.15
   1   3  19    3.50    4.14
   2   3  19    0.12    1.85
   3   3  19   -1.29    1.89
 -13   4  19   -0.69    3.35
 -12   4  19   24.33    5.44
 -11   4  19    3.15    3.98
 -10   4  19   21.10    5.12
  -9   4  19   10.97    4.33
  -8   4  19   18.15    4.91
  -7   4  19   19.29    5.18
  -6   4  19   22.46    5.24
  -5   4  19    0.82    3.63
  -4   4  19    0.91    3.81
  -3   4  19   -1.89    3.52
  -2   4  19    4.27    3.91
  -1   4  19   15.60    5.18
   1   4  19   -0.58    2.37
   2   4  19    0.87    1.98
   3   4  19   -3.06    4.73
 -14   5  19   -7.71    3.56
 -13   5  19    2.45    4.04
 -12   5  19    7.46    4.00
 -11   5  19   21.47    5.21
 -10   5  19   51.82    6.78
  -9   5  19   48.41    6.73
  -8   5  19   15.16    5.04
  -7   5  19   83.46    8.27
  -6   5  19   -0.43    3.56
  -5   5  19   28.06    5.77
  -4   5  19   16.01    5.01
  -3   5  19   11.93    4.79
  -2   5  19    1.79    4.11
  -1   5  19   11.05    4.87
   0   5  19   -2.44    2.71
   1   5  19    0.48    1.75
   2   5  19   -3.35    4.07
 -15   6  19    3.40    4.64
 -14   6  19   33.70    6.47
 -13   6  19   13.04    5.13
 -12   6  19   24.45    5.77
 -11   6  19    5.75    4.34
 -10   6  19   26.92    5.82
  -9   6  19    9.21    4.56
  -8   6  19   -2.70    3.20
  -7   6  19   11.77    4.69
  -6   6  19   50.04    7.06
  -5   6  19    4.36    4.08
  -4   6  19   13.81    4.99
  -3   6  19    8.10    4.73
  -2   6  19    9.45    4.88
  -1   6  19   -1.23    2.82
   0   6  19    0.15    1.77
   1   6  19    1.69    4.42
 -16   7  19   36.21    7.30
 -15   7  19   11.08    5.36
 -14   7  19   -1.26    4.04
 -13   7  19   15.31    5.36
 -12   7  19    7.10    4.66
 -11   7  19    3.64    4.08
 -10   7  19    2.13    3.84
  -9   7  19   -1.39    3.50
  -8   7  19    3.96    4.12
  -7   7  19   44.56    7.06
  -6   7  19    5.58    4.32
  -5   7  19    9.57    4.77
  -3   7  19   -0.20    3.66
  -2   7  19   -1.34    2.41
  -1   7  19    0.57    1.66
   0   7  19    5.90    4.68
   1   7  19    3.03    4.92
 -16   8  19    7.29    5.54
 -15   8  19   21.74    6.52
 -14   8  19    2.20    4.72
 -13   8  19   -2.09    4.09
 -12   8  19   11.15    5.00
 -11   8  19    0.97    3.91
 -10   8  19   -1.90    3.55
  -9   8  19    9.97    4.68
  -8   8  19   27.12    5.98
  -7   8  19   -3.61    3.34
  -6   8  19    2.74    3.92
  -5   8  19    1.61    3.72
  -4   8  19   -1.77    2.60
  -3   8  19   -1.30    1.29
  -2   8  19   -0.93    1.69
  -1   8  19   -3.21    4.16
 -15   9  19    0.33    4.73
 -14   9  19   11.78    5.52
 -13   9  19    3.90    4.99
 -12   9  19    9.76    4.89
 -11   9  19   34.00    6.90
 -10   9  19    0.96    3.64
  -9   9  19    7.13    4.52
  -8   9  19   -0.96    1.92
  -7   9  19   -0.71    1.85
  -6   9  19    2.67    1.58
  -5   9  19    0.82    1.56
  -4   9  19    2.10    1.88
  -3   9  19    1.61    1.72
  -2   9  19    9.76    5.60
 -13  10  19   39.78    7.34
 -12  10  19   68.40    8.70
 -11  10  19    7.87    5.12
 -10  10  19    0.04    4.22
  -9  10  19    1.02    1.54
  -8  10  19    2.11    1.71
  -7  10  19    0.81    1.73
  -6  10  19    0.24    1.61
  -5  10  19    0.79    1.90
  -4  10  19   -1.10    1.73
  -9  11  19    1.84    1.76
  -8  11  19    1.01    1.90
  -7  11  19    1.83    1.94
  -2  11 -20    0.34    4.11
  -2  11 -20    0.34    5.76
  -5 -10  20   -0.53    1.36
  -4 -10  20    0.74    1.34
  -3 -10  20   -1.49    1.00
  -2 -10  20    0.31    1.34
  -1 -10  20    1.13    1.25
   0 -10  20    0.90    1.46
   1 -10  20    1.47    1.75
  -1  10 -20    9.73    4.00
  -1  10 -20    3.68    4.46
   2 -10  20   -0.03    1.67
  -2  10 -20    0.39    3.60
  -2  10 -20   -0.36    4.88
  -3  10 -20    3.62    4.67
  -3  10 -20    8.42    6.36
  -7  -9  20   -0.24    1.30
  -6  -9  20   -0.58    1.08
  -5  -9  20    3.27    1.16
  -4  -9  20   -1.11    1.11
  -3  -9  20   -0.46    1.49
  -2  -9  20    1.35    1.92
  -1  -9  20   10.28    2.81
   0   9 -20   10.99    5.04
   0   9 -20    4.49    4.58
   0  -9  20    2.11    2.15
  -1   9 -20    6.96    4.67
   1  -9  20    2.76    2.72
  -1   9 -20   15.34    5.10
  -2   9 -20    9.08    4.37
   2  -9  20    0.30    2.80
  -2   9 -20   -0.06    4.21
   3  -9  20    3.78    3.92
  -3   9 -20   11.05    5.11
  -3   9 -20   -0.86    6.43
  -9  -8  20    0.20    1.27
  -8  -8  20   -1.21    1.23
  -7  -8  20    0.64    1.12
  -6  -8  20   -0.61    1.49
  -5  -8  20    0.95    2.23
  -4  -8  20   10.71    3.47
  -3  -8  20    2.40    2.61
  -2  -8  20   11.78    3.59
  -1  -8  20   -3.98    3.93
  -1  -8  20    2.19    2.56
   0  -8  20   -4.85    3.87
   0  -8  20   -0.45    2.20
   1  -8  20    5.65    4.71
   1  -8  20    1.39    3.03
   3  -8  20    0.41    2.88
  -3   8 -20    0.51    2.51
  -3   8 -20    6.30    2.95
 -10  -7  20   -0.99    1.41
  -9  -7  20   -2.14    1.06
  -8  -7  20    2.40    2.04
  -7  -7  20    0.35    2.33
  -6  -7  20    3.53    2.77
  -5  -7  20   12.21    3.48
  -4  -7  20    7.86    3.02
  -3  -7  20    3.60    2.43
  -2  -7  20   -0.02    2.40
  -2  -7  20   -0.64    3.49
  -1  -7  20   14.83    4.90
  -1  -7  20   18.22    3.86
   0  -7  20    4.38    4.52
   0  -7  20   15.08    3.81
   1  -7  20   42.39    6.72
   1  -7  20   33.97    5.30
   2  -7  20    5.20    4.84
   2  -7  20    4.15    3.29
   3  -7  20    8.10    3.53
   3  -7  20   16.52    5.92
 -11  -6  20   -3.03    1.85
 -10  -6  20    8.33    2.67
  -9  -6  20   17.10    3.99
  -8  -6  20    1.65    2.53
  -7  -6  20   11.37    3.21
  -6  -6  20   -4.82    1.78
  -5  -6  20    3.05    2.37
  -4  -6  20    1.20    2.29
  -3  -6  20   -1.57    3.51
  -3  -6  20    0.17    2.22
  -2  -6  20   24.80    5.50
  -2  -6  20   26.03    4.37
  -1  -6  20   34.93    6.16
  -1  -6  20   36.80    5.08
   0  -6  20   18.33    4.11
   0  -6  20   16.98    5.38
   1  -6  20    9.42    3.38
   1  -6  20   11.52    5.07
   2  -6  20    4.61    3.18
   2  -6  20    5.31    4.49
   3  -6  20    0.89    4.68
   4  -6  20   -0.68    4.53
 -12  -5  20   25.87    5.08
 -11  -5  20    0.20    1.86
 -10  -5  20   47.80    6.23
  -9  -5  20    0.82    2.41
  -8  -5  20    0.66    2.23
  -7  -5  20    1.23    2.27
  -6  -5  20    2.40    2.55
  -5  -5  20   -2.24    1.85
  -4  -5  20    1.91    3.37
  -4  -5  20    7.05    2.85
  -3  -5  20    4.82    2.63
  -3  -5  20    7.00    4.14
  -2  -5  20   16.01    4.95
  -2  -5  20   29.56    4.46
  -1  -5  20    6.13    3.05
  -1  -5  20    1.38    4.06
   0  -5  20   -1.02    2.15
   0  -5  20   -0.60    4.20
   1  -5  20   12.07    5.05
   1  -5  20    4.17    2.97
   2  -5  20   -0.16    2.70
   2  -5  20   -3.63    3.86
   3  -5  20   -3.40    4.09
   4  -5  20    9.41    5.50
 -13  -4  20   10.17    4.10
 -11  -4  20   14.80    3.86
 -10  -4  20   -0.40    2.34
  -9  -4  20    1.17    2.46
  -8  -4  20    8.64    3.05
  -7  -4  20   18.86    3.77
  -6  -4  20    0.91    2.12
  -5  -4  20   17.44    3.58
  -5  -4  20   17.24    4.67
  -4  -4  20    5.98    2.53
  -4  -4  20    3.83    3.68
  -3  -4  20    5.64    2.59
  -3  -4  20    2.42    3.77
  -2  -4  20   -5.97    3.05
  -2  -4  20    0.66    2.25
  -1  -4  20   -0.80    3.69
  -1  -4  20   -2.88    2.02
   0  -4  20    1.90    2.65
   0  -4  20    2.18    4.23
   1  -4  20    2.71    4.43
   2  -4  20    1.07    4.51
   3  -4  20    3.46    4.65
   4  -4  20   12.01    5.48
 -14  -3  20    5.80    3.63
 -13  -3  20   -0.03    1.75
 -12  -3  20   15.94    4.10
 -11  -3  20    0.28    2.20
 -10  -3  20    2.64    2.52
  -9  -3  20   -2.86    1.62
  -8  -3  20   12.40    3.33
  -7  -3  20    3.48    2.59
  -6  -3  20  121.81    7.35
  -6  -3  20  134.50    9.15
  -5  -3  20    6.18    4.21
  -5  -3  20    2.00    2.21
  -4  -3  20   29.69    5.48
  -4  -3  20   22.60    3.73
  -3  -3  20    7.75    2.84
  -3  -3  20    2.18    3.76
  -2  -3  20    0.20    3.79
  -1  -3  20    3.51    4.11
   0  -3  20    1.79    4.33
   1  -3  20    0.06    4.04
   2  -3  20    4.62    4.82
   3  -3  20    4.82    4.82
   4  -3  20    0.51    1.89
 -14  -2  20   -3.46    2.18
 -13  -2  20   14.17    3.91
 -12  -2  20    3.43    2.63
 -11  -2  20   -2.39    1.94
 -10  -2  20    2.28    2.51
  -9  -2  20   40.54    5.12
  -8  -2  20    0.37    1.91
  -7  -2  20   72.24    5.91
  -7  -2  20   66.54    6.97
  -6  -2  20    4.46    2.33
  -6  -2  20    6.29    4.02
  -5  -2  20   30.89    5.61
  -4  -2  20    6.02    4.00
  -3  -2  20   -2.89    3.41
  -2  -2  20   14.81    4.83
  -1  -2  20   24.28    5.76
   0  -2  20   13.96    4.95
   1  -2  20   24.57    5.92
   2  -2  20   -3.23    4.00
   3  -2  20    0.86    1.77
 -15  -1  20    3.08    2.94
 -14  -1  20   -1.74    2.10
 -13  -1  20   -1.70    2.58
 -12  -1  20    4.64    2.85
 -11  -1  20    6.75    2.95
 -10  -1  20   65.28    5.97
  -8  -1  20   73.87    7.30
  -7  -1  20    6.16    3.88
  -6  -1  20    3.65    3.58
  -5  -1  20   67.94    7.23
  -4  -1  20    0.71    3.50
  -3  -1  20    0.36    3.55
  -2  -1  20   39.00    6.35
  -1  -1  20   -2.00    3.63
   0  -1  20   20.48    5.47
   1  -1  20    1.15    4.13
   2  -1  20    0.62    1.56
   3  -1  20   -0.87    1.71
  -9   0  20   22.62    5.15
  -8   0  20    4.31    3.99
  -7   0  20    1.98    3.58
  -6   0  20    2.48    3.84
  -5   0  20   -0.38    3.36
  -4   0  20    2.26    3.76
  -3   0  20   13.31    4.86
  -2   0  20   -3.91    3.52
  -1   0  20    2.30    3.75
   0   0  20    6.38    4.71
   1   0  20   -0.58    3.07
   2   0  20   -0.88    1.37
   3   0  20   -0.05    2.17
 -10   1  20   23.15    5.12
  -9   1  20    0.42    3.33
  -8   1  20   11.68    4.41
  -7   1  20   11.97    4.68
  -6   1  20    2.35    3.81
  -5   1  20   14.02    4.58
  -4   1  20   11.09    4.72
  -3   1  20    1.56    4.08
  -2   1  20   30.70    6.13
  -1   1  20   20.68    5.65
   0   1  20    4.23    4.12
   1   1  20   -1.46    1.95
   2   1  20    0.99    1.87
   3   1  20    0.54    2.16
 -11   2  20   35.22    5.91
 -10   2  20   29.51    5.56
  -9   2  20    4.96    3.96
  -8   2  20    0.59    3.66
  -7   2  20   15.15    4.79
  -6   2  20   -3.07    3.47
  -5   2  20   19.32    5.49
  -4   2  20    5.37    4.10
  -3   2  20   38.98    6.57
  -2   2  20    9.67    4.69
  -1   2  20    1.05    3.95
   0   2  20   -0.24    3.43
   1   2  20   -0.84    1.33
   2   2  20    1.63    2.07
 -12   3  20   31.34    5.94
 -11   3  20   13.86    4.66
 -10   3  20    1.56    3.68
  -9   3  20   -1.73    3.49
  -8   3  20    2.42    4.03
  -7   3  20   27.06    5.77
  -6   3  20   14.82    4.89
  -5   3  20   13.61    4.86
  -4   3  20    1.98    3.97
  -3   3  20    0.94    3.33
  -2   3  20    7.96    4.65
  -1   3  20   -2.71    3.57
   0   3  20    2.15    1.97
   1   3  20   -0.69    1.68
   2   3  20   -0.72    2.06
 -13   4  20    3.65    4.07
 -12   4  20   -2.34    3.80
 -11   4  20    1.08    3.91
 -10   4  20    6.80    4.44
  -9   4  20   13.51    4.91
  -8   4  20    0.30    3.65
  -7   4  20    1.71    3.88
  -6   4  20    6.21    3.99
  -5   4  20    4.75    4.07
  -4   4  20    4.09    4.26
  -3   4  20    6.79    4.36
  -2   4  20    0.36    3.86
  -1   4  20   -0.44    2.14
   0   4  20    0.36    1.78
   1   4  20   -1.52    1.68
 -14   5  20   13.67    5.23
 -13   5  20    3.99    4.31
 -12   5  20   -3.08    3.44
 -11   5  20   18.48    5.58
 -10   5  20   29.71    6.13
  -9   5  20   11.80    4.84
  -8   5  20    0.55    3.72
  -7   5  20    2.72    4.16
  -6   5  20   -1.03    3.90
  -5   5  20    1.40    3.85
  -4   5  20    3.67    4.29
  -3   5  20   -0.61    3.82
  -2   5  20    0.01    2.18
  -1   5  20    2.15    1.91
   0   5  20    0.16    2.04
 -15   6  20    1.92    5.13
 -14   6  20   -1.34    4.04
 -13   6  20   22.39    6.01
 -12   6  20   -0.71    3.89
 -11   6  20   13.63    5.11
 -10   6  20    0.97    3.92
  -9   6  20    6.27    4.35
  -8   6  20   18.97    5.50
  -7   6  20   38.78    6.88
  -6   6  20    4.77    4.38
  -5   6  20    0.26    3.64
  -4   6  20   -0.16    3.26
  -3   6  20   -0.63    1.60
  -2   6  20    0.72    1.68
  -1   6  20    1.15    2.23
 -16   7  20   12.41    8.26
 -15   7  20   15.83    5.93
 -14   7  20   10.85    5.73
 -13   7  20    3.33    4.53
 -12   7  20    4.52    4.68
 -11   7  20    6.16    4.28
 -10   7  20    2.05    4.01
  -9   7  20   15.13    5.29
  -8   7  20   62.10    7.98
  -7   7  20    3.20    4.29
  -6   7  20    2.97    3.16
  -5   7  20    1.14    1.66
  -4   7  20    3.45    1.64
  -3   7  20    0.94    1.82
  -2   7  20    1.81    2.09
 -15   8  20    0.73    4.51
 -14   8  20   -5.25    4.24
 -13   8  20    3.83    5.12
 -12   8  20    4.18    4.33
 -11   8  20    5.93    4.48
 -10   8  20   66.93    8.34
  -9   8  20   17.30    5.64
  -8   8  20    0.24    4.05
  -7   8  20    1.13    1.46
  -6   8  20    0.36    1.58
  -5   8  20    0.65    1.66
  -4   8  20    1.23    1.91
  -3   8  20   -1.64    2.13
 -13   9  20    3.88    4.77
 -12   9  20    4.80    4.52
 -11   9  20   21.21    6.26
 -10   9  20    0.68    4.22
  -9   9  20    3.60    4.55
  -8   9  20   -0.58    1.52
  -7   9  20    0.93    1.79
  -6   9  20   -0.37    1.91
  -5   9  20    0.28    2.12
  -1  10 -21    5.20    6.00
  -1  10 -21   18.88    5.80
  -6  -9  21   -0.36    1.52
  -5  -9  21    1.38    1.60
  -4  -9  21   -1.96    1.17
  -3  -9  21   -2.32    2.53
  -2  -9  21   10.10    3.60
  -1  -9  21    2.40    2.88
   0   9 -21    0.42    3.76
   0  -9  21    3.66    3.54
  -1   9 -21   -4.82    4.96
  -1   9 -21    6.79    4.85
   1  -9  21   -0.21    3.52
  -8  -8  21   -1.06    1.32
  -7  -8  21    2.57    2.16
  -6  -8  21   23.05    4.81
  -5  -8  21    2.79    2.45
  -4  -8  21    0.87    2.12
  -3  -8  21    4.11    2.50
  -2  -8  21    0.13    2.05
  -1  -8  21   -0.35    4.82
   0  -8  21   12.69    5.60
   1  -8  21    0.76    2.88
  -2   8 -21    8.98    7.14
   2  -8  21    6.72    3.71
  -2   8 -21   16.60    5.57
   3  -8  21   -0.67    3.85
  -9  -7  21   32.25    5.69
  -8  -7  21    8.59    3.37
  -7  -7  21    9.96    3.26
  -6  -7  21    1.74    2.55
  -5  -7  21    6.87    3.25
  -4  -7  21    4.26    2.81
  -3  -7  21   17.57    3.93
  -2  -7  21    0.47    4.19
  -2  -7  21    1.73    2.47
  -1  -7  21    6.19    3.15
  -1  -7  21    8.08    4.75
   0  -7  21    3.22    2.62
   0  -7  21    0.08    4.29
   1  -7  21    1.50    2.67
   1  -7  21   -0.09    4.63
   2  -7  21    9.75    3.42
   2  -7  21    6.46    5.29
   3  -7  21    1.57    3.78
 -10  -6  21   39.75    6.05
  -9  -6  21    3.36    2.38
  -8  -6  21   15.01    3.77
  -7  -6  21    0.71    2.73
  -6  -6  21    1.53    2.36
  -5  -6  21   15.73    3.83
  -4  -6  21    1.38    2.37
  -3  -6  21    1.23    4.22
  -3  -6  21   -0.98    2.05
  -2  -6  21   13.34    3.63
  -2  -6  21    8.71    4.81
  -1  -6  21    6.54    4.60
  -1  -6  21    4.88    2.92
   0  -6  21    2.76    4.72
   0  -6  21    3.74    3.11
   1  -6  21    0.46    4.53
   1  -6  21    1.49    2.80
   2  -6  21    2.93    4.76
   2  -6  21    2.22    3.10
 -11  -5  21   30.13    5.26
 -10  -5  21    1.50    2.54
  -9  -5  21    2.46    2.94
  -8  -5  21    0.92    2.47
  -7  -5  21    0.29    2.16
  -6  -5  21   -1.21    2.21
  -5  -5  21    9.77    3.21
  -4  -5  21    2.52    2.57
  -4  -5  21    6.05    4.27
  -3  -5  21    7.16    2.91
  -3  -5  21    7.99    4.55
  -2  -5  21    1.58    4.03
  -2  -5  21    2.40    2.59
  -1  -5  21    1.28    4.48
  -1  -5  21    2.04    2.70
   0  -5  21   -1.27    2.22
   0  -5  21    0.71    4.34
   1  -5  21    2.50    4.58
   2  -5  21    7.27    4.78
 -12  -4  21   30.88    5.26
 -11  -4  21    5.90    2.68
 -10  -4  21    7.94    3.21
  -9  -4  21    5.22    2.91
  -8  -4  21    5.95    2.68
  -7  -4  21    3.16    2.58
  -6  -4  21   51.16    5.53
  -5  -4  21   10.30    2.90
  -5  -4  21    3.20    4.07
  -4  -4  21   46.34    6.36
  -4  -4  21   47.86    5.33
  -3  -4  21    0.06    2.21
  -3  -4  21   -0.56    3.65
  -2  -4  21    2.05    4.13
  -1  -4  21    3.91    4.54
   0  -4  21    3.90    4.67
   1  -4  21   -1.01    4.33
   2  -4  21    6.52    5.02
 -13  -3  21    8.79    3.63
 -12  -3  21    0.79    2.18
 -11  -3  21    5.24    2.91
 -10  -3  21    3.07    2.67
  -9  -3  21   29.09    4.69
  -8  -3  21   -0.09    2.07
  -7  -3  21   75.82    6.41
  -6  -3  21   10.74    4.25
  -6  -3  21    5.01    2.72
  -5  -3  21   48.53    6.55
  -4  -3  21   -0.88    3.71
  -3  -3  21    4.87    4.19
  -2  -3  21    6.55    4.62
  -1  -3  21   40.34    6.70
   0  -3  21    2.83    4.23
   1  -3  21   17.63    5.59
   2  -3  21    5.71    5.04
 -14  -2  21    4.40    3.33
 -13  -2  21    1.44    2.19
 -12  -2  21    3.16    2.61
 -11  -2  21   -1.24    2.22
 -10  -2  21   17.64    4.03
  -7  -2  21    4.82    3.79
  -6  -2  21    4.38    4.02
  -5  -2  21    3.00    4.04
  -4  -2  21    3.28    4.27
  -3  -2  21    3.30    4.10
  -2  -2  21   18.14    5.49
  -1  -2  21    1.73    4.22
   0  -2  21   32.17    6.63
   1  -2  21    2.24    4.38
   2  -2  21   21.10    6.20
  -8  -1  21   -4.72    3.29
  -7  -1  21    7.84    4.20
  -6  -1  21    9.56    4.75
  -5  -1  21   -0.92    3.55
  -4  -1  21    1.57    3.92
  -3  -1  21    0.28    3.92
  -2  -1  21    8.58    4.67
  -1  -1  21   53.69    7.61
   0  -1  21   -1.76    4.01
   1  -1  21   -0.43    4.22
   2  -1  21    0.00    2.06
  -9   0  21   -2.05    3.36
  -8   0  21    2.84    3.69
  -7   0  21    4.11    4.09
  -6   0  21    8.56    4.43
  -5   0  21   47.44    6.99
  -4   0  21    5.72    4.47
  -3   0  21   26.61    6.07
  -2   0  21   15.75    5.29
  -1   0  21    3.77    4.28
   0   0  21    0.34    4.35
   1   0  21    0.35    2.09
 -10   1  21   12.29    4.60
  -9   1  21    8.94    4.14
  -8   1  21    2.17    3.73
  -7   1  21   79.75    8.18
  -6   1  21    2.57    4.23
  -5   1  21    6.20    4.43
  -4   1  21   22.93    5.96
  -3   1  21   14.36    5.40
  -2   1  21   -4.87    3.55
  -1   1  21   13.39    5.45
   0   1  21   -3.27    1.39
   1   1  21   -1.69    1.82
 -11   2  21    6.47    4.55
 -10   2  21   -2.33    3.74
  -9   2  21    1.98    3.80
  -8   2  21    6.98    4.16
  -7   2  21    4.36    4.23
  -6   2  21   27.30    6.06
  -5   2  21    2.38    3.94
  -4   2  21   10.08    4.92
  -3   2  21    1.73    4.23
  -2   2  21    0.12    4.25
  -1   2  21    0.33    1.49
   0   2  21   -0.10    1.84
 -12   3  21    6.13    4.72
 -11   3  21    2.13    3.96
 -10   3  21    7.59    4.59
  -9   3  21    8.99    4.73
  -8   3  21    4.05    4.26
  -7   3  21   38.04    6.36
  -6   3  21    6.26    4.47
  -5   3  21    3.67    4.45
  -4   3  21   12.74    5.11
  -3   3  21   10.86    5.12
  -2   3  21   -0.75    1.59
  -1   3  21    0.60    1.91
   0   3  21   -2.86    1.91
 -13   4  21    5.21    4.90
 -12   4  21   -0.08    4.13
 -11   4  21    0.34    4.17
 -10   4  21    0.94    4.02
  -9   4  21   -4.98    3.41
  -8   4  21   -2.75    3.65
  -7   4  21   40.83    6.84
  -6   4  21    2.49    4.19
  -5   4  21   -3.75    3.84
  -4   4  21   10.89    4.98
  -3   4  21   -0.30    1.52
  -2   4  21   -1.01    1.68
  -1   4  21   -0.22    2.01
 -14   5  21    7.82    5.36
 -13   5  21   19.04    5.61
 -12   5  21    9.61    4.82
 -11   5  21    6.91    4.67
 -10   5  21   11.68    5.32
  -9   5  21   18.69    5.64
  -8   5  21    4.75    4.35
  -7   5  21    4.14    4.52
  -6   5  21    7.79    4.66
  -5   5  21   37.52    6.97
  -4   5  21   -0.74    1.42
  -3   5  21   -1.63    1.43
  -2   5  21    0.58    2.01
 -15   6  21   17.36    7.51
 -14   6  21    6.94    5.01
 -13   6  21    8.21    4.89
 -12   6  21   -0.88    4.22
 -11   6  21   -1.73    4.12
 -10   6  21    8.57    5.04
  -9   6  21    0.07    4.12
  -8   6  21   33.50    6.76
  -7   6  21    3.72    4.71
  -6   6  21   17.73    5.76
  -5   6  21    0.46    1.68
  -4   6  21   -0.54    1.91
  -3   6  21    0.50    2.00
 -14   7  21    4.47    4.88
 -13   7  21    5.63    4.92
 -12   7  21    1.94    4.65
 -11   7  21    5.96    4.78
 -10   7  21   62.96    8.25
  -9   7  21   53.58    7.89
  -8   7  21   -1.24    4.38
  -7   7  21   60.33    8.45
  -6   7  21    2.06    2.10
  -5   7  21    0.52    1.86
 -11   8  21   35.08    6.89
 -10   8  21    7.58    4.82
  -9   8  21   32.15    6.77
  -8   8  21   50.27    7.84
  -7   8  21    0.68    1.85
  -6  -8  22    2.83    3.42
  -5  -8  22    4.42    3.30
  -4  -8  22   -0.27    2.72
  -3  -8  22    1.48    2.90
  -2  -8  22   -0.23    2.31
  -1  -8  22   -2.53    5.47
  -1  -8  22   -2.20    2.91
   0  -8  22   11.77    4.93
   0  -8  22    7.76    5.70
  -8  -7  22    4.97    3.88
  -7  -7  22   -0.95    2.47
  -6  -7  22   -0.28    3.08
  -5  -7  22   -0.88    1.84
  -4  -7  22    3.33    2.06
  -3  -7  22   10.31    2.94
  -2  -7  22    6.06    4.95
  -2  -7  22   10.39    2.80
  -1  -7  22    9.70    3.55
  -1  -7  22   10.14    5.34
   0  -7  22    6.19    5.35
   0  -7  22    5.27    3.30
   1  -7  22    8.10    3.94
  -9  -6  22   28.47    5.30
  -8  -6  22    3.48    2.72
  -7  -6  22    4.54    2.62
  -6  -6  22    3.06    2.52
  -5  -6  22    4.51    2.77
  -4  -6  22    0.75    2.41
  -3  -6  22    9.51    3.47
  -3  -6  22    7.40    5.36
  -2  -6  22    5.63    5.30
  -2  -6  22    3.87    3.10
  -1  -6  22    7.90    3.61
  -1  -6  22    4.57    4.84
   0  -6  22   -5.30    4.07
   0  -6  22    3.11    2.82
 -10  -5  22   35.58    5.80
  -9  -5  22   -3.47    1.73
  -8  -5  22   -3.74    2.02
  -7  -5  22    0.70    2.40
  -6  -5  22    7.28    3.26
  -5  -5  22    6.77    2.84
  -4  -5  22    6.52    3.09
  -4  -5  22   11.69    5.17
  -3  -5  22    3.73    2.50
  -3  -5  22   -2.39    4.23
  -2  -5  22   -2.14    4.55
  -1  -5  22    1.13    4.94
   0  -5  22    3.47    4.96
 -12  -4  22   -1.47    2.94
 -11  -4  22    1.36    2.82
 -10  -4  22    9.90    3.04
  -9  -4  22    1.04    2.56
  -8  -4  22    1.15    2.61
  -7  -4  22   -0.56    2.31
  -6  -4  22    3.47    2.60
  -5  -4  22   21.39    5.61
  -4  -4  22    6.77    4.55
  -3  -4  22    0.84    4.07
  -2  -4  22    9.86    5.09
  -1  -4  22   15.40    5.78
   0  -4  22    4.38    5.05
 -12  -3  22    4.99    3.02
 -11  -3  22    3.25    2.80
 -10  -3  22   25.95    4.63
  -6  -3  22   21.89    5.67
  -5  -3  22    3.83    4.37
  -4  -3  22   16.33    5.36
  -3  -3  22    2.80    4.26
  -2  -3  22   18.00    5.98
  -1  -3  22    8.04    5.10
   0  -3  22    7.11    5.11
  -7  -2  22    0.98    4.51
  -6  -2  22   -5.00    3.60
  -5  -2  22    4.29    4.56
  -4  -2  22   -0.17    3.97
  -3  -2  22   23.74    6.01
  -2  -2  22   -1.04    4.59
  -1  -2  22   42.68    7.20
   0  -2  22    3.85    4.79
  -8  -1  22    0.87    4.14
  -7  -1  22   -1.95    4.12
  -6  -1  22   33.67    6.26
  -5  -1  22    2.47    4.24
  -4  -1  22   33.63    6.57
  -3  -1  22   17.02    5.38
  -2  -1  22   14.03    5.27
  -1  -1  22    4.26    4.44
   0  -1  22   -1.95    4.27
  -9   0  22   14.85    4.98
  -8   0  22    3.74    4.47
  -7   0  22   15.67    5.12
  -6   0  22    5.22    4.58
  -5   0  22   12.67    5.10
  -4   0  22   17.24    5.82
  -3   0  22    3.31    4.18
  -2   0  22    3.58    4.59
  -1   0  22    3.55    4.86
 -10   1  22    3.23    4.09
  -9   1  22    1.57    4.07
  -8   1  22   46.28    6.95
  -7   1  22   10.03    5.04
  -6   1  22   17.79    5.47
  -5   1  22    3.91    4.82
  -4   1  22   10.81    5.02
  -3   1  22   -4.30    4.11
  -2   1  22    2.19    4.65
  -1   1  22    1.16    4.52
 -11   2  22    6.81    5.00
 -10   2  22    2.89    4.21
  -9   2  22   21.75    5.71
  -8   2  22   -1.14    4.10
  -7   2  22   67.94    8.31
  -6   2  22   10.36    4.99
  -5   2  22    7.57    4.63
  -4   2  22    3.56    4.75
  -3   2  22   13.65    5.41
  -2   2  22   -3.78    4.18
 -12   3  22    4.05    4.82
 -11   3  22   25.35    6.34
 -10   3  22    2.63    4.54
  -9   3  22   31.89    6.61
  -8   3  22   31.00    6.50
  -7   3  22    1.75    4.36
  -6   3  22   11.90    5.46
  -5   3  22    2.21    4.22
  -4   3  22   12.62    5.30
  -3   3  22   20.07    6.34
  -2   3  22   -3.00    1.71
 -13   4  22   22.29    6.55
 -12   4  22    9.86    5.29
 -11   4  22    4.97    4.82
 -10   4  22    8.36    5.06
  -9   4  22    4.28    4.66
  -8   4  22   -1.30    4.09
  -7   4  22    3.56    4.56
  -6   4  22    1.52    4.53
  -5   4  22   48.93    7.75
  -4   4  22    5.44    4.82
  -3   4  22   -0.55    2.02
 -14   5  22   29.32    8.38
 -13   5  22    3.18    4.88
 -12   5  22   15.33    6.01
 -11   5  22    5.19    4.72
 -10   5  22    6.26    5.02
  -9   5  22   -1.70    4.37
  -8   5  22   -3.72    3.73
  -7   5  22    1.75    4.34
  -6   5  22   11.20    5.30
  -5   5  22    4.87    4.76
 -13   6  22   20.22    6.15
 -12   6  22   -0.80    4.56
 -11   6  22   -5.29    3.97
 -10   6  22   10.03    5.25
  -9   6  22   -1.28    3.98
  -8   6  22   -1.38    4.25
  -7   6  22   13.55    5.40
  -6   6  22   -1.23    4.18
  -6  -7  23    0.96    3.17
  -5  -7  23   -0.50    3.00
  -4  -7  23    4.80    3.46
  -3  -7  23    0.46    3.21
  -2  -7  23    2.70    3.61
  -2  -7  23    5.40    6.14
  -8  -6  23    1.64    3.30
  -7  -6  23    9.09    3.81
  -6  -6  23    4.99    3.09
  -5  -6  23   -0.25    2.37
  -4  -6  23    3.21    2.09
  -3  -6  23    3.35    5.49
  -3  -6  23   10.14    3.40
  -2  -6  23   -0.43    5.21
  -9  -5  23    2.99    3.13
  -8  -5  23   -4.73    2.08
  -7  -5  23    8.84    3.07
  -6  -5  23    1.94    2.34
  -4  -5  23    4.73    5.44
  -3  -5  23    3.61    5.10
  -2  -5  23  -10.64    4.49
 -10  -4  23    9.80    3.85
  -5  -4  23   -6.74    4.36
  -4  -4  23   -3.18    4.82
  -3  -4  23    1.98    5.06
  -2  -4  23   10.97    5.85
  -6  -3  23    2.18    4.61
  -5  -3  23   -3.50    4.37
  -4  -3  23    2.27    4.66
  -3  -3  23   11.25    5.48
  -2  -3  23   -3.39    4.39
  -7  -2  23   -4.61    4.41
  -6  -2  23    7.85    4.95
  -5  -2  23   -1.94    4.36
  -4  -2  23   38.13    7.07
  -3  -2  23    5.78    5.01
  -2  -2  23    2.05    4.57
  -8  -1  23    0.57    4.77
  -7  -1  23    3.69    4.86
  -6  -1  23   12.71    5.71
  -5  -1  23   30.90    6.59
  -4  -1  23    8.50    5.21
  -3  -1  23    4.17    4.82
  -2  -1  23    5.11    4.81
  -9   0  23    2.04    4.54
  -8   0  23   22.49    5.94
  -7   0  23    5.11    5.01
  -6   0  23   37.07    6.98
  -5   0  23   -2.97    4.29
  -4   0  23    8.03    5.16
  -3   0  23    0.04    4.24
 -10   1  23    8.37    5.60
  -9   1  23   38.03    7.02
  -8   1  23   -1.25    4.34
  -7   1  23   68.41    8.41
  -6   1  23    4.44    5.39
  -5   1  23    7.97    5.30
  -4   1  23   -0.50    4.37
 -11   2  23    2.43    4.96
 -10   2  23   10.03    5.67
  -9   2  23   11.29    5.64
  -8   2  23    2.05    4.62
  -7   2  23   -0.68    4.64
  -6   2  23   -0.28    4.49
  -5   2  23    1.68    4.81
  -4   2  23    3.85    4.87
 -12   3  23   17.61    6.50
 -11   3  23   12.54    5.68
 -10   3  23    4.73    4.86
  -9   3  23    6.12    5.02
  -8   3  23    9.62    5.50
  -7   3  23   -4.44    4.21
  -6   3  23   10.97    5.09
  -5   3  23   16.71    5.95
 -12   4  23   18.63    6.76
 -11   4  23    8.04    5.30
 -10   4  23    2.58    4.98
  -9   4  23   10.70    5.67
  -8   4  23   -2.66    4.03
  -7   4  23    1.72    4.66
  -5  -4  24    4.69    6.07
  -4  -4  24    4.08    5.75
  -6  -3  24    3.41    5.93
  -5  -3  24   -0.09    4.78
  -4  -3  24    4.50    5.50
  -7  -2  24    6.53    5.75
  -6  -2  24    3.18    5.32
  -5  -2  24   22.37    6.44
  -8  -1  24   12.94    6.46
  -7  -1  24    0.18    4.81
  -6  -1  24   28.01    6.78
  -5  -1  24   -1.35    4.66
  -9   0  24   12.19    6.54
  -8   0  24    2.90    4.96
  -7   0  24   13.61    5.89
  -6   0  24   -0.40    5.00
 -10   1  24   15.36    7.13
  -9   1  24   -0.43    4.69
  -8   1  24    1.66    5.11
  -7   1  24   -3.56    4.73
 -10   2  24    4.73    5.51
  -9   2  24    2.07    4.71
   0   0   0    0.00    0.00
;
_shelx_hkl_checksum              72100
loop_
_space_group_symop_operation_xyz
'x, y, z'
'-x, -y, -z'
loop_
_atom_site_label
_atom_site_type_symbol
_atom_site_fract_x
_atom_site_fract_y
_atom_site_fract_z
_atom_site_U_iso_or_equiv
_atom_site_adp_type
_atom_site_occupancy
_atom_site_site_symmetry_order
_atom_site_calc_flag
_atom_site_refinement_flags_posn
_atom_site_refinement_flags_adp
_atom_site_refinement_flags_occupancy
_atom_site_disorder_assembly
_atom_site_disorder_group
Mn1 Mn 0.18120(6) 0.15308(5) 0.17764(4) 0.0266(2) Uani 1 1 d . . . . .
Mn2 Mn 0.30740(6) 0.36910(5) 0.34411(4) 0.0235(2) Uani 1 1 d . . . . .
O1 O 0.2735(3) 0.2423(2) 0.28100(19) 0.0253(8) Uani 1 1 d . . . . .
N1 N 0.1388(3) 0.0435(3) 0.2335(2) 0.0266(10) Uani 1 1 d . . . . .
N2 N 0.2828(3) 0.1060(3) 0.1602(2) 0.0275(10) Uani 1 1 d . . . . .
N3 N 0.2025(3) 0.2404(3) 0.1003(2) 0.0276(10) Uani 1 1 d . . . . .
N4 N 0.0537(3) 0.1737(3) 0.1690(2) 0.0316(11) Uani 1 1 d . . . . .
N5 N 0.3266(3) 0.3198(3) 0.4448(2) 0.0261(10) Uani 1 1 d . . . . .
N6 N 0.4572(3) 0.4212(3) 0.3723(2) 0.0268(10) Uani 1 1 d . . . . .
N7 N 0.2964(3) 0.4484(3) 0.2602(2) 0.0284(10) Uani 1 1 d . . . . .
N8 N 0.1691(3) 0.3567(3) 0.3392(2) 0.0267(10) Uani 1 1 d . . . . .
C1 C 0.0761(4) 0.0330(3) 0.2760(3) 0.0311(13) Uani 1 1 d . . . . .
C2 C 0.0723(5) -0.0511(4) 0.3128(3) 0.0376(14) Uani 1 1 d . . . . .
C3 C 0.1296(4) -0.0911(4) 0.2899(3) 0.0349(13) Uani 1 1 d . . . . .
C4 C 0.1731(4) -0.0300(3) 0.2435(3) 0.0297(12) Uani 1 1 d . . . . .
C5 C 0.2447(4) -0.0412(3) 0.2152(3) 0.0299(12) Uani 1 1 d . . . . .
H5A H 0.2577 -0.0982 0.2218 0.036 Uiso 1 1 calc R U . . .
C6 C 0.2982(4) 0.0227(3) 0.1786(3) 0.0280(12) Uani 1 1 d . . . . .
C7 C 0.3790(4) 0.0142(4) 0.1569(3) 0.0303(12) Uani 1 1 d . . . . .
C8 C 0.4163(4) 0.0957(4) 0.1281(3) 0.0295(12) Uani 1 1 d . . . . .
C9 C 0.3554(4) 0.1506(4) 0.1292(3) 0.0280(12) Uani 1 1 d . . . . .
C10 C 0.3591(4) 0.2321(4) 0.0952(3) 0.0334(13) Uani 1 1 d . . . . .
H10A H 0.4177 0.2643 0.0836 0.040 Uiso 1 1 calc R U . . .
C11 C 0.2843(4) 0.2694(3) 0.0772(3) 0.0258(11) Uani 1 1 d . . . . .
C12 C 0.2725(4) 0.3343(4) 0.0214(3) 0.0322(13) Uani 1 1 d . . . . .
C13 C 0.1823(5) 0.3426(4) 0.0107(3) 0.0357(13) Uani 1 1 d . . . . .
C14 C 0.1396(4) 0.2857(4) 0.0606(3) 0.0309(12) Uani 1 1 d . . . . .
C15 C 0.0500(4) 0.2773(4) 0.0693(3) 0.0340(13) Uani 1 1 d . . . . .
H15A H 0.0112 0.3093 0.0372 0.041 Uiso 1 1 calc R U . . .
C16 C 0.0110(4) 0.2274(4) 0.1197(3) 0.0305(12) Uani 1 1 d . . . . .
C17 C -0.0799(4) 0.2261(4) 0.1306(3) 0.0334(13) Uani 1 1 d . . . . .
C18 C -0.0893(4) 0.1751(4) 0.1894(3) 0.0352(13) Uani 1 1 d . . . . .
C19 C -0.0037(4) 0.1443(4) 0.2154(3) 0.0305(12) Uani 1 1 d . . . . .
C20 C 0.0182(4) 0.0895(4) 0.2734(3) 0.0333(13) Uani 1 1 d . . . . .
C21 C 0.0023(5) -0.1019(4) 0.3532(4) 0.0501(18) Uani 1 1 d . . . . .
H21A H -0.0004 -0.0550 0.3898 0.060 Uiso 1 1 calc R U . . .
H21B H 0.0293 -0.1461 0.3837 0.060 Uiso 1 1 calc R U . . .
C22 C -0.1046(6) -0.1576(5) 0.2953(5) 0.076(3) Uani 1 1 d . . . . .
H22A H -0.1476 -0.1914 0.3233 0.115 Uiso 1 1 calc R U . . .
H22B H -0.1020 -0.2035 0.2585 0.115 Uiso 1 1 calc R U . . .
H22C H -0.1329 -0.1137 0.2669 0.115 Uiso 1 1 calc R U . . .
C23 C 0.1454(5) -0.1806(4) 0.3106(4) 0.0420(15) Uani 1 1 d . . . . .
H23A H 0.1609 -0.2083 0.2693 0.050 Uiso 1 1 calc R U . . .
H23B H 0.0819 -0.2269 0.3128 0.050 Uiso 1 1 calc R U . . .
C24 C 0.2309(6) -0.1647(5) 0.3881(4) 0.0588(19) Uani 1 1 d . . . . .
H24A H 0.2337 -0.2260 0.4017 0.088 Uiso 1 1 calc R U . . .
H24B H 0.2187 -0.1324 0.4284 0.088 Uiso 1 1 calc R U . . .
H24C H 0.2954 -0.1253 0.3841 0.088 Uiso 1 1 calc R U . . .
C25 C 0.4150(4) -0.0662(4) 0.1666(3) 0.0332(13) Uani 1 1 d . . . . .
H25A H 0.4405 -0.0737 0.1248 0.040 Uiso 1 1 calc R U . . .
H25B H 0.3573 -0.1254 0.1614 0.040 Uiso 1 1 calc R U . . .
C26 C 0.4989(5) -0.0511(4) 0.2453(3) 0.0421(15) Uani 1 1 d . . . . .
H26A H 0.5241 -0.1031 0.2477 0.063 Uiso 1 1 calc R U . . .
H26B H 0.4721 -0.0499 0.2867 0.063 Uiso 1 1 calc R U . . .
H26C H 0.5545 0.0093 0.2521 0.063 Uiso 1 1 calc R U . . .
C27 C 0.4988(4) 0.1216(4) 0.0958(3) 0.0370(14) Uani 1 1 d . . . . .
H27A H 0.5434 0.0860 0.1175 0.044 Uiso 1 1 calc R U . . .
H27B H 0.5401 0.1901 0.1129 0.044 Uiso 1 1 calc R U . . .
C28 C 0.4603(5) 0.1010(4) 0.0077(3) 0.0426(15) Uani 1 1 d . . . . .
H28A H 0.5179 0.1221 -0.0097 0.064 Uiso 1 1 calc R U . . .
H28B H 0.4151 0.1350 -0.0144 0.064 Uiso 1 1 calc R U . . .
H28C H 0.4232 0.0326 -0.0097 0.064 Uiso 1 1 calc R U . . .
C29 C 0.3446(5) 0.3767(4) -0.0190(3) 0.0413(15) Uani 1 1 d . . . . .
H29A H 0.4147 0.3922 0.0180 0.050 Uiso 1 1 calc R U . . .
H29B H 0.3378 0.4368 -0.0347 0.050 Uiso 1 1 calc R U . . .
C30 C 0.3273(5) 0.3121(5) -0.0902(4) 0.0555(18) Uani 1 1 d . . . . .
H30A H 0.3756 0.3444 -0.1146 0.083 Uiso 1 1 calc R U . . .
H30B H 0.2580 0.2963 -0.1273 0.083 Uiso 1 1 calc R U . . .
H30C H 0.3372 0.2536 -0.0749 0.083 Uiso 1 1 calc R U . . .
C31 C 0.1319(5) 0.3993(4) -0.0443(3) 0.0428(15) Uani 1 1 d . . . . .
H31A H 0.1848 0.4579 -0.0475 0.051 Uiso 1 1 calc R U . . .
H31B H 0.0877 0.4183 -0.0230 0.051 Uiso 1 1 calc R U . . .
C32 C 0.0688(5) 0.3433(5) -0.1258(4) 0.060(2) Uani 1 1 d . . . . .
H32A H 0.0341 0.3809 -0.1579 0.091 Uiso 1 1 calc R U . . .
H32B H 0.0184 0.2837 -0.1227 0.091 Uiso 1 1 calc R U . . .
H32C H 0.1132 0.3294 -0.1490 0.091 Uiso 1 1 calc R U . . .
C33 C -0.1494(4) 0.2718(4) 0.0840(3) 0.0387(14) Uani 1 1 d . . . . .
H33A H -0.1093 0.3297 0.0688 0.046 Uiso 1 1 calc R U . . .
H33B H -0.1820 0.2913 0.1166 0.046 Uiso 1 1 calc R U . . .
C34 C -0.2317(5) 0.2054(5) 0.0107(3) 0.0505(17) Uani 1 1 d . . . . .
H34A H -0.2786 0.2363 -0.0156 0.076 Uiso 1 1 calc R U . . .
H34B H -0.2689 0.1463 0.0252 0.076 Uiso 1 1 calc R U . . .
H34C H -0.2001 0.1912 -0.0244 0.076 Uiso 1 1 calc R U . . .
C35 C -0.1833(4) 0.1469(5) 0.2099(4) 0.0444(15) Uani 1 1 d . . . . .
H35A H -0.2272 0.1803 0.1812 0.053 Uiso 1 1 calc R U . . .
H35B H -0.1632 0.1677 0.2662 0.053 Uiso 1 1 calc R U . . .
C36 C -0.2436(5) 0.0404(5) 0.1909(4) 0.0583(19) Uani 1 1 d . . . . .
H36A H -0.3077 0.0270 0.1991 0.087 Uiso 1 1 calc R U . . .
H36B H -0.2043 0.0075 0.2249 0.087 Uiso 1 1 calc R U . . .
H36C H -0.2577 0.0182 0.1365 0.087 Uiso 1 1 calc R U . . .
C37 C -0.0206(4) 0.0951(4) 0.3398(3) 0.0370(14) Uani 1 1 d . . . . .
H37A H -0.0636 0.0304 0.3426 0.044 Uiso 1 1 calc R U . . .
H37B H -0.0636 0.1338 0.3275 0.044 Uiso 1 1 calc R U . . .
C38 C 0.0643(4) 0.1384(4) 0.4200(3) 0.0358(14) Uani 1 1 d . . . . .
H38A H 0.0977 0.0925 0.4375 0.043 Uiso 1 1 calc R U . . .
H38B H 0.0334 0.1476 0.4577 0.043 Uiso 1 1 calc R U . . .
C101 C 0.2491(4) 0.2513(4) 0.4609(3) 0.0302(12) Uani 1 1 d . . . . .
C102 C 0.2952(5) 0.2178(4) 0.5322(3) 0.0339(13) Uani 1 1 d . . . . .
C103 C 0.3952(5) 0.2724(4) 0.5597(3) 0.0320(13) Uani 1 1 d . . . . .
C104 C 0.4152(4) 0.3321(3) 0.5032(3) 0.0275(12) Uani 1 1 d . . . . .
C105 C 0.5107(4) 0.3853(3) 0.5034(3) 0.0307(12) Uani 1 1 d . . . . .
H10B H 0.5668 0.3964 0.5504 0.037 Uiso 1 1 calc R U . . .
C106 C 0.5310(4) 0.4234(3) 0.4413(3) 0.0309(12) Uani 1 1 d . . . . .
C107 C 0.6286(4) 0.4611(4) 0.4351(4) 0.0339(13) Uani 1 1 d . . . . .
C108 C 0.6138(4) 0.4770(4) 0.3611(3) 0.0333(13) Uani 1 1 d . . . . .
C109 C 0.5063(4) 0.4551(3) 0.3220(3) 0.0299(12) Uani 1 1 d . . . . .
C110 C 0.4606(4) 0.4750(4) 0.2496(3) 0.0341(13) Uani 1 1 d . . . . .
H11A H 0.4968 0.4860 0.2152 0.041 Uiso 1 1 calc R U . . .
C111 C 0.3642(4) 0.4799(4) 0.2236(3) 0.0303(12) Uani 1 1 d . . . . .
C112 C 0.3265(5) 0.5275(4) 0.1607(3) 0.0372(14) Uani 1 1 d . . . . .
C113 C 0.2378(5) 0.5298(4) 0.1632(3) 0.0348(13) Uani 1 1 d . . . . .
C114 C 0.2179(4) 0.4788(3) 0.2236(3) 0.0289(12) Uani 1 1 d . . . . .
C115 C 0.1334(4) 0.4599(4) 0.2437(3) 0.0341(13) Uani 1 1 d . . . . .
H11B H 0.0859 0.4874 0.2170 0.041 Uiso 1 1 calc R U . . .
C116 C 0.1110(4) 0.4052(4) 0.2988(3) 0.0302(12) Uani 1 1 d . . . . .
C117 C 0.0202(4) 0.3831(4) 0.3164(3) 0.0335(13) Uani 1 1 d . . . . .
C118 C 0.0236(4) 0.3180(4) 0.3664(3) 0.0340(13) Uani 1 1 d . . . . .
C119 C 0.1146(4) 0.2991(3) 0.3776(3) 0.0265(12) Uani 1 1 d . . . . .
C120 C 0.1459(4) 0.2342(4) 0.4213(3) 0.0320(13) Uani 1 1 d . . . . .
C121 C 0.2433(5) 0.1442(4) 0.5728(4) 0.0441(15) Uani 1 1 d . . . . .
H12A H 0.1728 0.1410 0.5595 0.053 Uiso 1 1 calc R U . . .
H12B H 0.2785 0.1642 0.6297 0.053 Uiso 1 1 calc R U . . .
C122 C 0.2415(6) 0.0458(4) 0.5514(4) 0.0567(19) Uani 1 1 d . . . . .
H12C H 0.2040 0.0004 0.5776 0.085 Uiso 1 1 calc R U . . .
H12D H 0.3111 0.0474 0.5679 0.085 Uiso 1 1 calc R U . . .
H12E H 0.2082 0.0261 0.4950 0.085 Uiso 1 1 calc R U . . .
C123 C 0.4780(5) 0.2731(5) 0.6341(3) 0.0451(16) Uani 1 1 d . . . . .
H12F H 0.4465 0.2449 0.6714 0.054 Uiso 1 1 calc R U . . .
H12G H 0.5223 0.3398 0.6570 0.054 Uiso 1 1 calc R U . . .
C124 C 0.5442(5) 0.2188(5) 0.6239(4) 0.0521(17) Uani 1 1 d . . . . .
H12H H 0.5958 0.2227 0.6744 0.078 Uiso 1 1 calc R U . . .
H12I H 0.5774 0.2472 0.5881 0.078 Uiso 1 1 calc R U . . .
H12J H 0.5015 0.1521 0.6026 0.078 Uiso 1 1 calc R U . . .
C125 C 0.7273(4) 0.4741(4) 0.4996(4) 0.0403(15) Uani 1 1 d . . . . .
H12K H 0.7204 0.4846 0.5502 0.048 Uiso 1 1 calc R U . . .
H12L H 0.7811 0.5314 0.4958 0.048 Uiso 1 1 calc R U . . .
C126 C 0.7593(5) 0.3886(5) 0.4970(4) 0.0534(18) Uani 1 1 d . . . . .
H12M H 0.8206 0.3984 0.5424 0.080 Uiso 1 1 calc R U . . .
H12N H 0.7731 0.3818 0.4494 0.080 Uiso 1 1 calc R U . . .
H12O H 0.7046 0.3310 0.4977 0.080 Uiso 1 1 calc R U . . .
C127 C 0.6912(4) 0.5128(4) 0.3238(4) 0.0430(15) Uani 1 1 d . . . . .
H12P H 0.6625 0.4787 0.2699 0.052 Uiso 1 1 calc R U . . .
H12Q H 0.7513 0.4975 0.3525 0.052 Uiso 1 1 calc R U . . .
C128 C 0.7255(5) 0.6200(4) 0.3216(4) 0.0462(16) Uani 1 1 d . . . . .
H12R H 0.7770 0.6385 0.2978 0.069 Uiso 1 1 calc R U . . .
H12S H 0.7542 0.6545 0.3747 0.069 Uiso 1 1 calc R U . . .
H12T H 0.6672 0.6354 0.2909 0.069 Uiso 1 1 calc R U . . .
C129 C 0.3823(5) 0.5759(4) 0.1108(3) 0.0476(17) Uani 1 1 d . . . . .
H12U H 0.3325 0.5703 0.0582 0.057 Uiso 1 1 calc R U . . .
H12V H 0.4263 0.5421 0.1057 0.057 Uiso 1 1 calc R U . . .
C130 C 0.4473(5) 0.6800(4) 0.1404(3) 0.0419(15) Uani 1 1 d . . . . .
H13A H 0.4741 0.7079 0.1012 0.063 Uiso 1 1 calc R U . . .
H13B H 0.5037 0.6860 0.1885 0.063 Uiso 1 1 calc R U . . .
H13C H 0.4061 0.7134 0.1505 0.063 Uiso 1 1 calc R U . . .
C131 C 0.1727(5) 0.5784(4) 0.1139(4) 0.0467(16) Uani 1 1 d . . . . .
H13D H 0.1006 0.5360 0.0970 0.056 Uiso 1 1 calc R U . . .
H13E H 0.1895 0.5906 0.0668 0.056 Uiso 1 1 calc R U . . .
C132 C 0.1876(5) 0.6721(4) 0.1576(4) 0.0489(16) Uani 1 1 d . . . . .
H13F H 0.1453 0.7024 0.1233 0.073 Uiso 1 1 calc R U . . .
H13G H 0.2590 0.7142 0.1746 0.073 Uiso 1 1 calc R U . . .
H13H H 0.1682 0.6600 0.2031 0.073 Uiso 1 1 calc R U . . .
C133 C -0.0579(4) 0.4262(4) 0.2848(4) 0.0431(15) Uani 1 1 d . . . . .
H13I H -0.1226 0.3835 0.2876 0.052 Uiso 1 1 calc R U . . .
H13J H -0.0687 0.4303 0.2293 0.052 Uiso 1 1 calc R U . . .
C134 C -0.0308(5) 0.5240(5) 0.3269(4) 0.0545(18) Uani 1 1 d . . . . .
H13K H -0.0824 0.5498 0.3000 0.082 Uiso 1 1 calc R U . . .
H13L H 0.0353 0.5660 0.3275 0.082 Uiso 1 1 calc R U . . .
H13M H -0.0280 0.5196 0.3804 0.082 Uiso 1 1 calc R U . . .
C135 C -0.0469(4) 0.2863(4) 0.4112(3) 0.0387(14) Uani 1 1 d . . . . .
H13N H -0.0712 0.2163 0.4071 0.046 Uiso 1 1 calc R U . . .
H13O H -0.1066 0.3040 0.3872 0.046 Uiso 1 1 calc R U . . .
C136 C 0.0036(5) 0.3300(5) 0.4966(3) 0.0462(16) Uani 1 1 d . . . . .
H13P H -0.0459 0.3091 0.5222 0.069 Uiso 1 1 calc R U . . .
H13Q H 0.0288 0.3994 0.5011 0.069 Uiso 1 1 calc R U . . .
H13R H 0.0603 0.3095 0.5216 0.069 Uiso 1 1 calc R U . . .
Cl1 Cl 0.67429(13) 0.39745(10) 0.13014(9) 0.0453(4) Uani 1 1 d . . . . .
O2 O 0.7559(4) 0.4883(4) 0.1597(4) 0.089(2) Uani 1 1 d . . . . .
O3 O 0.6626(8) 0.3622(5) 0.0578(3) 0.147(4) Uani 1 1 d . . . . .
O4 O 0.5863(4) 0.4130(5) 0.1302(3) 0.0862(18) Uani 1 1 d . . . . .
O5 O 0.6975(3) 0.3347(3) 0.1834(2) 0.0480(11) Uani 1 1 d . . . . .
C1S C 0.5071(4) 0.1516(4) 0.3837(3) 0.0366(14) Uani 1 1 d . . . . .
C2S C 0.5928(5) 0.1261(4) 0.4126(4) 0.0423(15) Uani 1 1 d . . . . .
H2SA H 0.5978 0.0869 0.4520 0.051 Uiso 1 1 calc R U . . .
C3S C 0.6718(5) 0.1594(4) 0.3825(4) 0.0479(16) Uani 1 1 d . . . . .
H3SA H 0.7301 0.1430 0.4021 0.058 Uiso 1 1 calc R U . . .
C4S C 0.6636(4) 0.2143(4) 0.3260(3) 0.0375(14) Uani 1 1 d . . . . .
H4SA H 0.7153 0.2350 0.3048 0.045 Uiso 1 1 calc R U . . .
C5S C 0.5794(5) 0.2408(4) 0.2986(3) 0.0389(14) Uani 1 1 d . . . . .
H5SA H 0.5740 0.2806 0.2598 0.047 Uiso 1 1 calc R U . . .
C6S C 0.5039(4) 0.2078(4) 0.3291(3) 0.0355(13) Uani 1 1 d . . . . .
H6SA H 0.4469 0.2262 0.3103 0.043 Uiso 1 1 calc R U . . .
C7S C 0.4210(5) 0.1125(4) 0.4133(4) 0.0478(16) Uani 1 1 d . . . . .
H7SA H 0.4114 0.1652 0.4373 0.072 Uiso 1 1 calc R U . . .
H7SB H 0.4374 0.0716 0.4518 0.072 Uiso 1 1 calc R U . . .
H7SC H 0.3586 0.0755 0.3697 0.072 Uiso 1 1 calc R U . . .
C8S C -0.1137(5) -0.0569(5) 0.0587(4) 0.0148(18) Uiso 0.5 1 d G . P A -1
H8SA H -0.1607 -0.0810 0.0838 0.018 Uiso 0.5 1 calc R U P A -1
C9S C -0.1269(5) 0.0073(5) 0.0074(4) 0.043(3) Uani 0.5 1 d G U P A -1
H9SA H -0.1828 0.0270 -0.0024 0.052 Uiso 0.5 1 calc R U P A -1
C10S C -0.0581(8) 0.0427(6) -0.0293(5) 0.054(5) Uani 0.5 1 d G . P A -1
H10C H -0.0671 0.0866 -0.0644 0.064 Uiso 0.5 1 calc R U P A -1
C11S C 0.0237(7) 0.0139(8) -0.0149(6) 0.055(4) Uani 0.5 1 d G . P A -1
H11C H 0.0707 0.0381 -0.0400 0.066 Uiso 0.5 1 calc R U P A -1
C12S C 0.0369(6) -0.0503(7) 0.0364(6) 0.059(6) Uani 0.5 1 d G U P A -1
H12W H 0.0928 -0.0700 0.0463 0.071 Uiso 0.5 1 calc R U P A -1
C13S C -0.0319(6) -0.0857(5) 0.0732(5) 0.061(4) Uani 0.5 1 d G U P A -1
H13S H -0.0229 -0.1295 0.1082 0.073 Uiso 0.5 1 calc R U P A -1
loop_
_atom_site_aniso_label
_atom_site_aniso_U_11
_atom_site_aniso_U_22
_atom_site_aniso_U_33
_atom_site_aniso_U_23
_atom_site_aniso_U_13
_atom_site_aniso_U_12
Mn1 0.0272(4) 0.0235(4) 0.0267(4) -0.0032(3) 0.0129(4) 0.0037(3)
Mn2 0.0234(4) 0.0208(4) 0.0242(4) -0.0006(3) 0.0102(3) 0.0045(3)
O1 0.0254(18) 0.0221(17) 0.0236(19) -0.0051(14) 0.0071(16) 0.0055(15)
N1 0.031(2) 0.019(2) 0.027(2) -0.0040(17) 0.016(2) 0.0012(18)
N2 0.032(2) 0.025(2) 0.024(2) -0.0027(18) 0.013(2) 0.0048(19)
N3 0.032(2) 0.028(2) 0.023(2) 0.0019(18) 0.013(2) 0.008(2)
N4 0.034(3) 0.033(2) 0.024(2) -0.0053(19) 0.013(2) 0.006(2)
N5 0.028(2) 0.020(2) 0.027(2) -0.0048(17) 0.011(2) 0.0045(18)
N6 0.023(2) 0.022(2) 0.030(2) 0.0009(18) 0.007(2) 0.0048(18)
N7 0.029(2) 0.030(2) 0.027(2) 0.0026(19) 0.011(2) 0.011(2)
N8 0.027(2) 0.025(2) 0.029(2) -0.0036(18) 0.014(2) 0.0080(19)
C1 0.034(3) 0.021(3) 0.030(3) -0.003(2) 0.017(3) -0.004(2)
C2 0.045(4) 0.026(3) 0.042(3) -0.003(2) 0.025(3) 0.006(3)
C3 0.042(3) 0.021(3) 0.037(3) 0.003(2) 0.018(3) 0.003(2)
C4 0.035(3) 0.020(3) 0.028(3) -0.004(2) 0.012(3) 0.003(2)
C5 0.040(3) 0.015(2) 0.039(3) -0.001(2) 0.024(3) 0.007(2)
C6 0.036(3) 0.024(3) 0.025(3) -0.002(2) 0.013(2) 0.011(2)
C7 0.030(3) 0.031(3) 0.026(3) -0.002(2) 0.009(2) 0.008(2)
C8 0.019(3) 0.040(3) 0.024(3) -0.001(2) 0.006(2) 0.005(2)
C9 0.026(3) 0.032(3) 0.025(3) 0.001(2) 0.011(2) 0.008(2)
C10 0.028(3) 0.032(3) 0.031(3) 0.002(2) 0.010(3) 0.000(2)
C11 0.029(3) 0.027(3) 0.019(3) -0.002(2) 0.008(2) 0.008(2)
C12 0.034(3) 0.035(3) 0.022(3) -0.002(2) 0.009(2) 0.007(3)
C13 0.041(3) 0.036(3) 0.028(3) 0.000(2) 0.014(3) 0.012(3)
C14 0.033(3) 0.028(3) 0.026(3) -0.004(2) 0.007(2) 0.009(2)
C15 0.036(3) 0.036(3) 0.026(3) -0.004(2) 0.009(3) 0.011(3)
C16 0.028(3) 0.028(3) 0.027(3) -0.011(2) 0.004(2) 0.007(2)
C17 0.027(3) 0.035(3) 0.030(3) -0.011(2) 0.007(3) 0.007(2)
C18 0.023(3) 0.040(3) 0.031(3) -0.011(3) 0.007(3) 0.003(2)
C19 0.028(3) 0.030(3) 0.030(3) -0.007(2) 0.015(3) 0.003(2)
C20 0.028(3) 0.023(3) 0.042(3) -0.011(2) 0.020(3) -0.006(2)
C21 0.073(5) 0.033(3) 0.059(4) 0.010(3) 0.051(4) 0.010(3)
C22 0.075(5) 0.034(4) 0.107(7) -0.033(4) 0.065(5) -0.023(4)
C23 0.053(4) 0.033(3) 0.047(4) 0.004(3) 0.028(3) 0.014(3)
C24 0.080(5) 0.043(4) 0.070(5) 0.016(3) 0.033(4) 0.036(4)
C25 0.032(3) 0.027(3) 0.040(3) -0.002(2) 0.014(3) 0.009(2)
C26 0.044(4) 0.038(3) 0.043(4) 0.002(3) 0.012(3) 0.018(3)
C27 0.030(3) 0.043(3) 0.039(3) 0.007(3) 0.011(3) 0.015(3)
C28 0.046(4) 0.053(4) 0.037(3) 0.006(3) 0.024(3) 0.020(3)
C29 0.045(4) 0.049(4) 0.038(3) 0.013(3) 0.018(3) 0.023(3)
C30 0.054(4) 0.084(5) 0.040(4) 0.010(4) 0.023(3) 0.034(4)
C31 0.048(4) 0.049(4) 0.037(3) 0.014(3) 0.018(3) 0.021(3)
C32 0.046(4) 0.072(5) 0.054(4) 0.017(4) 0.004(4) 0.024(4)
C33 0.037(3) 0.043(3) 0.036(3) -0.004(3) 0.012(3) 0.015(3)
C34 0.046(4) 0.061(4) 0.031(3) -0.002(3) 0.001(3) 0.019(3)
C35 0.027(3) 0.061(4) 0.039(4) -0.001(3) 0.012(3) 0.010(3)
C36 0.035(4) 0.074(5) 0.049(4) -0.006(4) 0.014(3) 0.002(3)
C37 0.033(3) 0.031(3) 0.043(3) -0.006(2) 0.018(3) 0.003(2)
C38 0.040(3) 0.029(3) 0.043(3) -0.001(2) 0.028(3) 0.005(3)
C101 0.039(3) 0.028(3) 0.032(3) 0.006(2) 0.022(3) 0.013(2)
C102 0.046(4) 0.031(3) 0.035(3) 0.005(2) 0.023(3) 0.019(3)
C103 0.050(4) 0.033(3) 0.021(3) 0.002(2) 0.017(3) 0.021(3)
C104 0.032(3) 0.024(3) 0.026(3) -0.003(2) 0.011(2) 0.010(2)
C105 0.032(3) 0.020(3) 0.032(3) -0.003(2) 0.004(3) 0.009(2)
C106 0.026(3) 0.018(3) 0.045(3) -0.004(2) 0.010(3) 0.008(2)
C107 0.028(3) 0.022(3) 0.050(4) -0.004(2) 0.015(3) 0.008(2)
C108 0.032(3) 0.023(3) 0.048(4) 0.002(2) 0.021(3) 0.008(2)
C109 0.030(3) 0.018(2) 0.043(3) 0.003(2) 0.018(3) 0.005(2)
C110 0.037(3) 0.030(3) 0.036(3) 0.000(2) 0.020(3) 0.007(3)
C111 0.041(3) 0.025(3) 0.031(3) 0.010(2) 0.021(3) 0.011(2)
C112 0.052(4) 0.027(3) 0.030(3) -0.001(2) 0.018(3) 0.010(3)
C113 0.045(4) 0.028(3) 0.026(3) 0.003(2) 0.009(3) 0.012(3)
C114 0.032(3) 0.020(2) 0.028(3) -0.005(2) 0.005(2) 0.007(2)
C115 0.034(3) 0.039(3) 0.027(3) -0.004(2) 0.003(3) 0.018(3)
C116 0.025(3) 0.034(3) 0.030(3) -0.009(2) 0.007(2) 0.012(2)
C117 0.034(3) 0.032(3) 0.030(3) -0.008(2) 0.008(3) 0.010(3)
C118 0.019(3) 0.033(3) 0.037(3) -0.019(2) 0.008(2) -0.001(2)
C119 0.032(3) 0.019(2) 0.029(3) -0.006(2) 0.017(2) 0.005(2)
C120 0.035(3) 0.031(3) 0.034(3) -0.005(2) 0.023(3) 0.006(2)
C121 0.053(4) 0.051(4) 0.041(4) 0.019(3) 0.031(3) 0.020(3)
C122 0.069(5) 0.046(4) 0.072(5) 0.028(4) 0.042(4) 0.026(4)
C123 0.056(4) 0.051(4) 0.035(3) 0.009(3) 0.017(3) 0.027(3)
C124 0.057(4) 0.058(4) 0.041(4) 0.013(3) 0.009(3) 0.030(4)
C125 0.023(3) 0.034(3) 0.054(4) -0.015(3) 0.008(3) 0.005(2)
C126 0.040(4) 0.050(4) 0.056(4) -0.015(3) -0.005(3) 0.023(3)
C127 0.030(3) 0.032(3) 0.069(4) 0.002(3) 0.027(3) 0.006(3)
C128 0.037(3) 0.030(3) 0.074(5) 0.009(3) 0.033(3) 0.003(3)
C129 0.073(5) 0.037(3) 0.032(3) 0.014(3) 0.028(3) 0.010(3)
C130 0.041(4) 0.042(3) 0.040(4) 0.010(3) 0.015(3) 0.012(3)
C131 0.056(4) 0.052(4) 0.036(3) 0.011(3) 0.013(3) 0.027(3)
C132 0.054(4) 0.041(3) 0.058(4) 0.010(3) 0.022(4) 0.022(3)
C133 0.031(3) 0.054(4) 0.040(4) -0.014(3) 0.005(3) 0.019(3)
C134 0.051(4) 0.061(4) 0.054(4) -0.009(3) 0.010(4) 0.033(4)
C135 0.027(3) 0.044(3) 0.039(3) -0.010(3) 0.014(3) 0.005(3)
C136 0.041(4) 0.057(4) 0.038(4) -0.011(3) 0.021(3) 0.010(3)
Cl1 0.0520(10) 0.0394(8) 0.0449(9) 0.0132(7) 0.0175(8) 0.0170(7)
O2 0.054(3) 0.071(4) 0.125(5) 0.055(4) 0.026(3) 0.007(3)
O3 0.325(12) 0.144(6) 0.057(4) 0.052(4) 0.086(6) 0.169(8)
O4 0.050(3) 0.141(5) 0.077(4) 0.022(4) 0.013(3) 0.056(4)
O5 0.059(3) 0.038(2) 0.036(2) 0.0140(19) 0.009(2) 0.012(2)
C1S 0.033(3) 0.035(3) 0.029(3) -0.014(2) 0.012(3) -0.002(3)
C2S 0.044(4) 0.033(3) 0.038(3) 0.000(3) 0.005(3) 0.012(3)
C3S 0.039(4) 0.039(3) 0.056(4) -0.009(3) 0.010(3) 0.011(3)
C4S 0.028(3) 0.039(3) 0.036(3) -0.006(3) 0.011(3) 0.003(3)
C5S 0.042(4) 0.031(3) 0.041(3) -0.002(3) 0.014(3) 0.012(3)
C6S 0.032(3) 0.030(3) 0.038(3) -0.005(3) 0.009(3) 0.009(2)
C7S 0.054(4) 0.041(3) 0.046(4) -0.002(3) 0.023(3) 0.012(3)
C9S 0.041(5) 0.044(5) 0.044(5) -0.021(4) 0.020(4) 0.012(4)
C10S 0.038(8) 0.051(11) 0.043(10) -0.005(8) -0.008(8) 0.005(7)
C11S 0.043(9) 0.046(8) 0.053(10) -0.040(7) 0.015(7) -0.005(7)
C12S 0.073(9) 0.049(9) 0.053(9) -0.023(6) 0.006(7) 0.036(7)
C13S 0.085(8) 0.027(5) 0.036(6) -0.003(5) 0.013(6) -0.009(5)
loop_
_atom_type_symbol
_atom_type_description
_atom_type_scat_dispersion_real
_atom_type_scat_dispersion_imag
_atom_type_scat_source
C C 0.0033 0.0016 'International Tables Vol C Tables 4.2.6.8 and 6.1.1.4'
H H 0.0000 0.0000 'International Tables Vol C Tables 4.2.6.8 and 6.1.1.4'
N N 0.0061 0.0033 'International Tables Vol C Tables 4.2.6.8 and 6.1.1.4'
O O 0.0106 0.0060 'International Tables Vol C Tables 4.2.6.8 and 6.1.1.4'
Cl Cl 0.1484 0.1585 'International Tables Vol C Tables 4.2.6.8 and 6.1.1.4'
Mn Mn 0.3368 0.7283 'International Tables Vol C Tables 4.2.6.8 and 6.1.1.4'
loop_
_geom_angle_atom_site_label_1
_geom_angle_atom_site_label_2
_geom_angle_atom_site_label_3
_geom_angle
N3 Mn1 N2 87.90(17)
N3 Mn1 N4 90.42(18)
N2 Mn1 N4 164.20(17)
N3 Mn1 N1 166.91(16)
N2 Mn1 N1 90.12(17)
N4 Mn1 N1 87.97(18)
N3 Mn1 O1 101.51(15)
N2 Mn1 O1 98.38(15)
N4 Mn1 O1 97.35(15)
N1 Mn1 O1 91.59(15)
N7 Mn2 N5 165.60(17)
N7 Mn2 N6 88.49(18)
N5 Mn2 N6 89.35(17)
N7 Mn2 N8 89.89(18)
N5 Mn2 N8 87.49(18)
N6 Mn2 N8 160.80(17)
N7 Mn2 O1 99.77(16)
N5 Mn2 O1 94.64(15)
N6 Mn2 O1 99.28(16)
N8 Mn2 O1 99.86(15)
Mn2 O1 Mn1 144.28(19)
C4 N1 C1 106.7(4)
C4 N1 Mn1 127.1(3)
C1 N1 Mn1 125.9(4)
C9 N2 C6 104.6(4)
C9 N2 Mn1 127.6(4)
C6 N2 Mn1 127.8(3)
C11 N3 C14 105.8(4)
C11 N3 Mn1 126.8(4)
C14 N3 Mn1 127.4(4)
C16 N4 C19 106.8(5)
C16 N4 Mn1 125.9(4)
C19 N4 Mn1 127.1(4)
C104 N5 C101 107.6(4)
C104 N5 Mn2 127.8(3)
C101 N5 Mn2 123.8(4)
C106 N6 C109 106.4(4)
C106 N6 Mn2 128.2(3)
C109 N6 Mn2 125.2(4)
C111 N7 C114 105.9(4)
C111 N7 Mn2 125.9(4)
C114 N7 Mn2 128.1(4)
C119 N8 C116 106.4(4)
C119 N8 Mn2 126.2(4)
C116 N8 Mn2 127.4(3)
N1 C1 C20 123.3(5)
N1 C1 C2 108.4(5)
C20 C1 C2 127.9(5)
C3 C2 C1 107.2(5)
C3 C2 C21 122.6(5)
C1 C2 C21 128.8(6)
C2 C3 C4 106.9(5)
C2 C3 C23 126.9(5)
C4 C3 C23 126.2(5)
N1 C4 C5 124.8(5)
N1 C4 C3 110.7(5)
C5 C4 C3 124.5(5)
C6 C5 C4 126.3(5)
C6 C5 H5A 116.9
C4 C5 H5A 116.9
C5 C6 N2 123.7(5)
C5 C6 C7 125.3(5)
N2 C6 C7 111.0(4)
C8 C7 C6 106.3(5)
C8 C7 C25 127.7(5)
C6 C7 C25 125.9(5)
C7 C8 C9 106.8(5)
C7 C8 C27 128.0(5)
C9 C8 C27 125.1(5)
N2 C9 C10 123.2(5)
N2 C9 C8 111.2(4)
C10 C9 C8 125.1(5)
C11 C10 C9 124.8(5)
C11 C10 H10A 117.6
C9 C10 H10A 117.6
N3 C11 C10 124.9(5)
N3 C11 C12 110.3(5)
C10 C11 C12 124.2(5)
C13 C12 C11 106.4(5)
C13 C12 C29 128.3(5)
C11 C12 C29 125.1(5)
C12 C13 C14 107.4(5)
C12 C13 C31 127.8(5)
C14 C13 C31 124.8(5)
C15 C14 N3 123.9(5)
C15 C14 C13 125.9(5)
N3 C14 C13 110.2(5)
C16 C15 C14 126.5(6)
C16 C15 H15A 116.7
C14 C15 H15A 116.7
C15 C16 N4 125.7(5)
C15 C16 C17 124.4(5)
N4 C16 C17 109.9(5)
C18 C17 C16 107.0(5)
C18 C17 C33 128.0(5)
C16 C17 C33 124.9(5)
C17 C18 C19 107.3(5)
C17 C18 C35 122.2(6)
C19 C18 C35 129.7(5)
N4 C19 C20 123.0(5)
N4 C19 C18 108.7(5)
C20 C19 C18 128.1(5)
C19 C20 C1 124.1(5)
C19 C20 C37 117.1(5)
C1 C20 C37 118.8(5)
C2 C21 C22 111.6(5)
C2 C21 H21A 109.3
C22 C21 H21A 109.3
C2 C21 H21B 109.3
C22 C21 H21B 109.3
H21A C21 H21B 108.0
C21 C22 H22A 109.5
C21 C22 H22B 109.5
H22A C22 H22B 109.5
C21 C22 H22C 109.5
H22A C22 H22C 109.5
H22B C22 H22C 109.5
C3 C23 C24 112.4(5)
C3 C23 H23A 109.1
C24 C23 H23A 109.1
C3 C23 H23B 109.1
C24 C23 H23B 109.1
H23A C23 H23B 107.9
C23 C24 H24A 109.5
C23 C24 H24B 109.5
H24A C24 H24B 109.5
C23 C24 H24C 109.5
H24A C24 H24C 109.5
H24B C24 H24C 109.5
C7 C25 C26 112.1(4)
C7 C25 H25A 109.2
C26 C25 H25A 109.2
C7 C25 H25B 109.2
C26 C25 H25B 109.2
H25A C25 H25B 107.9
C25 C26 H26A 109.5
C25 C26 H26B 109.5
H26A C26 H26B 109.5
C25 C26 H26C 109.5
H26A C26 H26C 109.5
H26B C26 H26C 109.5
C8 C27 C28 113.7(5)
C8 C27 H27A 108.8
C28 C27 H27A 108.8
C8 C27 H27B 108.8
C28 C27 H27B 108.8
H27A C27 H27B 107.7
C27 C28 H28A 109.5
C27 C28 H28B 109.5
H28A C28 H28B 109.5
C27 C28 H28C 109.5
H28A C28 H28C 109.5
H28B C28 H28C 109.5
C12 C29 C30 113.5(5)
C12 C29 H29A 108.9
C30 C29 H29A 108.9
C12 C29 H29B 108.9
C30 C29 H29B 108.9
H29A C29 H29B 107.7
C29 C30 H30A 109.5
C29 C30 H30B 109.5
H30A C30 H30B 109.5
C29 C30 H30C 109.5
H30A C30 H30C 109.5
H30B C30 H30C 109.5
C13 C31 C32 112.5(5)
C13 C31 H31A 109.1
C32 C31 H31A 109.1
C13 C31 H31B 109.1
C32 C31 H31B 109.1
H31A C31 H31B 107.8
C31 C32 H32A 109.5
C31 C32 H32B 109.5
H32A C32 H32B 109.5
C31 C32 H32C 109.5
H32A C32 H32C 109.5
H32B C32 H32C 109.5
C17 C33 C34 112.4(5)
C17 C33 H33A 109.1
C34 C33 H33A 109.1
C17 C33 H33B 109.1
C34 C33 H33B 109.1
H33A C33 H33B 107.9
C33 C34 H34A 109.5
C33 C34 H34B 109.5
H34A C34 H34B 109.5
C33 C34 H34C 109.5
H34A C34 H34C 109.5
H34B C34 H34C 109.5
C18 C35 C36 112.9(5)
C18 C35 H35A 109.0
C36 C35 H35A 109.0
C18 C35 H35B 109.0
C36 C35 H35B 109.0
H35A C35 H35B 107.8
C35 C36 H36A 109.5
C35 C36 H36B 109.5
H36A C36 H36B 109.5
C35 C36 H36C 109.5
H36A C36 H36C 109.5
H36B C36 H36C 109.5
C20 C37 C38 114.0(5)
C20 C37 H37A 108.8
C38 C37 H37A 108.8
C20 C37 H37B 108.8
C38 C37 H37B 108.8
H37A C37 H37B 107.7
C37 C38 C120 114.3(5)
C37 C38 H38A 108.7
C120 C38 H38A 108.7
C37 C38 H38B 108.7
C120 C38 H38B 108.7
H38A C38 H38B 107.6
N5 C101 C120 122.9(5)
N5 C101 C102 108.1(5)
C120 C101 C102 128.0(5)
C103 C102 C101 106.4(5)
C103 C102 C121 125.3(5)
C101 C102 C121 128.1(5)
C102 C103 C104 108.3(5)
C102 C103 C123 129.3(5)
C104 C103 C123 122.4(5)
N5 C104 C105 124.8(5)
N5 C104 C103 109.4(5)
C105 C104 C103 125.4(5)
C106 C105 C104 125.6(5)
C106 C105 H10B 117.2
C104 C105 H10B 117.2
N6 C106 C105 123.6(5)
N6 C106 C107 110.0(5)
C105 C106 C107 126.0(5)
C108 C107 C106 107.3(5)
C108 C107 C125 128.0(5)
C106 C107 C125 124.7(5)
C107 C108 C109 107.2(5)
C107 C108 C127 128.5(6)
C109 C108 C127 124.4(5)
C110 C109 N6 124.4(5)
C110 C109 C108 126.1(5)
N6 C109 C108 109.1(5)
C109 C110 C111 124.0(5)
C109 C110 H11A 118.0
C111 C110 H11A 118.0
N7 C111 C110 124.1(5)
N7 C111 C112 110.4(5)
C110 C111 C112 125.2(5)
C113 C112 C111 106.3(5)
C113 C112 C129 127.7(6)
C111 C112 C129 125.5(6)
C112 C113 C114 107.3(5)
C112 C113 C131 127.4(5)
C114 C113 C131 125.3(6)
N7 C114 C115 123.5(5)
N7 C114 C113 109.9(5)
C115 C114 C113 126.6(5)
C114 C115 C116 126.6(5)
C114 C115 H11B 116.7
C116 C115 H11B 116.7
N8 C116 C115 123.7(5)
N8 C116 C117 110.4(5)
C115 C116 C117 125.7(5)
C118 C117 C116 106.0(5)
C118 C117 C133 129.5(5)
C116 C117 C133 124.5(5)
C117 C118 C119 107.4(5)
C117 C118 C135 124.7(5)
C119 C118 C135 127.1(5)
N8 C119 C120 123.5(5)
N8 C119 C118 109.6(5)
C120 C119 C118 126.9(5)
C119 C120 C101 121.5(5)
C119 C120 C38 118.1(5)
C101 C120 C38 120.1(5)
C102 C121 C122 113.2(5)
C102 C121 H12A 108.9
C122 C121 H12A 108.9
C102 C121 H12B 108.9
C122 C121 H12B 108.9
H12A C121 H12B 107.8
C121 C122 H12C 109.5
C121 C122 H12D 109.5
H12C C122 H12D 109.5
C121 C122 H12E 109.5
H12C C122 H12E 109.5
H12D C122 H12E 109.5
C103 C123 C124 114.5(5)
C103 C123 H12F 108.6
C124 C123 H12F 108.6
C103 C123 H12G 108.6
C124 C123 H12G 108.6
H12F C123 H12G 107.6
C123 C124 H12H 109.5
C123 C124 H12I 109.5
H12H C124 H12I 109.5
C123 C124 H12J 109.5
H12H C124 H12J 109.5
H12I C124 H12J 109.5
C107 C125 C126 112.8(5)
C107 C125 H12K 109.0
C126 C125 H12K 109.0
C107 C125 H12L 109.0
C126 C125 H12L 109.0
H12K C125 H12L 107.8
C125 C126 H12M 109.5
C125 C126 H12N 109.5
H12M C126 H12N 109.5
C125 C126 H12O 109.5
H12M C126 H12O 109.5
H12N C126 H12O 109.5
C108 C127 C128 114.0(5)
C108 C127 H12P 108.8
C128 C127 H12P 108.8
C108 C127 H12Q 108.8
C128 C127 H12Q 108.8
H12P C127 H12Q 107.7
C127 C128 H12R 109.5
C127 C128 H12S 109.5
H12R C128 H12S 109.5
C127 C128 H12T 109.5
H12R C128 H12T 109.5
H12S C128 H12T 109.5
C112 C129 C130 115.0(5)
C112 C129 H12U 108.5
C130 C129 H12U 108.5
C112 C129 H12V 108.5
C130 C129 H12V 108.5
H12U C129 H12V 107.5
C129 C130 H13A 109.5
C129 C130 H13B 109.5
H13A C130 H13B 109.5
C129 C130 H13C 109.5
H13A C130 H13C 109.5
H13B C130 H13C 109.5
C113 C131 C132 111.8(5)
C113 C131 H13D 109.2
C132 C131 H13D 109.2
C113 C131 H13E 109.2
C132 C131 H13E 109.2
H13D C131 H13E 107.9
C131 C132 H13F 109.5
C131 C132 H13G 109.5
H13F C132 H13G 109.5
C131 C132 H13H 109.5
H13F C132 H13H 109.5
H13G C132 H13H 109.5
C117 C133 C134 114.3(5)
C117 C133 H13I 108.7
C134 C133 H13I 108.7
C117 C133 H13J 108.7
C134 C133 H13J 108.7
H13I C133 H13J 107.6
C133 C134 H13K 109.5
C133 C134 H13L 109.5
H13K C134 H13L 109.5
C133 C134 H13M 109.5
H13K C134 H13M 109.5
H13L C134 H13M 109.5
C118 C135 C136 112.9(4)
C118 C135 H13N 109.0
C136 C135 H13N 109.0
C118 C135 H13O 109.0
C136 C135 H13O 109.0
H13N C135 H13O 107.8
C135 C136 H13P 109.5
C135 C136 H13Q 109.5
H13P C136 H13Q 109.5
C135 C136 H13R 109.5
H13P C136 H13R 109.5
H13Q C136 H13R 109.5
O3 Cl1 O4 111.4(5)
O3 Cl1 O5 110.1(3)
O4 Cl1 O5 110.5(3)
O3 Cl1 O2 112.4(5)
O4 Cl1 O2 105.5(4)
O5 Cl1 O2 106.9(3)
C6S C1S C2S 118.2(5)
C6S C1S C7S 122.3(6)
C2S C1S C7S 119.5(6)
C1S C2S C3S 119.6(6)
C1S C2S H2SA 120.2
C3S C2S H2SA 120.2
C4S C3S C2S 119.8(6)
C4S C3S H3SA 120.1
C2S C3S H3SA 120.1
C3S C4S C5S 120.3(6)
C3S C4S H4SA 119.9
C5S C4S H4SA 119.9
C6S C5S C4S 118.8(6)
C6S C5S H5SA 120.6
C4S C5S H5SA 120.6
C1S C6S C5S 123.3(6)
C1S C6S H6SA 118.3
C5S C6S H6SA 118.3
C1S C7S H7SA 109.5
C1S C7S H7SB 109.5
H7SA C7S H7SB 109.5
C1S C7S H7SC 109.5
H7SA C7S H7SC 109.5
H7SB C7S H7SC 109.5
C9S C8S C13S 120.0
C9S C8S H8SA 120.0
C13S C8S H8SA 120.0
C10S C9S C8S 120.0
C10S C9S H9SA 120.0
C8S C9S H9SA 120.0
C9S C10S C11S 120.0
C9S C10S H10C 120.0
C11S C10S H10C 120.0
C12S C11S C10S 120.0
C12S C11S H11C 120.0
C10S C11S H11C 120.0
C11S C12S C13S 120.0
C11S C12S H12W 120.0
C13S C12S H12W 120.0
C12S C13S C8S 120.0
C12S C13S H13S 120.0
C8S C13S H13S 120.0
loop_
_geom_bond_atom_site_label_1
_geom_bond_atom_site_label_2
_geom_bond_distance
Mn1 N3 2.002(4)
Mn1 N2 2.004(4)
Mn1 N4 2.004(5)
Mn1 N1 2.009(4)
Mn1 O1 2.057(3)
Mn2 N7 1.983(4)
Mn2 N5 1.990(4)
Mn2 N6 1.993(4)
Mn2 N8 1.997(4)
Mn2 O1 2.035(3)
N1 C4 1.369(7)
N1 C1 1.392(6)
N2 C9 1.384(6)
N2 C6 1.388(6)
N3 C11 1.374(6)
N3 C14 1.380(7)
N4 C16 1.379(7)
N4 C19 1.391(6)
N5 C104 1.356(7)
N5 C101 1.398(6)
N6 C106 1.374(7)
N6 C109 1.379(6)
N7 C111 1.369(6)
N7 C114 1.383(7)
N8 C119 1.369(6)
N8 C116 1.376(7)
C1 C20 1.405(8)
C1 C2 1.453(8)
C2 C3 1.371(8)
C2 C21 1.505(7)
C3 C4 1.423(7)
C3 C23 1.491(8)
C4 C5 1.401(7)
C5 C6 1.383(7)
C5 H5A 0.9500
C6 C7 1.444(7)
C7 C8 1.372(7)
C7 C25 1.485(7)
C8 C9 1.437(7)
C8 C27 1.494(7)
C9 C10 1.392(7)
C10 C11 1.375(8)
C10 H10A 0.9500
C11 C12 1.452(7)
C12 C13 1.355(8)
C12 C29 1.497(8)
C13 C14 1.437(7)
C13 C31 1.523(8)
C14 C15 1.377(8)
C15 C16 1.372(7)
C15 H15A 0.9500
C16 C17 1.443(7)
C17 C18 1.367(8)
C17 C33 1.495(8)
C18 C19 1.455(8)
C18 C35 1.514(7)
C19 C20 1.392(8)
C20 C37 1.538(7)
C21 C22 1.528(10)
C21 H21A 0.9900
C21 H21B 0.9900
C22 H22A 0.9800
C22 H22B 0.9800
C22 H22C 0.9800
C23 C24 1.519(9)
C23 H23A 0.9900
C23 H23B 0.9900
C24 H24A 0.9800
C24 H24B 0.9800
C24 H24C 0.9800
C25 C26 1.525(8)
C25 H25A 0.9900
C25 H25B 0.9900
C26 H26A 0.9800
C26 H26B 0.9800
C26 H26C 0.9800
C27 C28 1.518(8)
C27 H27A 0.9900
C27 H27B 0.9900
C28 H28A 0.9800
C28 H28B 0.9800
C28 H28C 0.9800
C29 C30 1.515(8)
C29 H29A 0.9900
C29 H29B 0.9900
C30 H30A 0.9800
C30 H30B 0.9800
C30 H30C 0.9800
C31 C32 1.524(9)
C31 H31A 0.9900
C31 H31B 0.9900
C32 H32A 0.9800
C32 H32B 0.9800
C32 H32C 0.9800
C33 C34 1.532(8)
C33 H33A 0.9900
C33 H33B 0.9900
C34 H34A 0.9800
C34 H34B 0.9800
C34 H34C 0.9800
C35 C36 1.522(9)
C35 H35A 0.9900
C35 H35B 0.9900
C36 H36A 0.9800
C36 H36B 0.9800
C36 H36C 0.9800
C37 C38 1.542(8)
C37 H37A 0.9900
C37 H37B 0.9900
C38 C120 1.546(7)
C38 H38A 0.9900
C38 H38B 0.9900
C101 C120 1.405(8)
C101 C102 1.462(8)
C102 C103 1.354(8)
C102 C121 1.503(7)
C103 C104 1.438(7)
C103 C123 1.514(8)
C104 C105 1.390(7)
C105 C106 1.375(7)
C105 H10B 0.9500
C106 C107 1.432(7)
C107 C108 1.351(8)
C107 C125 1.508(8)
C108 C109 1.448(8)
C108 C127 1.502(7)
C109 C110 1.378(8)
C110 C111 1.397(8)
C110 H11A 0.9500
C111 C112 1.441(8)
C112 C113 1.365(8)
C112 C129 1.493(8)
C113 C114 1.429(7)
C113 C131 1.503(8)
C114 C115 1.384(8)
C115 C116 1.385(8)
C115 H11B 0.9500
C116 C117 1.441(7)
C117 C118 1.370(8)
C117 C133 1.493(8)
C118 C119 1.444(7)
C118 C135 1.518(7)
C119 C120 1.392(8)
C121 C122 1.523(9)
C121 H12A 0.9900
C121 H12B 0.9900
C122 H12C 0.9800
C122 H12D 0.9800
C122 H12E 0.9800
C123 C124 1.542(9)
C123 H12F 0.9900
C123 H12G 0.9900
C124 H12H 0.9800
C124 H12I 0.9800
C124 H12J 0.9800
C125 C126 1.532(8)
C125 H12K 0.9900
C125 H12L 0.9900
C126 H12M 0.9800
C126 H12N 0.9800
C126 H12O 0.9800
C127 C128 1.535(8)
C127 H12P 0.9900
C127 H12Q 0.9900
C128 H12R 0.9800
C128 H12S 0.9800
C128 H12T 0.9800
C129 C130 1.515(8)
C129 H12U 0.9900
C129 H12V 0.9900
C130 H13A 0.9800
C130 H13B 0.9800
C130 H13C 0.9800
C131 C132 1.525(8)
C131 H13D 0.9900
C131 H13E 0.9900
C132 H13F 0.9800
C132 H13G 0.9800
C132 H13H 0.9800
C133 C134 1.513(8)
C133 H13I 0.9900
C133 H13J 0.9900
C134 H13K 0.9800
C134 H13L 0.9800
C134 H13M 0.9800
C135 C136 1.520(8)
C135 H13N 0.9900
C135 H13O 0.9900
C136 H13P 0.9800
C136 H13Q 0.9800
C136 H13R 0.9800
Cl1 O3 1.360(6)
Cl1 O4 1.424(5)
Cl1 O5 1.426(4)
Cl1 O2 1.439(5)
C1S C6S 1.336(8)
C1S C2S 1.410(8)
C1S C7S 1.517(8)
C2S C3S 1.425(9)
C2S H2SA 0.9500
C3S C4S 1.350(9)
C3S H3SA 0.9500
C4S C5S 1.397(8)
C4S H4SA 0.9500
C5S C6S 1.384(8)
C5S H5SA 0.9500
C6S H6SA 0.9500
C7S H7SA 0.9800
C7S H7SB 0.9800
C7S H7SC 0.9800
C8S C9S 1.3900
C8S C13S 1.3900
C8S H8SA 0.9500
C9S C10S 1.3900
C9S H9SA 0.9500
C10S C11S 1.3900
C10S H10C 0.9500
C11S C12S 1.3900
C11S H11C 0.9500
C12S C13S 1.3900
C12S H12W 0.9500
C13S H13S 0.9500
